data_mof_unit_56444.cif
_audit_creation_date              2012-12-10T19:25:56-0500
_audit_creation_method            fapswitch 2.2
_symmetry_space_group_name_H-M    P1
_symmetry_Int_Tables_number       1
_space_group_crystal_system       triclinic
_cell_length_a                    9.784542
_cell_length_b                    10.483306
_cell_length_c                    16.896794
_cell_angle_alpha                 89.041128
_cell_angle_beta                  87.517972
_cell_angle_gamma                 89.941978
_cell_volume                      1731.30910333

loop_
_atom_site_label
_atom_site_type_symbol
_atom_type_description
_atom_site_fract_x
_atom_site_fract_y
_atom_site_fract_z
_atom_type_partial_charge
C1    C     C_R   0.500211 0.742248 0.499237 0.903736
C2    C     C_3   0.629930 0.958845 0.508665 -0.320529
C3    C     C_3   0.947900 0.598883 0.536897 -0.289947
C4    C     C_3   0.051659 0.402952 0.462282 -0.189938
C5    C     C_3   0.052602 0.603430 0.465948 -0.260174
C6    C     C_3   0.948957 0.397761 0.534230 -0.248305
C7    C     C_3   0.041404 0.496423 0.570409 0.653163
C8    C     C_3   0.958588 0.506291 0.429492 0.624959
C9    C     C_R   0.484725 0.490744 0.652444 0.864899
C10   C     C_R   0.515542 0.491809 0.347800 0.861720
C11   C     C_R   0.487029 0.463334 0.737479 -0.167326
C12   C     C_R   0.499543 0.257671 0.501576 0.900071
C13   C     C_R   0.514511 0.448600 0.266306 -0.137664
C14   C     C_R   0.608742 0.417494 0.771057 0.456498
C15   C     C_R   0.395517 0.464303 0.222495 0.519851
C16   C     C_R   0.616392 0.408513 0.852289 -0.122248
C17   C     C_R   0.389684 0.407635 0.148973 -0.199502
C18   C     C_R   0.502753 0.436834 0.900388 0.101319
C19   C     C_R   0.505251 0.348405 0.115540 0.093710
C20   C     C_R   0.378632 0.471712 0.868255 -0.089737
C21   C     C_R   0.621121 0.327863 0.159390 -0.131753
C22   C     C_R   0.370523 0.483451 0.786574 -0.284036
C23   C     C_3   0.451012 0.961501 0.431166 -0.345931
C24   C     C_R   0.624462 0.375541 0.235547 -0.222998
C25   C     C_2   0.519548 0.443460 0.984456 0.267103
C26   C     C_2   0.512926 0.336130 0.030320 0.211450
C27   C     C_3   0.723577 0.256767 0.706940 0.050613
C28   C     C_3   0.862644 0.198023 0.723793 -0.328445
C29   C     C_3   0.876802 0.064619 0.689498 -0.964841
C30   C     C_3   0.265633 0.645960 0.209263 0.080438
C31   C     C_3   0.318532 0.758500 0.255459 -0.402504
C32   C     C_3   0.305892 0.883020 0.208230 -0.828153
C33   C     C_3   0.004945 0.546924 0.703728 0.040274
C34   C     C_3   0.547807 0.038464 0.570767 -0.399944
C35   C     C_3   0.047899 0.684849 0.719046 -0.380747
C36   C     C_3   0.952665 0.745258 0.781837 -0.900940
C37   C     C_3   0.904720 0.632603 0.321671 0.062832
C38   C     C_3   0.850772 0.632926 0.238155 -0.288313
C39   C     C_3   0.855504 0.765858 0.199978 -0.924720
C40   C     C_3   0.762946 0.031526 0.350562 0.073017
C41   C     C_3   0.896001 0.080315 0.383740 -0.326298
C42   C     C_3   0.018511 0.001599 0.354166 -0.977586
C43   C     C_3   0.356781 0.931010 0.694850 0.078139
C44   C     C_3   0.468485 0.845824 0.728682 -0.454167
C45   C     C_3   0.577918 0.044472 0.441497 0.592917
C46   C     C_3   0.501523 0.884826 0.812260 -0.748214
C47   C     C_3   0.420452 0.954997 0.560416 0.600116
C48   C     C_3   0.497820 0.122571 0.502603 -0.084171
C49   C     C_3   0.500867 0.877161 0.499238 -0.099352
C50   C     C_3   0.369150 0.040784 0.493453 -0.242275
H1    H     H_    0.897552 0.681749 0.566018 0.149008
H2    H     H_    0.585889 0.071044 0.627472 0.144948
H3    H     H_    0.263518 0.078292 0.489374 0.164311
H4    H     H_    0.734654 0.920047 0.514710 0.161716
H5    H     H_    0.102699 0.690192 0.439763 0.139821
H6    H     H_    0.901711 0.310727 0.561339 0.152883
H7    H     H_    0.706354 0.250741 0.642763 0.176378
H8    H     H_    0.642421 0.199222 0.739698 0.133555
H9    H     H_    0.945871 0.259274 0.697484 0.241310
H10   H     H_    0.874500 0.192542 0.788885 0.239127
H11   H     H_    0.979623 0.025833 0.701419 0.275055
H12   H     H_    0.100053 0.322062 0.430016 0.152422
H13   H     H_    0.865729 0.068235 0.624333 0.258778
H14   H     H_    0.797754 0.999959 0.717087 0.273771
H15   H     H_    0.154883 0.659161 0.200770 0.161381
H16   H     H_    0.315021 0.646639 0.148724 0.202013
H17   H     H_    0.258960 0.765870 0.312720 0.221472
H18   H     H_    0.427867 0.742601 0.268063 0.219588
H19   H     H_    0.368371 0.877836 0.151955 0.323023
H20   H     H_    0.343131 0.963995 0.242839 0.259676
H21   H     H_    0.197599 0.901053 0.194520 0.252655
H22   H     H_    0.010376 0.490761 0.759849 0.180977
H23   H     H_    0.714080 0.358031 0.269592 0.215008
H24   H     H_    0.896145 0.545107 0.687500 0.203519
H25   H     H_    0.153868 0.687393 0.739558 0.234023
H26   H     H_    0.045987 0.743031 0.663646 0.237999
H27   H     H_    0.846993 0.751820 0.760508 0.268956
H28   H     H_    0.989132 0.842674 0.794573 0.266836
H29   H     H_    0.951515 0.687760 0.837692 0.287213
H30   H     H_    0.009063 0.674525 0.317519 0.137173
H31   H     H_    0.836392 0.692620 0.360230 0.143334
H32   H     H_    0.912267 0.566216 0.200560 0.237033
H33   H     H_    0.743161 0.601000 0.241090 0.248984
H34   H     H_    0.275288 0.511822 0.762127 0.205996
H35   H     H_    0.782030 0.829510 0.231759 0.247562
H36   H     H_    0.826111 0.760227 0.137406 0.308503
H37   H     H_    0.959835 0.806958 0.200983 0.246682
H38   H     H_    0.564219 0.063350 0.087490 0.353897
H39   H     H_    0.688818 0.752472 0.973577 0.391773
H40   H     H_    0.770410 0.043050 0.285057 0.166938
H41   H     H_    0.749398 0.927387 0.363259 0.115742
H42   H     H_    0.911715 0.181553 0.364905 0.243320
H43   H     H_    0.889169 0.076109 0.449520 0.211825
H44   H     H_    0.007686 0.901144 0.375337 0.251148
H45   H     H_    0.290108 0.493418 0.906407 0.159113
H46   H     H_    0.113834 0.041565 0.376960 0.270123
H47   H     H_    0.026840 0.004226 0.288430 0.274145
H48   H     H_    0.261331 0.916494 0.731907 0.173088
H49   H     H_    0.381442 0.034313 0.699120 0.135437
H50   H     H_    0.432958 0.745258 0.730157 0.236320
H51   H     H_    0.563427 0.851418 0.690333 0.221988
H52   H     H_    0.539044 0.984814 0.811894 0.275638
H53   H     H_    0.582656 0.821499 0.834734 0.279872
H54   H     H_    0.409239 0.876046 0.852640 0.294816
H55   H     H_    0.710614 0.281205 0.133294 0.148459
H56   H     H_    0.299552 0.420947 0.114577 0.139449
H57   H     H_    0.712259 0.381705 0.877878 0.165585
H58   H     H_    0.414859 0.925430 0.374614 0.160322
N1    N     N_3   0.136700 0.499970 0.500060 -0.102224
N2    N     N_3   0.863300 0.500030 0.499940 -0.117645
O1    O     O_R   0.383390 0.686040 0.500000 -0.589515
O2    O     O_3   0.282881 0.530783 0.252733 -0.633915
O3    O     O_3   0.094740 0.489513 0.646789 -0.640300
O4    O     O_3   0.909605 0.506124 0.351920 -0.628539
O5    O     O_2   0.369776 0.178610 0.941539 -0.279871
O6    O     O_2   0.617492 0.147296 0.940747 -0.351143
O7    O     O_3   0.472446 0.073332 0.065603 -0.519822
O8    O     O_2   0.429996 0.680090 0.013321 -0.329814
O9    O     O_2   0.606726 0.601028 0.100496 -0.350077
O10   O     O_3   0.678394 0.663523 0.955890 -0.567967
O11   O     O_3   0.652123 0.106864 0.378584 -0.646588
O12   O     O_R   0.616610 0.313960 0.500000 -0.608411
O13   O     O_3   0.329541 0.895048 0.616970 -0.646852
O14   O     O_R   0.616650 0.686050 0.499970 -0.646750
O15   O     O_R   0.383350 0.313950 0.500030 -0.634228
O16   O     O_R   0.369590 0.500020 0.615820 -0.559770
O17   O     O_R   0.630410 0.499980 0.384180 -0.589773
O18   O     O_R   0.602840 0.500020 0.615790 -0.587363
O19   O     O_R   0.397160 0.499980 0.384210 -0.568211
O20   O     O_3   0.724603 0.387524 0.725806 -0.664447
S1    S     S_3+6 0.493185 0.181383 0.991418 -0.003217
S2    S     S_3+6 0.556733 0.599704 0.017771 -0.030859
Zn1   Zn    Zn3+2 0.344250 0.499990 0.500020 1.010648
Zn2   Zn    Zn3+2 0.655750 0.500010 0.499980 0.968897

loop_
_geom_bond_atom_site_label_1
_geom_bond_atom_site_label_2
_ccdc_geom_bond_type
C4    N1    S    
C29   H13   S    
C23   C45   S    
C38   H33   S    
C41   C42   S    
C6    C7    S    
C35   C36   S    
O17   Zn2   S    
C39   H37   S    
C12   C48   S    
C47   C49   S    
O5    S1    D    
O18   Zn2   S    
C31   H17   S    
C40   O11   S    
C46   H52   S    
C35   H25   S    
C42   H46   S    
C28   C29   S    
C19   C21   A    
C43   H49   S    
C3    C7    S    
C36   H27   S    
C30   C31   S    
C11   C14   A    
C24   H23   S    
C23   C49   S    
C3    N2    S    
C4    H12   S    
C4    C8    S    
C19   C26   S    
O12   Zn2   S    
C33   H22   S    
C17   C19   A    
C41   H43   S    
O16   Zn1   S    
C43   H48   S    
C32   H21   S    
C16   H57   S    
C8    O4    S    
C2    C34   S    
C48   C50   S    
C29   H14   S    
O10   S2    S    
C38   H32   S    
C6    N2    S    
C37   H31   S    
C18   C25   S    
C28   H9    S    
C44   C46   S    
C47   C50   S    
C28   H10   S    
C2    C45   S    
C31   H18   S    
C37   H30   S    
C29   H11   S    
C35   H26   S    
C9    O18   A    
N1    Zn1   S    
C50   H3    S    
C4    C6    S    
C2    H4    S    
C42   H47   S    
C3    H1    S    
O1    Zn1   S    
C23   C50   S    
C32   H20   S    
C12   O15   A    
C45   O11   S    
C25   C26   D    
C46   H54   S    
C36   H29   S    
C7    N1    S    
C13   C24   A    
C30   O2    S    
C22   H34   S    
C43   C44   S    
C37   C38   S    
C2    C49   S    
C8    N2    S    
C47   O13   S    
C31   C32   S    
H39   O10   S    
O9    S2    D    
C9    C11   S    
C30   H16   S    
O19   Zn1   S    
C40   C41   S    
C20   H45   S    
C20   C22   A    
C13   C15   A    
C27   H7    S    
C14   C16   A    
N2    Zn2   S    
C34   C48   S    
C39   H35   S    
C10   O17   A    
C43   O13   S    
C14   O20   S    
C45   C48   S    
O15   Zn1   S    
C15   C17   A    
C42   H44   S    
C33   O3    S    
C15   O2    S    
C5    H5    S    
C6    H6    S    
C3    C5    S    
C10   C13   S    
C5    C8    S    
C44   H51   S    
C32   H19   S    
C37   O4    S    
C46   H53   S    
C11   C22   A    
C34   H2    S    
C9    O16   A    
O14   Zn2   S    
C7    O3    S    
C1    O14   A    
C36   H28   S    
C17   H56   S    
C1    O1    A    
C44   H50   S    
C38   C39   S    
O6    S1    D    
C5    N1    S    
C27   H8    S    
C23   H58   S    
C33   C35   S    
C18   C20   A    
C40   H41   S    
O7    S1    S    
C10   O19   A    
C30   H15   S    
O8    S2    D    
C33   H24   S    
C41   H42   S    
C12   O12   A    
C16   C18   A    
C21   C24   A    
C27   C28   S    
C27   O20   S    
C34   C47   S    
C39   H36   S    
C40   H40   S    
H38   O7    S    
C25   S2    S    
C1    C49   S    
C21   H55   S    
C26   S1    S    
