data_mof_unit_28160.cif
_audit_creation_date              2012-10-26T20:11:38-0400
_audit_creation_method            fapswitch 2.2
_symmetry_space_group_name_H-M    P1
_symmetry_Int_Tables_number       1
_space_group_crystal_system       triclinic
_cell_length_a                    11.053171
_cell_length_b                    15.136824
_cell_length_c                    13.830397
_cell_angle_alpha                 90.969769
_cell_angle_beta                  102.676608
_cell_angle_gamma                 89.802345
_cell_volume                      2257.23430843

loop_
_atom_site_label
_atom_site_type_symbol
_atom_type_description
_atom_site_fract_x
_atom_site_fract_y
_atom_site_fract_z
_atom_type_partial_charge
C1    C     C_R   0.501994 0.329943 0.499406 0.576909
C2    C     C_R   0.599144 0.467767 0.808333 0.047695
C3    C     C_R   0.415748 0.448754 0.091638 -0.139431
C4    C     C_R   0.600272 0.467785 0.910311 -0.142709
C5    C     C_R   0.500351 0.500611 0.054740 0.051261
C6    C     C_R   0.498092 0.500028 0.945403 0.043708
C7    C     C_R   0.262608 0.499969 0.459971 0.552327
C8    C     C_R   0.737384 0.499937 0.540022 0.570931
C9    C     C_2   0.127765 0.499842 0.437212 -0.126743
C10   C     C_2   0.872205 0.499864 0.562748 -0.119193
C11   C     C_2   0.067231 0.499734 0.510778 -0.159500
C12   C     C_R   0.501164 0.670447 0.501112 0.570374
C13   C     C_2   0.932686 0.499612 0.489140 -0.153073
C14   C     C_R   0.439078 0.096139 0.555339 -0.148411
C15   C     C_R   0.475341 0.904041 0.412241 -0.147822
C16   C     C_R   0.438861 0.187684 0.556081 -0.205175
C17   C     C_R   0.473787 0.812464 0.413272 -0.197684
C18   C     C_R   0.504720 0.233595 0.497331 -0.018137
C19   C     C_R   0.503379 0.767506 0.503283 -0.024818
C20   C     C_R   0.571719 0.187241 0.436740 0.250912
C21   C     C_R   0.534636 0.816013 0.593638 0.253777
C22   C     C_R   0.577777 0.094475 0.440749 0.249036
C23   C     C_R   0.508439 0.049127 0.498350 0.010949
C24   C     C_R   0.542951 0.908601 0.591773 0.247169
C25   C     C_3   0.592421 0.227270 0.282508 0.034179
C26   C     C_3   0.672517 0.280350 0.227270 -0.250546
C27   C     C_3   0.630603 0.267282 0.115262 -0.490905
C28   C     C_3   0.476162 0.781545 0.737128 0.030857
C29   C     C_3   0.530651 0.759811 0.845442 -0.235602
C30   C     C_3   0.440605 0.783548 0.911117 -0.463892
C31   C     C_3   0.769456 0.037122 0.443625 0.022106
C32   C     C_3   0.856025 0.012118 0.375352 -0.246530
C33   C     C_3   0.988425 0.997629 0.433965 -0.487053
C34   C     C_R   0.509323 0.952459 0.500947 0.008455
C35   C     C_3   0.706325 0.969019 0.702251 0.023776
C36   C     C_3   0.746321 0.004175 0.808602 -0.248650
C37   C     C_3   0.885764 0.021043 0.836764 -0.484726
C38   C     C_R   0.586181 0.551974 0.123814 0.057257
C39   C     C_R   0.395024 0.530743 0.874544 0.049554
C40   C     C_R   0.583580 0.550693 0.225217 0.061649
C41   C     C_R   0.399321 0.531347 0.773435 0.048518
C42   C     C_R   0.417121 0.449280 0.193595 0.037498
Cu1   Cu    Cu3+1 0.500000 0.499990 0.596430 0.963996
Cu2   Cu    Cu3+1 0.500000 0.500010 0.403570 0.955664
H1    H     H_    0.882817 0.499387 0.411996 0.160741
H2    H     H_    0.447774 0.776790 0.343247 0.159039
H3    H     H_    0.648701 0.590781 0.277550 0.147325
H4    H     H_    0.321136 0.557393 0.720614 0.137389
H5    H     H_    0.351764 0.408675 0.220683 0.122269
H6    H     H_    0.678277 0.441718 0.783192 0.135967
H7    H     H_    0.496677 0.254977 0.265732 0.123003
H8    H     H_    0.589012 0.157672 0.255047 0.174132
H9    H     H_    0.667274 0.351619 0.246498 0.187678
H10   H     H_    0.770753 0.258920 0.250674 0.173590
H11   H     H_    0.645331 0.197607 0.094136 0.147243
H12   H     H_    0.117048 0.499769 0.587916 0.159877
H13   H     H_    0.685497 0.310862 0.077382 0.151567
H14   H     H_    0.530925 0.283801 0.090084 0.146399
H15   H     H_    0.399710 0.734393 0.706698 0.133371
H16   H     H_    0.436161 0.849386 0.734467 0.159677
H17   H     H_    0.552835 0.688213 0.851425 0.203857
H18   H     H_    0.618065 0.797506 0.872223 0.197580
H19   H     H_    0.429814 0.856429 0.915232 0.145373
H20   H     H_    0.476708 0.758850 0.987152 0.198845
H21   H     H_    0.348456 0.753493 0.880759 0.181627
H22   H     H_    0.769456 0.982475 0.496309 0.121923
H23   H     H_    0.349313 0.407444 0.041748 0.122879
H24   H     H_    0.805798 0.098608 0.485671 0.147439
H25   H     H_    0.822080 0.950493 0.333413 0.182422
H26   H     H_    0.855801 0.065781 0.321398 0.173233
H27   H     H_    0.025224 0.059054 0.474895 0.146272
H28   H     H_    0.048770 0.979360 0.382316 0.154061
H29   H     H_    0.991033 0.943361 0.487464 0.148084
H30   H     H_    0.731172 0.018858 0.651758 0.116920
H31   H     H_    0.757210 0.906143 0.695671 0.155209
H32   H     H_    0.696554 0.066953 0.816416 0.171999
H33   H     H_    0.721337 0.955365 0.860147 0.176204
H34   H     H_    0.680653 0.442329 0.961659 0.122732
H35   H     H_    0.937429 0.958739 0.831267 0.157412
H36   H     H_    0.911717 0.046601 0.914277 0.150957
H37   H     H_    0.912464 0.070801 0.787084 0.143647
H38   H     H_    0.922255 0.500074 0.639784 0.118208
H39   H     H_    0.077738 0.499815 0.360176 0.115680
H40   H     H_    0.385167 0.061722 0.599587 0.153465
H41   H     H_    0.449175 0.937350 0.342000 0.157523
H42   H     H_    0.385523 0.222806 0.601510 0.140987
I1    I     I_    0.718431 0.635346 0.081069 -0.465904
I2    I     I_    0.231080 0.578156 0.913874 -0.463522
N1    N     N_R   0.500000 0.500020 0.258690 -0.242596
N2    N     N_R   0.500000 0.499980 0.741310 -0.236788
O1    O     O_R   0.500010 0.371450 0.581440 -0.507665
O2    O     O_3   0.570469 0.773116 0.683015 -0.540387
O3    O     O_3   0.648480 0.048492 0.385676 -0.585826
O4    O     O_3   0.576812 0.956028 0.679992 -0.583368
O5    O     O_R   0.499990 0.628550 0.418560 -0.511280
O6    O     O_R   0.500010 0.371460 0.418560 -0.481167
O7    O     O_R   0.499990 0.628540 0.581440 -0.457445
O8    O     O_R   0.320690 0.500000 0.551510 -0.518859
O9    O     O_R   0.679310 0.500000 0.448490 -0.504603
O10   O     O_R   0.320690 0.500010 0.388630 -0.498522
O11   O     O_R   0.679310 0.499990 0.611370 -0.498856
O12   O     O_3   0.645027 0.233061 0.385208 -0.554976

loop_
_geom_bond_atom_site_label_1
_geom_bond_atom_site_label_2
_ccdc_geom_bond_type
C40   H3    S    
C13   H1    S    
C3    C42   A    
C7    O8    A    
C30   H20   S    
C31   H22   S    
C11   C13   S    
C35   C36   S    
Cu1   O8    S    
C14   H40   S    
Cu1   O11   S    
C35   H30   S    
C37   H35   S    
C35   H31   S    
C1    C18   S    
C36   C37   S    
C19   C21   A    
C8    O9    A    
C36   H33   S    
C5    C6    S    
Cu2   O9    S    
C27   H11   S    
C25   O12   S    
C35   O4    S    
C20   O12   S    
C7    C9    S    
C2    N2    A    
C2    H6    S    
C33   H28   S    
C12   O5    A    
C40   N1    A    
C36   H32   S    
C8    O11   A    
C15   C34   A    
C15   H41   S    
C41   N2    A    
C1    O1    A    
C30   H19   S    
C16   H42   S    
C37   H37   S    
C39   I2    S    
Cu2   N1    S    
C26   H10   S    
C28   H16   S    
C31   H24   S    
C37   H36   S    
C29   H17   S    
Cu1   N2    S    
C7    O10   A    
C17   H2    S    
C4    C6    A    
C27   H13   S    
C32   H26   S    
C25   C26   S    
C31   O3    S    
C10   C13   D    
C24   C34   A    
C14   C23   A    
C2    C4    A    
Cu1   Cu2   S    
C25   H7    S    
C4    H34   S    
C29   C30   S    
Cu2   O6    S    
C24   O4    S    
C31   C32   S    
C23   C34   S    
C26   C27   S    
C28   O2    S    
C16   C18   A    
C9    C11   D    
C12   O7    A    
C9    H39   S    
C33   H29   S    
C20   C22   A    
C22   O3    S    
C14   C16   A    
C26   H9    S    
C28   H15   S    
C15   C17   A    
C29   H18   S    
C28   C29   S    
C6    C39   A    
C3    H23   S    
Cu1   O7    S    
C3    C5    A    
C27   H14   S    
C32   H25   S    
C38   I1    S    
C42   N1    A    
C32   C33   S    
C25   H8    S    
Cu2   O5    S    
C38   C40   A    
Cu2   O10   S    
C1    O6    A    
C12   C19   S    
C17   C19   A    
C41   H4    S    
C10   H38   S    
C18   C20   A    
Cu1   O1    S    
C30   H21   S    
C33   H27   S    
C42   H5    S    
C39   C41   A    
C8    C10   S    
C21   C24   A    
C22   C23   A    
C5    C38   A    
C11   H12   S    
C21   O2    S    
