data_mof_unit_12467.cif
_audit_creation_date              2012-10-26T21:01:04-0400
_audit_creation_method            fapswitch 2.2
_symmetry_space_group_name_H-M    P1
_symmetry_Int_Tables_number       1
_space_group_crystal_system       triclinic
_cell_length_a                    10.942653
_cell_length_b                    10.837407
_cell_length_c                    9.547801
_cell_angle_alpha                 89.47571
_cell_angle_beta                  89.585002
_cell_angle_gamma                 90.283869
_cell_volume                      1132.18219443

loop_
_atom_site_label
_atom_site_type_symbol
_atom_type_description
_atom_site_fract_x
_atom_site_fract_y
_atom_site_fract_z
_atom_type_partial_charge
C1    C     C_R   0.503022 0.262210 0.500533 0.545775
C2    C     C_R   0.411412 0.440255 0.075773 -0.026306
C3    C     C_R   0.410427 0.441821 0.926899 -0.030428
C4    C     C_R   0.265394 0.501584 0.500522 0.553263
C5    C     C_R   0.580963 0.571944 0.924826 0.204561
C6    C     C_3   0.716741 0.565771 0.917432 -0.278334
C7    C     C_3   0.716603 0.565840 0.076028 -0.293663
C8    C     C_R   0.502827 0.737626 0.499339 0.552454
C9    C     C_R   0.734671 0.498703 0.499875 0.551096
C10   C     C_2   0.934294 0.510017 0.386605 -0.163441
C11   C     C_2   0.866584 0.491911 0.502315 -0.119698
C12   C     C_R   0.516902 0.129074 0.500391 -0.010344
C13   C     C_2   0.067855 0.503210 0.386250 -0.162129
C14   C     C_2   0.133542 0.508072 0.503855 -0.120328
C15   C     C_R   0.528607 0.061691 0.625380 0.003910
C16   C     C_3   0.522350 0.125176 0.887031 -0.232141
C17   C     C_3   0.659683 0.152235 0.867205 -0.280228
C18   C     C_3   0.715091 0.201045 0.002137 -0.463244
C19   C     C_R   0.524598 0.065694 0.372422 -0.168924
C20   C     C_R   0.524660 0.937001 0.371222 -0.172867
C21   C     C_R   0.516411 0.870564 0.497978 -0.009353
C22   C     C_R   0.526727 0.934422 0.623371 0.044532
C23   C     C_3   0.452669 0.923709 0.754875 -0.010702
C24   C     C_3   0.456766 0.065590 0.760506 -0.108416
C25   C     C_R   0.580664 0.572460 0.072100 0.163029
Cu1   Cu    Cu3+1 0.499990 0.499980 0.640670 0.942247
Cu2   Cu    Cu3+1 0.500010 0.500020 0.359330 0.928230
H1    H     H_    0.891310 0.529093 0.287208 0.135497
H2    H     H_    0.091937 0.520344 0.605930 0.096845
H3    H     H_    0.523929 0.114766 0.273102 0.133302
H4    H     H_    0.524324 0.890350 0.271368 0.133558
H5    H     H_    0.359649 0.885473 0.736482 0.135444
H6    H     H_    0.364349 0.105536 0.744208 0.102078
H7    H     H_    0.664314 0.283442 0.038169 0.165416
H8    H     H_    0.711280 0.128846 0.085402 0.150942
H9    H     H_    0.812036 0.227429 0.983376 0.133378
H10   H     H_    0.709547 0.067875 0.835905 0.154249
H11   H     H_    0.672840 0.222971 0.783424 0.189391
H12   H     H_    0.342008 0.388439 0.132473 0.114208
H13   H     H_    0.476832 0.213898 0.907174 0.144342
H14   H     H_    0.506493 0.069504 0.983585 0.131943
H15   H     H_    0.606107 0.889827 0.878437 0.234351
H16   H     H_    0.468998 0.863510 0.958706 0.217602
H17   H     H_    0.340014 0.391517 0.872279 0.108447
H18   H     H_    0.750573 0.477609 0.873294 0.143422
H19   H     H_    0.757559 0.650732 0.870255 0.132076
H20   H     H_    0.749503 0.477301 0.120976 0.140840
H21   H     H_    0.758030 0.650541 0.120672 0.123103
H22   H     H_    0.906638 0.469400 0.602610 0.091915
H23   H     H_    0.112905 0.496650 0.284820 0.142805
N1    N     N_R   0.500780 0.500930 0.147930 -0.235960
N2    N     N_R   0.500780 0.500890 0.852020 -0.228989
N3    N     N_3   0.517661 0.855734 0.864627 -0.614458
O1    O     O_R   0.500000 0.319640 0.618810 -0.508965
O2    O     O_R   0.500010 0.319680 0.381230 -0.508861
O3    O     O_R   0.321940 0.499980 0.618760 -0.508418
O4    O     O_R   0.321950 0.500020 0.381180 -0.502729
O5    O     O_R   0.499990 0.680320 0.618770 -0.465511
O6    O     O_R   0.500000 0.680360 0.381190 -0.505195
O7    O     O_R   0.678050 0.499980 0.618820 -0.513394
O8    O     O_R   0.678060 0.500020 0.381240 -0.501222

loop_
_geom_bond_atom_site_label_1
_geom_bond_atom_site_label_2
_ccdc_geom_bond_type
C4    O4    A    
C3    N2    A    
C25   N1    A    
C5    N2    A    
C23   N3    S    
C6    C7    S    
C11   H22   S    
C6    H18   S    
Cu1   N2    S    
Cu1   O5    S    
C18   H8    S    
C19   C20   A    
C7    C25   S    
C12   C15   A    
C23   C24   S    
C9    O7    A    
C23   H5    S    
C8    C21   S    
C1    O2    A    
C10   C13   S    
C16   C24   S    
Cu2   O6    S    
C21   C22   A    
C4    O3    A    
C9    C11   S    
Cu1   Cu2   S    
C1    C12   S    
C18   H9    S    
C16   H13   S    
C1    O1    A    
C5    C25   A    
Cu1   O1    S    
C12   C19   A    
C15   C24   S    
Cu2   N1    S    
C2    C3    A    
Cu2   O2    S    
C17   H11   S    
C18   H7    S    
C8    O6    A    
C4    C14   S    
C5    C6    S    
C3    H17   S    
C9    O8    A    
H15   N3    S    
C10   C11   D    
C7    H21   S    
C14   H2    S    
C7    H20   S    
C13   H23   S    
C20   C21   A    
C17   C18   S    
Cu2   O4    S    
C10   H1    S    
C22   C23   S    
C17   H10   S    
C6    H19   S    
C2    N1    A    
C8    O5    A    
C13   C14   D    
C19   H3    S    
Cu1   O7    S    
C2    H12   S    
H16   N3    S    
C15   C22   A    
C24   H6    S    
Cu1   O3    S    
C16   C17   S    
C16   H14   S    
C20   H4    S    
Cu2   O8    S    
