data_mof_unit_58163.cif
_audit_creation_date              2012-10-26T19:41:54-0400
_audit_creation_method            fapswitch 2.2
_symmetry_space_group_name_H-M    P1
_symmetry_Int_Tables_number       1
_space_group_crystal_system       triclinic
_cell_length_a                    10.618316
_cell_length_b                    10.79546
_cell_length_c                    9.61787
_cell_angle_alpha                 90.168652
_cell_angle_beta                  89.771588
_cell_angle_gamma                 91.870004
_cell_volume                      1101.89237635

loop_
_atom_site_label
_atom_site_type_symbol
_atom_type_description
_atom_site_fract_x
_atom_site_fract_y
_atom_site_fract_z
_atom_type_partial_charge
C1    C     C_R   0.499505 0.262537 0.499467 0.587717
C2    C     C_R   0.392436 0.062901 0.565537 -0.014191
C3    C     C_R   0.493374 0.127923 0.497508 -0.013538
C4    C     C_R   0.259608 0.501414 0.500362 0.527089
C5    C     C_R   0.586626 0.062863 0.424589 0.210520
C6    C     C_R   0.582559 0.934776 0.426959 -0.145902
C7    C     C_R   0.488766 0.869891 0.500084 -0.036188
C8    C     C_R   0.667667 0.662824 0.143507 -0.085362
C9    C     C_R   0.749890 0.742075 0.071414 -0.154032
C10   C     C_R   0.749602 0.742464 0.928191 -0.158706
C11   C     C_R   0.667143 0.663522 0.856168 -0.079701
C12   C     C_3   0.959822 0.494221 0.368800 -0.083751
C13   C     C_R   0.582145 0.580275 0.925179 0.161080
C14   C     C_R   0.582272 0.580074 0.074626 0.164220
C15   C     C_R   0.421913 0.423691 0.073906 0.025566
C16   C     C_R   0.495246 0.736714 0.500200 0.517017
C17   C     C_R   0.421943 0.423712 0.926149 0.009576
C18   C     C_R   0.740607 0.502552 0.499849 0.578756
C19   C     C_3   0.041003 0.514208 0.632462 -0.131851
C20   C     C_3   0.954967 0.407835 0.575637 -0.080576
C21   C     C_3   0.877846 0.504164 0.499740 0.063675
C22   C     C_3   0.961648 0.610676 0.556736 -0.153979
C23   C     C_3   0.038849 0.397654 0.444640 -0.091935
C24   C     C_3   0.046011 0.600645 0.425867 -0.141126
C25   C     C_3   0.122780 0.503876 0.501402 0.026306
C26   C     C_R   0.290616 0.124939 0.627117 -0.105133
C27   C     C_R   0.191352 0.058618 0.690599 -0.114527
C28   C     C_R   0.190463 0.929786 0.693039 -0.117125
C29   C     C_R   0.288677 0.866503 0.631655 -0.090024
C30   C     C_R   0.390738 0.931878 0.567468 0.022753
Cu1   Cu    Cu3+1 0.499990 0.499990 0.640660 0.931195
Cu2   Cu    Cu3+1 0.500010 0.500010 0.359340 0.987151
H1    H     H_    0.915375 0.329209 0.637818 0.148905
H2    H     H_    0.357868 0.361070 0.871173 0.114222
H3    H     H_    0.076870 0.522497 0.740476 0.125116
H4    H     H_    0.926882 0.697736 0.602590 0.095451
H5    H     H_    0.086587 0.679599 0.364927 0.121856
H6    H     H_    0.923947 0.486097 0.260763 0.147612
H7    H     H_    0.073387 0.310362 0.399131 0.133715
H8    H     H_    0.284745 0.224668 0.624436 0.121025
H9    H     H_    0.114052 0.107456 0.736697 0.117081
H10   H     H_    0.865243 0.014058 0.371247 0.329462
H11   H     H_    0.112555 0.878566 0.741104 0.108782
H12   H     H_    0.282287 0.766351 0.632668 0.138730
H13   H     H_    0.654709 0.884153 0.373362 0.139991
H14   H     H_    0.357840 0.361020 0.128966 0.120194
H15   H     H_    0.675494 0.670899 0.252960 0.170257
H16   H     H_    0.814199 0.803870 0.127449 0.160518
H17   H     H_    0.813667 0.804620 0.872103 0.123031
H18   H     H_    0.674510 0.672247 0.746676 0.178085
N1    N     N_R   0.501210 0.501210 0.147910 -0.237313
N2    N     N_R   0.501250 0.501290 0.852040 -0.245391
O1    O     O_R   0.499990 0.319640 0.618810 -0.502199
O2    O     O_2   0.774095 0.234816 0.422072 -0.323445
O3    O     O_3   0.821173 0.034959 0.284218 -0.540996
O4    O     O_R   0.500000 0.319660 0.381240 -0.444058
O5    O     O_R   0.316850 0.499960 0.618770 -0.525115
O6    O     O_R   0.316860 0.499980 0.381190 -0.511073
O7    O     O_R   0.500000 0.680340 0.618760 -0.529011
O8    O     O_R   0.500010 0.680360 0.381190 -0.524829
O9    O     O_R   0.683140 0.500020 0.618810 -0.520263
O10   O     O_R   0.683150 0.500040 0.381230 -0.492548
O11   O     O_2   0.662456 0.196699 0.203621 -0.222183
S1    S     S_3+6 0.712547 0.136990 0.332110 0.009419

loop_
_geom_bond_atom_site_label_1
_geom_bond_atom_site_label_2
_ccdc_geom_bond_type
C4    O5    A    
C17   H2    S    
Cu2   N1    S    
C6    C7    A    
C6    H13   S    
C15   N1    A    
H10   O3    S    
C13   N2    A    
C22   H4    S    
C9    C10   A    
C27   H9    S    
C28   H11   S    
C14   N1    A    
C20   C23   S    
Cu2   O6    S    
Cu1   N2    S    
C2    C30   A    
O3    S1    S    
Cu1   O5    S    
C19   C20   S    
C2    C3    A    
C8    H15   S    
Cu2   O10   S    
Cu1   O9    S    
C2    C26   A    
C11   H18   S    
C19   H3    S    
C21   C22   S    
Cu1   O1    S    
C1    O1    A    
C11   C13   A    
C12   C23   S    
C26   H8    S    
C26   C27   A    
C29   C30   A    
O2    S1    D    
C23   H7    S    
C20   H1    S    
C17   N2    A    
C7    C16   S    
C1    O4    A    
C24   H5    S    
C23   C25   S    
C29   H12   S    
C12   H6    S    
C5    C6    A    
C19   C25   S    
C22   C24   S    
C10   C11   A    
Cu2   O8    S    
C4    O6    A    
O11   S1    D    
C18   C21   S    
C4    C25   S    
C19   C22   S    
C24   C25   S    
C9    H16   S    
C7    C30   A    
C16   O8    A    
Cu1   O7    S    
C27   C28   A    
C15   C17   A    
C12   C24   S    
C28   C29   A    
C8    C14   A    
C15   H14   S    
C3    C5    A    
C20   C21   S    
C13   C14   A    
C10   H17   S    
C12   C21   S    
Cu2   O4    S    
C18   O9    A    
C18   O10   A    
Cu1   Cu2   S    
C5    S1    S    
C8    C9    A    
C1    C3    S    
C16   O7    A    
