data_mof_unit_67575.cif
_audit_creation_date              2012-12-10T16:48:09-0500
_audit_creation_method            fapswitch 2.2
_symmetry_space_group_name_H-M    P1
_symmetry_Int_Tables_number       1
_space_group_crystal_system       triclinic
_cell_length_a                    15.865319
_cell_length_b                    8.984972
_cell_length_c                    7.645081
_cell_angle_alpha                 104.174738
_cell_angle_beta                  95.680421
_cell_angle_gamma                 97.024575
_cell_volume                      1039.23490232

loop_
_atom_site_label
_atom_site_type_symbol
_atom_type_description
_atom_site_fract_x
_atom_site_fract_y
_atom_site_fract_z
_atom_type_partial_charge
C1    C     C_R   0.492701 0.199264 0.452673 0.839156
C2    C     C_R   0.501318 0.799189 0.547232 0.808979
C3    C     C_R   0.340366 0.501090 0.498925 0.800443
C4    C     C_R   0.659806 0.502497 0.501345 0.806594
C5    C     C_2   0.478884 0.029135 0.430310 -0.122822
C6    C     C_2   0.505799 0.967703 0.573354 -0.122914
C7    C     C_3   0.966483 0.378309 0.520179 0.058566
C8    C     C_3   0.035036 0.651939 0.473027 0.057355
C9    C     C_3   0.011041 0.399353 0.355296 0.137075
C10   C     C_3   0.990053 0.630164 0.636858 0.126881
C11   C     C_1   0.250972 0.507355 0.494387 -0.212885
C12   C     C_1   0.749879 0.507843 0.505326 -0.195880
C13   C     C_3   0.039412 0.495128 0.649655 0.160461
C14   C     C_3   0.961758 0.535721 0.342795 0.158294
C15   C     C_3   0.083847 0.515899 0.485544 0.062279
C16   C     C_3   0.917600 0.514184 0.506936 0.062717
C17   C     C_1   0.175581 0.512256 0.487489 -0.036670
C18   C     C_1   0.825767 0.512032 0.508776 -0.027580
Cu1   Cu    Cu3+1 0.509330 0.517380 0.684380 0.904625
Cu2   Cu    Cu3+1 0.490670 0.482620 0.315620 0.895003
N1    N     N_2   0.476600 0.456420 0.038510 -0.123940
N2    N     N_2   0.523400 0.543580 0.961490 -0.105321
O1    O     O_R   0.506070 0.286130 0.619780 -0.605118
O2    O     O_R   0.493930 0.713870 0.380220 -0.622133
O3    O     O_R   0.490300 0.256770 0.308360 -0.595145
O4    O     O_R   0.509700 0.743230 0.691640 -0.607159
O5    O     O_R   0.386960 0.514660 0.655680 -0.607170
O6    O     O_R   0.613040 0.485340 0.344320 -0.615368
O7    O     O_R   0.371190 0.485310 0.344260 -0.571827
O8    O     O_R   0.628810 0.514690 0.655740 -0.586095
C19   C     C_3   0.024375 0.267836 0.198150 -0.921678
H1    H     H_    0.973041 0.167402 0.178110 0.238014
H2    H     H_    0.023130 0.305842 0.071776 0.253200
H3    H     H_    0.087722 0.233514 0.227909 0.248204
C20   C     C_3   0.976176 0.761573 0.792568 -0.915215
H4    H     H_    0.038003 0.814243 0.878938 0.250957
H5    H     H_    0.949846 0.848636 0.732965 0.239354
H6    H     H_    0.929208 0.719177 0.873718 0.247595
C21   C     C_3   0.928578 0.222944 0.550361 -0.387993
C22   C     C_3   0.876201 0.246613 0.710882 -0.331545
C23   C     C_3   0.869300 0.107012 0.790436 -0.902157
H7    H     H_    0.934280 0.091591 0.843211 0.264228
H8    H     H_    0.831687 0.127092 0.906288 0.256346
H9    H     H_    0.837632 0.000939 0.685355 0.257100
H10   H     H_    0.906518 0.350140 0.820289 0.236826
H11   H     H_    0.810677 0.265298 0.664867 0.218997
H12   H     H_    0.886416 0.152905 0.425218 0.188499
H13   H     H_    0.982487 0.159221 0.575057 0.207079
C24   C     C_3   0.071975 0.811467 0.453786 -0.382067
C25   C     C_3   0.128044 0.800208 0.300309 -0.331709
C26   C     C_3   0.138816 0.951761 0.244080 -0.906459
H14   H     H_    0.074989 0.973529 0.192269 0.264681
H15   H     H_    0.169068 0.049642 0.361543 0.259057
H16   H     H_    0.179123 0.943790 0.133109 0.256797
H17   H     H_    0.192170 0.775159 0.346495 0.219858
H18   H     H_    0.098537 0.705431 0.179719 0.232128
H19   H     H_    0.017238 0.873118 0.428234 0.206663
H20   H     H_    0.111022 0.878982 0.584192 0.191005
C27   C     C_3   0.911738 0.564193 0.177880 -0.910132
H21   H     H_    0.955470 0.588375 0.082486 0.233117
H22   H     H_    0.863285 0.461300 0.110611 0.239807
H23   H     H_    0.879361 0.666731 0.222793 0.237798
C28   C     C_3   0.089075 0.474338 0.818659 -0.912581
H24   H     H_    0.048325 0.482759 0.926869 0.230854
H25   H     H_    0.109575 0.358391 0.785717 0.246656
H26   H     H_    0.145656 0.566650 0.865811 0.242174
C29   C     C_3   0.427560 0.921453 0.252011 -0.388469
C30   C     C_3   0.379925 0.992862 0.117361 -0.374038
C31   C     C_3   0.324542 0.867690 0.962400 -0.901232
H27   H     H_    0.365661 0.794060 0.881313 0.286305
H28   H     H_    0.278665 0.792331 0.016045 0.251127
H29   H     H_    0.287994 0.923381 0.871285 0.242999
H30   H     H_    0.339170 0.073559 0.188615 0.225163
H31   H     H_    0.428065 0.053063 0.053493 0.233406
H32   H     H_    0.471866 0.854619 0.173290 0.233005
H33   H     H_    0.377890 0.841136 0.290555 0.219622
C32   C     C_3   0.543393 0.062395 0.766886 -0.365892
C33   C     C_3   0.637655 0.132284 0.781731 -0.323963
C34   C     C_3   0.670431 0.225265 0.977118 -0.829184
H34   H     H_    0.622851 0.297820 0.032139 0.282748
H35   H     H_    0.680460 0.146664 0.065882 0.246242
H36   H     H_    0.731462 0.301401 0.981614 0.231482
H37   H     H_    0.676365 0.037413 0.741692 0.205457
H38   H     H_    0.646281 0.209180 0.689425 0.238833
H39   H     H_    0.502797 0.147795 0.824668 0.204597
H40   H     H_    0.540352 0.991244 0.865447 0.197221
C35   C     C_3   0.397328 0.360705 0.938298 -0.050277
C36   C     C_3   0.316305 0.437792 0.971730 -0.307443
C37   C     C_3   0.245926 0.330667 0.025031 -0.890998
H41   H     H_    0.217533 0.233733 0.905056 0.235747
H42   H     H_    0.270623 0.278885 0.133287 0.265409
H43   H     H_    0.195367 0.397769 0.076928 0.263975
H44   H     H_    0.331784 0.551889 0.073622 0.240281
H45   H     H_    0.287688 0.463066 0.846695 0.210229
H46   H     H_    0.399133 0.317173 0.792700 0.167636
H47   H     H_    0.391011 0.254242 0.984870 0.132789
C38   C     C_3   0.605419 0.627062 0.063902 -0.069223
C39   C     C_3   0.639672 0.774566 0.010030 -0.380607
C40   C     C_3   0.730731 0.838996 0.105788 -0.961217
H48   H     H_    0.732362 0.866733 0.256062 0.256643
H49   H     H_    0.773912 0.752799 0.062119 0.267068
H50   H     H_    0.755167 0.945762 0.067358 0.257105
H51   H     H_    0.643058 0.754182 0.863545 0.275496
H52   H     H_    0.598236 0.864029 0.051306 0.202429
H53   H     H_    0.599682 0.672446 0.207061 0.211451
H54   H     H_    0.654198 0.548265 0.047866 0.172215

loop_
_geom_bond_atom_site_label_1
_geom_bond_atom_site_label_2
_ccdc_geom_bond_type
C35   C36   S    
C28   H25   S    
C23   H7    S    
Cu1   Cu2   S    
C5    C29   S    
N1    C35   S    
C38   C39   S    
C32   C33   S    
C22   H11   S    
C14   C27   S    
C1    C5    S    
C20   H5    S    
C5    C6    D    
Cu2   O3    S    
C30   H31   S    
C39   H51   S    
C39   C40   S    
C24   H19   S    
C7    C9    S    
C3    O7    A    
Cu1   O4    S    
C33   H37   S    
C11   C17   T    
Cu2   O2    S    
C30   C31   S    
C35   H46   S    
C19   H2    S    
C10   C20   S    
C37   H42   S    
Cu1   O5    S    
C4    C12   S    
C38   H53   S    
C28   H26   S    
C32   H39   S    
C27   H21   S    
N2    C38   S    
N1    N2    D    
C1    O3    A    
C23   H8    S    
C2    C6    S    
C4    O6    A    
Cu2   O7    S    
C22   H10   S    
C36   H45   S    
C27   H22   S    
C31   H28   S    
C26   H14   S    
C20   H6    S    
C34   H34   S    
C21   C22   S    
C34   H35   S    
C33   C34   S    
C6    C32   S    
Cu2   O6    S    
C30   H30   S    
C25   H18   S    
C24   H20   S    
C29   C30   S    
C26   H15   S    
C20   H4    S    
C31   H29   S    
Cu1   O1    S    
C9    C14   S    
C40   H48   S    
C13   C28   S    
C35   H47   S    
Cu1   N2    S    
C25   C26   S    
C19   H3    S    
C2    O4    A    
C36   C37   S    
C37   H43   S    
C38   H54   S    
C16   C18   S    
C22   C23   S    
C40   H49   S    
C32   H40   S    
C1    O1    A    
C8    C15   S    
C13   C15   S    
C2    O2    A    
C23   H9    S    
C14   C16   S    
C29   H32   S    
C21   H12   S    
C15   C17   S    
C36   H44   S    
C7    C16   S    
C27   H23   S    
C8    C14   S    
C19   H1    S    
C10   C13   S    
C34   H36   S    
C25   H17   S    
C26   H16   S    
C3    O5    A    
C9    C15   S    
C10   C16   S    
C39   H52   S    
C31   H27   S    
C3    C11   S    
C9    C19   S    
C28   H24   S    
C33   H38   S    
C7    C13   S    
C40   H50   S    
Cu2   N1    S    
C8    C10   S    
C24   C25   S    
C12   C18   T    
C7    C21   S    
C29   H33   S    
C37   H41   S    
Cu1   O8    S    
C8    C24   S    
C4    O8    A    
C21   H13   S    
