data_mof_unit_8408.cif
_audit_creation_date              2012-12-11T14:50:42-0500
_audit_creation_method            fapswitch 2.2
_symmetry_space_group_name_H-M    P1
_symmetry_Int_Tables_number       1
_space_group_crystal_system       triclinic
_cell_length_a                    10.930831
_cell_length_b                    10.924706
_cell_length_c                    18.868329
_cell_angle_alpha                 90.052854
_cell_angle_beta                  89.757249
_cell_angle_gamma                 60.306709
_cell_volume                      1957.28666778

loop_
_atom_site_label
_atom_site_type_symbol
_atom_type_description
_atom_site_fract_x
_atom_site_fract_y
_atom_site_fract_z
_atom_type_partial_charge
C1    C     C_R   0.234326 0.647917 0.609384 0.604183
C2    C     C_3   0.660617 0.553255 0.801578 0.531570
C3    C     C_3   0.696759 0.673499 0.812427 0.000701
C4    C     C_3   0.669212 0.647009 0.676340 -0.044978
C5    C     C_3   0.815987 0.633799 0.689855 0.520884
C6    C     C_3   0.661247 0.527944 0.720505 0.100244
C7    C     C_R   0.785327 0.156906 0.710333 0.345761
C8    C     C_R   0.800466 0.141578 0.784022 0.374877
C9    C     C_R   0.683775 0.168162 0.826654 -0.045828
C10   C     C_R   0.551742 0.219394 0.795097 0.405614
C11   C     C_R   0.541079 0.217126 0.722782 0.384481
C12   C     C_R   0.653287 0.621483 0.601091 0.615827
C13   C     C_R   0.655742 0.191014 0.678942 -0.059167
C14   C     C_R   0.184300 0.559757 0.721255 0.437948
C15   C     C_R   0.179958 0.561780 0.795067 0.456856
C16   C     C_R   0.171009 0.676908 0.832380 -0.066423
C17   C     C_R   0.175468 0.785158 0.795235 -0.151073
C18   C     C_R   0.176147 0.786699 0.721616 0.156869
C19   C     C_R   0.186728 0.669416 0.683779 -0.013580
C20   C     C_R   0.705545 0.518918 0.267942 0.208484
C21   C     C_R   0.703537 0.538031 0.194679 0.404144
C22   C     C_R   0.648341 0.673446 0.166984 0.017231
C23   C     C_R   0.626179 0.231392 0.604198 0.626239
C24   C     C_R   0.580290 0.791569 0.211749 -0.101796
C25   C     C_R   0.576820 0.774234 0.284587 0.309298
C26   C     C_R   0.643678 0.638332 0.313339 0.003922
C27   C     C_R   0.518204 0.262707 0.278044 -0.141473
C28   C     C_R   0.530384 0.239236 0.205571 0.182805
C29   C     C_R   0.662530 0.144693 0.178186 0.045283
C30   C     C_R   0.780950 0.073614 0.223003 0.380712
C31   C     C_R   0.767937 0.093060 0.295274 0.264455
C32   C     C_R   0.635691 0.189603 0.322487 -0.017100
C33   C     C_R   0.260992 0.704261 0.280651 -0.071149
C34   C     C_R   0.226202 0.647627 0.400085 0.542254
C35   C     C_R   0.239894 0.707108 0.208890 0.358758
C36   C     C_R   0.146382 0.666182 0.182812 0.075742
C37   C     C_R   0.082573 0.611605 0.228480 0.314841
C38   C     C_R   0.106661 0.606289 0.300650 -0.107085
C39   C     C_R   0.191166 0.658073 0.326624 -0.059482
C40   C     C_R   0.701031 0.105327 0.897033 0.600367
C41   C     C_R   0.723141 0.688029 0.888258 0.583923
C42   C     C_R   0.117296 0.707128 0.905157 0.567365
C43   C     C_R   0.677435 0.102668 0.105042 0.620849
C44   C     C_R   0.693911 0.690031 0.096847 0.603443
C45   C     C_R   0.638040 0.616893 0.389551 0.599981
C46   C     C_R   0.092759 0.708406 0.112486 0.640688
C47   C     C_R   0.615450 0.230957 0.395089 0.541143
C48   C     C_3   0.573744 0.816662 0.781395 0.378778
C49   C     C_3   0.550069 0.794520 0.702092 0.072093
C50   C     C_3   0.836924 0.632897 0.770727 0.279616
Cr1   Cr    Cr6+3 0.392930 0.397900 0.502230 1.157160
Cr2   Cr    Cr6+3 0.398240 0.708600 0.501260 1.144443
Cr3   Cr    Cr6+3 0.708800 0.393470 0.496460 1.168777
Cr4   Cr    Cr6+3 0.937620 0.938540 0.007640 1.195113
Cr5   Cr    Cr6+3 0.625150 0.937450 0.994520 1.164711
Cr6   Cr    Cr6+3 0.937990 0.625080 0.001190 1.221885
H1    H     H_    0.758986 0.427189 0.708489 0.274224
H2    H     H_    0.169775 0.874220 0.823392 0.236828
H3    H     H_    0.538184 0.897271 0.191027 0.187453
H4    H     H_    0.417084 0.340427 0.299746 0.141613
H5    H     H_    0.332745 0.737662 0.300355 0.177528
H6    H     H_    0.447581 0.796790 0.697342 0.166383
H7    H     H_    0.057021 0.565812 0.336170 0.173457
H8    H     H_    0.876752 0.705774 0.784824 0.084506
O1    O     O_R   0.507430 0.255570 0.581420 -0.420474
O2    O     O_R   0.524460 0.695920 0.424060 -0.468983
O3    O     O_R   0.736530 0.504260 0.414810 -0.455558
O4    O     O_R   0.691460 0.277160 0.422180 -0.473157
O5    O     O_3   0.499990 0.499990 0.499980 -0.331648
O6    O     O_R   0.089490 0.825610 0.930610 -0.498591
O7    O     O_R   0.818370 0.054540 0.929880 -0.453993
O8    O     O_R   0.605870 0.077310 0.915530 -0.408222
O9    O     O_R   0.646440 0.806700 0.917570 -0.451574
O10   O     O_R   0.837200 0.593290 0.915250 -0.404217
O11   O     O_R   0.065330 0.635370 0.931590 -0.444222
O12   O     O_R   0.280190 0.527390 0.578910 -0.429218
O13   O     O_R   0.068300 0.828790 0.091860 -0.398117
O14   O     O_R   0.798730 0.057480 0.079370 -0.447030
O15   O     O_R   0.584680 0.080480 0.076790 -0.470432
O16   O     O_R   0.626790 0.809640 0.067050 -0.526130
O17   O     O_R   0.816010 0.596460 0.076500 -0.398840
O18   O     O_R   0.045680 0.638310 0.081070 -0.468144
O19   O     O_3   0.833590 0.833690 0.001120 -0.362160
O20   O     O_R   0.260310 0.739740 0.584580 -0.448531
O21   O     O_R   0.532250 0.695150 0.573830 -0.479189
O22   O     O_R   0.744930 0.503430 0.576380 -0.440491
O23   O     O_R   0.699250 0.276390 0.571950 -0.446740
O24   O     O_R   0.499020 0.256400 0.419850 -0.501765
O25   O     O_R   0.272400 0.528160 0.429140 -0.518415
O26   O     O_R   0.251910 0.740570 0.423020 -0.483287
O27   O     O_3   0.605890 0.926168 0.789454 -0.636181
H9    H     H_    0.685022 0.909211 0.757733 0.321220
F1    F     F_    0.940425 0.498990 0.790338 -0.438698
F2    F     F_    0.922867 0.508294 0.661541 -0.487568
F3    F     F_    0.896627 0.137096 0.669907 -0.524921
F4    F     F_    0.928516 0.098413 0.813187 -0.546426
F5    F     F_    0.434779 0.253569 0.834336 -0.474352
F6    F     F_    0.417215 0.238332 0.696345 -0.483832
F7    F     F_    0.182611 0.452325 0.686312 -0.422348
F8    F     F_    0.178731 0.454024 0.830005 -0.425514
O28   O     O_3   0.448195 0.856046 0.819303 -0.627386
H10   H     H_    0.376847 0.951299 0.802761 0.383304
O29   O     O_3   0.168442 0.901130 0.686112 -0.576768
H11   H     H_    0.166179 0.970825 0.720579 0.388470
O30   O     O_3   0.767382 0.384961 0.296327 -0.649941
H12   H     H_    0.818482 0.314045 0.258836 0.389898
F9    F     F_    0.761954 0.424503 0.150442 -0.592916
F10   F     F_    0.514655 0.889834 0.327102 -0.594704
O31   O     O_3   0.416431 0.307462 0.160854 -0.637731
H13   H     H_    0.330451 0.364105 0.189673 0.334323
F11   F     F_    0.909617 0.978954 0.197555 -0.575149
O32   O     O_3   0.885934 0.016020 0.336558 -0.610842
H14   H     H_    0.857694 0.020988 0.386829 0.329576
F12   F     F_    0.305191 0.756002 0.165264 -0.603261
F13   F     F_    0.990646 0.571939 0.204198 -0.605173
O33   O     O_3   0.543587 0.902561 0.658844 -0.639648
H15   H     H_    0.449855 0.986806 0.667141 0.399257
O34   O     O_3   0.825640 0.746110 0.659224 -0.693952
H16   H     H_    0.834944 0.729872 0.607241 0.367453
F14   F     F_    0.761919 0.429074 0.832959 -0.532937
O35   O     O_3   0.528924 0.589028 0.831639 -0.650249
H17   H     H_    0.541034 0.581273 0.883838 0.364976
O36   O     O_3   0.549623 0.506545 0.699820 -0.731019
H18   H     H_    0.460352 0.594007 0.709341 0.338987

loop_
_geom_bond_atom_site_label_1
_geom_bond_atom_site_label_2
_ccdc_geom_bond_type
O28   H10   S    
C40   O7    A    
C50   H8    S    
Cr2   O26   S    
C35   C36   A    
C8    F4    S    
C15   F8    S    
Cr3   O5    S    
C5    F2    S    
O36   H18   S    
C1    O20   A    
C28   C29   A    
C42   O11   A    
C33   C39   A    
C12   O21   A    
C11   F6    S    
C36   C37   A    
C37   C38   A    
C20   O30   S    
C27   H4    S    
C38   C39   A    
C43   O15   A    
C15   C16   A    
C3    C48   S    
C42   O6    A    
O33   H15   S    
C13   C23   S    
C35   F12   S    
C18   C19   A    
Cr1   O1    S    
Cr2   O20   S    
Cr3   O4    S    
O34   H16   S    
O32   H14   S    
Cr2   O5    S    
O29   H11   S    
C26   C45   S    
C41   O10   A    
C46   O18   A    
C22   C44   S    
Cr4   O7    S    
C8    C9    A    
C48   O27   S    
C45   O3    A    
C31   O32   S    
C36   C46   S    
Cr3   O22   S    
C4    C12   S    
C9    C10   A    
Cr5   O8    S    
C17   H2    S    
Cr4   O13   S    
Cr6   O11   S    
C23   O23   A    
C21   C22   A    
C29   C43   S    
C6    H1    S    
C2    C6    S    
C6    O36   S    
Cr4   O19   S    
C3    C50   S    
C1    C19   S    
Cr6   O10   S    
C34   C39   S    
C44   O16   A    
C24   C25   A    
C4    C6    S    
C44   O17   A    
O27   H9    S    
C2    F14   S    
C16   C17   A    
C25   C26   A    
C9    C40   S    
C43   O14   A    
C10   F5    S    
C34   O26   A    
C29   C30   A    
Cr5   O15   S    
C31   C32   A    
Cr4   O6    S    
C17   C18   A    
Cr3   O23   S    
Cr1   O12   S    
O35   H17   S    
C21   F9    S    
C48   C49   S    
Cr2   O21   S    
C32   C47   S    
C22   C24   A    
C5    C50   S    
Cr5   O19   S    
C16   C42   S    
C47   O4    A    
C45   O2    A    
Cr2   O2    S    
Cr6   O19   S    
C38   H7    S    
C2    O35   S    
C3    C41   S    
C49   H6    S    
C40   O8    A    
C27   C32   A    
C1    O12   A    
C14   C19   A    
C4    C5    S    
Cr1   O24   S    
C46   O13   A    
C50   F1    S    
Cr6   O18   S    
C37   F13   S    
C28   O31   S    
C7    F3    S    
O30   H12   S    
C5    O34   S    
C12   O22   A    
C30   F11   S    
C47   O24   A    
C23   O1    A    
C2    C3    S    
C34   O25   A    
O31   H13   S    
Cr1   O25   S    
Cr5   O16   S    
C11   C13   A    
C14   F7    S    
C30   C31   A    
C20   C26   A    
C24   H3    S    
C48   O28   S    
C33   C35   A    
Cr6   O17   S    
C18   O29   S    
Cr3   O3    S    
C7    C8    A    
C10   C11   A    
C41   O9    A    
Cr5   O9    S    
C7    C13   A    
C49   O33   S    
C20   C21   A    
C33   H5    S    
C27   C28   A    
C14   C15   A    
C4    C49   S    
Cr1   O5    S    
C25   F10   S    
Cr4   O14   S    
