data_mof_unit_68317.cif
_audit_creation_date              2012-12-11T17:44:40-0500
_audit_creation_method            fapswitch 2.2
_symmetry_space_group_name_H-M    P1
_symmetry_Int_Tables_number       1
_space_group_crystal_system       triclinic
_cell_length_a                    8.215581
_cell_length_b                    12.600408
_cell_length_c                    14.909105
_cell_angle_alpha                 96.318977
_cell_angle_beta                  97.626093
_cell_angle_gamma                 98.616292
_cell_volume                      1499.11391346

loop_
_atom_site_label
_atom_site_type_symbol
_atom_type_description
_atom_site_fract_x
_atom_site_fract_y
_atom_site_fract_z
_atom_type_partial_charge
Ba1   Ba    Ba6+2 0.843760 0.550230 0.455610 1.670180
Ba2   Ba    Ba6+2 0.346080 0.449860 0.544400 1.677998
C1    C     C_3   0.629277 0.899708 0.109972 0.481555
C2    C     C_R   0.109220 0.467725 0.205452 0.027568
C3    C     C_R   0.921039 0.477630 0.766331 -0.261371
C4    C     C_3   0.150517 0.830690 0.210840 0.941226
C5    C     C_R   0.820160 0.442668 0.828525 0.071670
C6    C     C_R   0.882318 0.454532 0.921370 -0.162428
C7    C     C_R   0.049045 0.503569 0.954549 0.001969
C8    C     C_R   0.147311 0.547816 0.890752 -0.039466
C9    C     C_R   0.121068 0.509777 0.048722 0.023160
C10   C     C_R   0.289065 0.562885 0.077535 -0.050527
C11   C     C_R   0.379799 0.607196 0.013534 -0.090036
C12   C     C_3   0.590181 0.826235 0.182381 0.334923
C13   C     C_R   0.309103 0.603081 0.923240 -0.007885
C14   C     C_R   0.034700 0.460582 0.114368 -0.131588
C15   C     C_R   0.269846 0.525166 0.232705 -0.237256
C16   C     C_3   0.064432 0.790569 0.113585 -0.225241
C17   C     C_R   0.081450 0.533928 0.795796 0.026096
C18   C     C_R   0.780506 0.177456 0.513417 -0.172263
C19   C     C_R   0.415482 0.808913 0.464499 -0.295519
C20   C     C_R   0.384434 0.987212 0.427933 -0.054367
C21   C     C_R   0.318186 0.879130 0.425930 -0.008488
C22   C     C_R   0.576604 0.847568 0.511453 0.060231
C23   C     C_3   0.475083 0.291996 0.252599 0.339648
C24   C     C_R   0.644358 0.959115 0.515762 -0.068132
C25   C     C_R   0.547655 0.028744 0.471525 -0.073531
C26   C     C_R   0.616854 0.138455 0.472421 0.041038
C27   C     C_R   0.875345 0.110538 0.557091 0.084341
C28   C     C_3   0.270895 0.782424 0.653101 0.281047
C29   C     C_R   0.806143 0.003351 0.561425 -0.063805
C30   C     C_3   0.267187 0.902953 0.668690 -0.336775
C31   C     C_3   0.051778 0.203199 0.274737 0.241336
C32   C     C_3   0.054055 0.168053 0.174017 -0.394913
C33   C     C_3   0.776605 0.699996 0.732049 0.283863
C34   C     C_3   0.536492 0.259465 0.163222 -0.336236
C35   C     C_3   0.811263 0.734988 0.834771 -0.362453
C36   C     C_3   0.633079 0.893558 0.276545 -0.412551
C37   C     C_3   0.198149 0.265041 0.959802 -0.498122
C38   C     C_3   0.143531 0.213818 0.789479 0.294443
C39   C     C_3   0.185663 0.174622 0.881643 -0.216924
C40   C     C_3   0.604195 0.169272 0.755315 0.816928
C41   C     C_3   0.645104 0.073875 0.803290 -0.311740
C42   C     C_R   0.362508 0.570539 0.170096 -0.030083
F1    F     F_    0.592189 0.841549 0.023606 -0.737160
F2    F     F_    0.739960 0.205933 0.714425 -0.794370
F3    F     F_    0.258938 0.925747 0.210575 -0.779284
H1    H     H_    0.338779 0.938712 0.736100 0.121138
H2    H     H_    0.677482 0.627421 0.717268 0.054465
H3    H     H_    0.763124 0.936269 0.122351 0.015185
H4    H     H_    0.912120 0.806576 0.851387 0.133878
H5    H     H_    0.850381 0.668816 0.871032 0.053557
H6    H     H_    0.696895 0.756357 0.859247 0.176042
H7    H     H_    0.455212 0.793918 0.167357 0.015569
H8    H     H_    0.554084 0.966033 0.112483 0.031378
H9    H     H_    0.355832 0.320567 0.235062 -0.098591
H10   H     H_    0.561161 0.361398 0.292334 0.096540
H11   H     H_    0.451293 0.187860 0.124084 0.111787
H12   H     H_    0.321985 0.943781 0.615004 0.071299
H13   H     H_    0.541643 0.327390 0.121586 0.087341
H14   H     H_    0.661897 0.237296 0.176441 0.138313
H15   H     H_    0.158516 0.775240 0.068850 0.060846
H16   H     H_    0.245750 0.278231 0.780919 0.095700
H17   H     H_    0.025728 0.247108 0.787673 0.083234
H18   H     H_    0.087711 0.106669 0.889642 0.129350
H19   H     H_    0.306154 0.144249 0.884739 0.145405
H20   H     H_    0.493744 0.141555 0.701783 0.024409
H21   H     H_    0.763838 0.098404 0.851220 0.116528
H22   H     H_    0.658681 0.005866 0.752216 0.089478
H23   H     H_    0.136686 0.916272 0.667517 0.142292
H24   H     H_    0.221087 0.767020 0.233451 -0.204617
H25   H     H_    0.545191 0.046416 0.842924 0.077539
H26   H     H_    0.326531 0.529929 0.303117 0.061252
H27   H     H_    0.508108 0.645218 0.032149 0.154604
H28   H     H_    0.910912 0.414483 0.096902 0.077274
H29   H     H_    0.870483 0.466296 0.694484 0.079529
H30   H     H_    0.797263 0.424794 0.965516 0.080089
H31   H     H_    0.385995 0.642338 0.879236 0.128205
H32   H     H_    0.306089 0.037272 0.394638 0.115114
H33   H     H_    0.880911 0.956096 0.600211 0.095591
H34   H     H_    0.024767 0.129254 0.308093 0.059275
H35   H     H_    0.834500 0.260972 0.511972 0.068208
H36   H     H_    0.362501 0.724465 0.461729 0.068659
H37   H     H_    0.976830 0.713917 0.111941 0.090111
H38   H     H_    0.994860 0.852154 0.086654 0.117368
H39   H     H_    0.397759 0.769693 0.644159 0.012645
H40   H     H_    0.181399 0.747672 0.590551 0.059202
H41   H     H_    0.559195 0.960172 0.280588 0.126116
H42   H     H_    0.605939 0.841381 0.329315 0.123874
H43   H     H_    0.766752 0.930204 0.290754 0.143100
H44   H     H_    0.243625 0.236706 0.024555 0.137736
H45   H     H_    0.172672 0.246915 0.309996 0.071296
H46   H     H_    0.073112 0.286476 0.964051 0.135825
H47   H     H_    0.286642 0.337278 0.950399 0.166490
H48   H     H_    0.932136 0.119213 0.142253 0.109718
H49   H     H_    0.153407 0.118509 0.166199 0.166794
H50   H     H_    0.077400 0.240162 0.138470 0.070267
H51   H     H_    0.891887 0.680577 0.708421 0.017365
O1    O     O_2   0.827930 0.435360 0.277760 -0.448347
O2    O     O_2   0.215077 0.118507 0.561900 -0.499571
O3    O     O_3   0.127396 0.125483 0.721336 -0.627209
O4    O     O_3   0.100310 0.439010 0.391180 -0.477909
O5    O     O_3   0.587770 0.631830 0.546230 -0.490855
O6    O     O_2   0.332600 0.233710 0.456170 -0.470269
O7    O     O_3   0.450872 0.200633 0.298849 -0.642918
O8    O     O_2   0.479473 0.440439 0.826402 -0.521787
O9    O     O_3   0.567230 0.248928 0.820242 -0.643315
O10   O     O_3   0.625610 0.634200 0.333270 -0.471477
O11   O     O_2   0.683729 0.539292 0.176327 -0.483261
O12   O     O_3   0.726254 0.785913 0.690043 -0.639290
O13   O     O_3   0.925225 0.264100 0.284946 -0.632348
O14   O     O_3   0.686595 0.742914 0.178006 -0.567028
O15   O     O_2   0.857120 0.766320 0.543890 -0.472638
O16   O     O_3   0.056570 0.691100 0.379020 -0.472464
O17   O     O_2   0.981501 0.880938 0.435746 -0.496957
O18   O     O_3   0.030756 0.852085 0.266332 -0.598087
O19   O     O_2   0.361790 0.564680 0.722290 -0.478529
O20   O     O_3   0.089410 0.561080 0.608830 -0.496957
O21   O     O_3   0.564100 0.365890 0.666740 -0.437334
O22   O     O_3   0.229903 0.737853 0.730494 -0.630279
O23   O     O_3   0.601940 0.368260 0.453780 -0.481979
O24   O     O_3   0.133140 0.308990 0.620990 -0.482002
P1    P     P_3+3 0.998770 0.403620 0.291990 0.981614
P2    P     P_3+3 0.687370 0.751000 0.571300 0.973182
P3    P     P_3+3 0.098987 0.829578 0.377872 0.990745
P4    P     P_3+3 0.190950 0.596470 0.708020 0.971132
P5    P     P_3+3 0.087427 0.167365 0.613732 0.986555
P6    P     P_3+3 0.585497 0.624964 0.213658 0.957778
P7    P     P_3+3 0.502800 0.234533 0.417972 0.950187
P8    P     P_3+3 0.605996 0.377570 0.785624 1.001137

loop_
_geom_bond_atom_site_label_1
_geom_bond_atom_site_label_2
_ccdc_geom_bond_type
C41   H25   S    
C18   H35   S    
C14   H28   S    
C23   H9    S    
Ba1   O1    S    
Ba1   O10   S    
Ba2   O20   S    
C23   O7    S    
C29   H33   S    
C37   C39   S    
C12   O14   S    
C36   H42   S    
C24   C25   A    
C38   H16   S    
Ba1   O15   S    
C33   C35   S    
C22   C24   A    
C20   H32   S    
C26   P7    S    
C34   H11   S    
C8    C13   A    
C35   H4    S    
O22   P4    S    
C13   H31   S    
Ba2   O4    S    
O2    P5    D    
C22   P2    S    
O21   P8    S    
Ba1   Ba2   S    
C40   F2    S    
O24   P5    S    
C37   H46   S    
C5    P8    S    
O12   P2    S    
C38   O3    S    
O16   P3    S    
C1    H8    S    
C32   H50   S    
C27   P5    S    
C19   H36   S    
C6    C7    A    
C33   H2    S    
C16   H37   S    
C31   O13   S    
C28   H39   S    
C33   H51   S    
O19   P4    D    
Ba1   O5    S    
C21   P3    S    
C35   H6    S    
C24   C29   A    
C41   H22   S    
C15   H26   S    
C30   H1    S    
C23   H10   S    
O9    P8    S    
O5    P2    S    
C37   H44   S    
C1    H3    S    
C18   C27   A    
Ba2   O24   S    
C4    H24   S    
C4    C16   S    
C16   H38   S    
C4    F3    S    
O13   P1    S    
C5    C6    A    
C32   H48   S    
C31   H45   S    
O23   P7    S    
C3    C5    A    
C35   H5    S    
C41   H21   S    
O7    P7    S    
C18   C26   A    
C1    F1    S    
C2    P1    S    
C36   H41   S    
C2    C14   A    
Ba1   P1    S    
C37   H47   S    
C12   C36   S    
C9    C14   A    
O11   P6    D    
Ba2   O6    S    
C8    C17   A    
C9    C10   A    
C31   C32   S    
O10   P6    S    
C7    C9    A    
C4    O18   S    
C33   O12   S    
C2    C15   A    
Ba2   P4    S    
C38   C39   S    
C12   H7    S    
O18   P3    S    
C19   C21   A    
C40   H20   S    
C40   O9    S    
Ba1   O16   S    
C34   H14   S    
O1    P1    D    
C7    C8    A    
Ba2   O23   S    
O8    P8    D    
C42   P6    S    
C16   H15   S    
C32   H49   S    
C34   H13   S    
O17   P3    D    
C30   H23   S    
Ba2   O21   S    
C39   H19   S    
C3    C17   A    
C1    C12   S    
Ba2   O19   S    
C36   H43   S    
C17   P4    S    
C38   H17   S    
C20   C25   A    
C3    H29   S    
C11   C13   A    
Ba1   P2    S    
C10   C42   A    
C28   C30   S    
C6    H30   S    
O15   P2    D    
C28   O22   S    
Ba2   O5    S    
O3    P5    S    
Ba1   O20   S    
C39   H18   S    
O6    P7    D    
Ba1   O23   S    
O14   P6    S    
C23   C34   S    
C10   C11   A    
C27   C29   A    
C40   C41   S    
C19   C22   A    
C25   C26   A    
C20   C21   A    
O20   P4    S    
C30   H12   S    
C28   H40   S    
C31   H34   S    
Ba1   O4    S    
C15   C42   A    
O4    P1    S    
C11   H27   S    
