data_mof_unit_38306.cif
_audit_creation_date              2012-12-10T20:42:42-0500
_audit_creation_method            fapswitch 2.2
_symmetry_space_group_name_H-M    P1
_symmetry_Int_Tables_number       1
_space_group_crystal_system       triclinic
_cell_length_a                    8.911645
_cell_length_b                    10.679828
_cell_length_c                    9.873172
_cell_angle_alpha                 89.801113
_cell_angle_beta                  90.007668
_cell_angle_gamma                 90.109318
_cell_volume                      939.670144649

loop_
_atom_site_label
_atom_site_type_symbol
_atom_type_description
_atom_site_fract_x
_atom_site_fract_y
_atom_site_fract_z
_atom_type_partial_charge
C1    C     C_R   0.505663 0.259918 0.500202 0.870685
C2    C     C_R   0.420942 0.411549 0.929115 0.239069
C3    C     C_3   0.255860 0.389723 0.923467 -0.514516
C4    C     C_R   0.218723 0.499872 0.499981 0.938272
C5    C     C_3   0.256110 0.389273 0.077307 -0.506849
C6    C     C_R   0.504803 0.740078 0.499706 0.873882
C7    C     C_R   0.781295 0.500024 0.500025 0.931608
C8    C     C_1   0.065409 0.499848 0.499997 -0.211370
C9    C     C_1   0.934621 0.499909 0.500026 -0.197650
C10   C     C_R   0.547175 0.063295 0.621752 0.101157
C11   C     C_R   0.532435 0.128705 0.500002 -0.122215
C12   C     C_R   0.547869 0.935874 0.376061 -0.225128
C13   C     C_R   0.548656 0.065285 0.376522 -0.208249
C14   C     C_1   0.548777 0.119534 0.862807 0.222220
C15   C     C_R   0.530388 0.871372 0.499012 -0.094949
C16   C     C_R   0.544558 0.935376 0.620859 0.102318
C17   C     C_3   0.454321 0.927309 0.748262 -0.512720
C18   C     C_3   0.458492 0.069711 0.750373 -0.206230
C19   C     C_R   0.421241 0.411263 0.071494 0.236269
C20   C     C_R   0.588207 0.580495 0.071658 -0.126760
C21   C     C_R   0.588273 0.580462 0.927709 -0.126811
H1    H     H_    0.550162 0.114387 0.280315 0.184414
H2    H     H_    0.657228 0.647150 0.873205 0.146530
H3    H     H_    0.193776 0.470241 0.879139 0.225288
H4    H     H_    0.227721 0.297065 0.879227 0.198534
H5    H     H_    0.193974 0.469446 0.121693 0.224814
H6    H     H_    0.228280 0.296306 0.121716 0.205886
H7    H     H_    0.549303 0.887681 0.279688 0.172039
H8    H     H_    0.339850 0.888972 0.730726 0.198319
H9    H     H_    0.517595 0.880715 0.831495 0.201989
H10   H     H_    0.346937 0.114902 0.738593 0.147365
H11   H     H_    0.657070 0.647244 0.125686 0.145660
N1    N     N_R   0.499010 0.499140 0.142800 -0.109479
N2    N     N_R   0.499010 0.499180 0.857150 -0.108504
N3    N     N_1   0.620154 0.158178 0.951283 -0.235107
O1    O     O_R   0.500020 0.316790 0.614690 -0.618891
O2    O     O_R   0.500000 0.316760 0.385350 -0.620088
O3    O     O_R   0.285350 0.500020 0.614650 -0.619856
O4    O     O_R   0.285340 0.499980 0.385310 -0.616163
O5    O     O_R   0.500000 0.683240 0.614650 -0.620223
O6    O     O_R   0.499980 0.683210 0.385310 -0.628550
O7    O     O_R   0.714660 0.500020 0.614690 -0.614764
O8    O     O_R   0.714650 0.499980 0.385350 -0.615337
Zn1   Zn    Zn3+2 0.500010 0.500020 0.653130 0.947399
Zn2   Zn    Zn3+2 0.499990 0.499980 0.346870 0.946691

loop_
_geom_bond_atom_site_label_1
_geom_bond_atom_site_label_2
_ccdc_geom_bond_type
C4    O4    A    
O3    Zn1   S    
N1    Zn2   S    
C5    C19   S    
C7    O8    A    
C11   C13   A    
C14   C18   S    
C1    C11   S    
C12   C15   A    
C4    C8    S    
O4    Zn2   S    
C2    N2    A    
C2    C3    S    
C2    C19   A    
N2    Zn1   S    
C10   C16   A    
C20   C21   A    
C17   H9    S    
O8    Zn2   S    
C3    H3    S    
C16   C17   S    
O7    Zn1   S    
C12   H7    S    
C20   N1    A    
C18   H10   S    
C4    O3    A    
C13   H1    S    
C17   C18   S    
C21   H2    S    
C19   N1    A    
C10   C18   S    
C6    O5    A    
O1    Zn1   S    
C10   C11   A    
O2    Zn2   S    
C5    H5    S    
O5    Zn1   S    
C3    H4    S    
C17   H8    S    
C12   C13   A    
C20   H11   S    
C7    O7    A    
C14   N3    T    
C7    C9    S    
O6    Zn2   S    
C8    C9    T    
C21   N2    A    
C6    C15   S    
C5    H6    S    
C15   C16   A    
C1    O1    A    
C1    O2    A    
C3    C5    S    
C6    O6    A    
