data_mof_unit_62110.cif
_audit_creation_date              2013-03-05T15:50:51-0500
_audit_creation_method            fapswitch 2.2
_symmetry_space_group_name_H-M    P1
_symmetry_Int_Tables_number       1
_space_group_crystal_system       triclinic
_cell_length_a                    44.088529
_cell_length_b                    30.206297
_cell_length_c                    31.997981
_cell_angle_alpha                 90.000147
_cell_angle_beta                  136.558387
_cell_angle_gamma                 89.999638
_cell_volume                      29301.5796443

loop_
_atom_site_label
_atom_site_type_symbol
_atom_site_description
_atom_site_fract_x
_atom_site_fract_y
_atom_site_fract_z
_atom_type_partial_charge
O1    O     O_R   0.564870 0.962420 0.064890 -0.566414
O2    O     O_R   0.435130 0.962420 0.935110 -0.566500
O3    O     O_R   0.064870 0.462420 0.064890 -0.566426
O4    O     O_R   0.935130 0.462420 0.935110 -0.566439
O5    O     O_R   0.564810 0.037500 0.064830 -0.580876
O6    O     O_R   0.435190 0.037500 0.935170 -0.580859
O7    O     O_R   0.064810 0.537500 0.064830 -0.580922
O8    O     O_R   0.935190 0.537500 0.935170 -0.580930
C1    C     C_R   0.585450 0.000018 0.084464 0.789625
C2    C     C_R   0.414552 0.000018 0.915537 0.789597
C3    C     C_R   0.085447 0.500017 0.084463 0.789843
C4    C     C_R   0.914553 0.500018 0.915537 0.789834
O9    O     O_R   0.500000 0.962430 0.060460 -0.554038
O10   O     O_R   0.500000 0.962430 0.939540 -0.554071
O11   O     O_R   0.000000 0.462430 0.060460 -0.553982
O12   O     O_R   1.000000 0.462430 0.939540 -0.554006
O13   O     O_R   0.499940 0.037510 0.060410 -0.574190
O14   O     O_R   0.500060 0.037510 0.939590 -0.573992
O15   O     O_R   0.999940 0.537510 0.060410 -0.574478
O16   O     O_R   0.000060 0.537510 0.939590 -0.574416
C5    C     C_R   0.499925 0.999969 0.080038 0.802115
C6    C     C_R   0.500074 0.999969 0.919961 0.802041
C7    C     C_R   0.999927 0.499969 0.080039 0.802385
C8    C     C_R   0.000074 0.499969 0.919961 0.802340
Cu1   Cu    Cu3+1 0.500000 0.955510 0.000000 1.093547
Cu2   Cu    Cu3+1 0.000000 0.455510 0.000000 1.093447
Cu3   Cu    Cu3+1 0.500000 0.044420 0.000000 1.036413
Cu4   Cu    Cu3+1 0.000000 0.544420 0.000000 1.035697
C9    C     C_3   0.538413 0.983939 0.302691 -0.170602
C10   C     C_3   0.461851 0.983306 0.697573 -0.170438
C11   C     C_3   0.038788 0.484878 0.303068 -0.170539
C12   C     C_3   0.961295 0.484662 0.697016 -0.170511
C13   C     C_3   0.532354 0.025562 0.268423 -0.252329
C14   C     C_3   0.467231 0.025022 0.731163 -0.252107
C15   C     C_3   0.031736 0.526343 0.267808 -0.252379
C16   C     C_3   0.968120 0.526165 0.732050 -0.252335
H1    H     H_    0.559494 0.046838 0.283789 0.187837
H2    H     H_    0.439749 0.045850 0.715454 0.187935
H3    H     H_    0.058360 0.548268 0.282662 0.187844
H4    H     H_    0.941377 0.547943 0.717078 0.187861
H5    H     H_    0.570217 0.970450 0.346061 0.179232
H6    H     H_    0.430271 0.969297 0.654426 0.179275
H7    H     H_    0.070904 0.472160 0.346754 0.179343
H8    H     H_    0.929249 0.471767 0.653400 0.179340
H9    H     H_    0.488278 0.075747 0.264158 0.177292
H10   H     H_    0.510484 0.075924 0.734605 0.177305
H11   H     H_    0.986467 0.575449 0.262346 0.177294
H12   H     H_    0.013119 0.575519 0.737240 0.177296
C17   C     C_1   0.499756 0.999955 0.124705 -0.076620
C18   C     C_1   0.500244 0.999955 0.875294 -0.076569
C19   C     C_1   0.999762 0.499955 0.124710 -0.076495
C20   C     C_1   0.000239 0.499954 0.875291 -0.076506
C21   C     C_1   0.499909 0.999944 0.374979 -0.142536
C22   C     C_1   0.500090 0.999944 0.625020 -0.142525
C23   C     C_1   0.999908 0.499943 0.374978 -0.142483
C24   C     C_1   0.000091 0.499943 0.625022 -0.142484
C25   C     C_3   0.504949 0.959074 0.241667 0.327253
C26   C     C_3   0.495716 0.958993 0.758997 0.327302
C27   C     C_3   0.005932 0.459213 0.242649 0.327165
C28   C     C_3   0.994292 0.459178 0.757575 0.327186
C29   C     C_3   0.499282 0.999656 0.207769 -0.028050
C30   C     C_3   0.500722 0.999661 0.792234 -0.028094
C31   C     C_3   0.999297 0.499647 0.207784 -0.028058
C32   C     C_3   0.000706 0.499648 0.792219 -0.028066
C33   C     C_3   0.466100 0.973608 0.230732 -0.253576
C34   C     C_3   0.534322 0.974162 0.769690 -0.253591
C35   C     C_3   0.966743 0.472805 0.231370 -0.253586
C36   C     C_3   0.033405 0.472986 0.768777 -0.253599
C37   C     C_3   0.499464 0.999740 0.291045 0.063059
C38   C     C_3   0.500537 0.999744 0.708956 0.062999
C39   C     C_3   0.999469 0.499733 0.291049 0.063007
C40   C     C_3   0.000532 0.499734 0.708951 0.063004
C41   C     C_3   0.461440 0.014980 0.198168 0.332004
C42   C     C_3   0.538308 0.015604 0.801579 0.331856
C43   C     C_3   0.961096 0.514053 0.197820 0.332159
C44   C     C_3   0.038827 0.514265 0.802102 0.332120
C45   C     C_3   0.493602 0.041522 0.257897 -0.173668
C46   C     C_3   0.505718 0.041615 0.741423 -0.173747
C47   C     C_3   0.992610 0.541362 0.256904 -0.173687
C48   C     C_3   0.007163 0.541400 0.742869 -0.173695
C49   C     C_1   0.499562 0.999864 0.162182 0.114171
C50   C     C_1   0.500439 0.999866 0.837819 0.114260
C51   C     C_1   0.999572 0.499862 0.162192 0.114266
C52   C     C_1   0.000430 0.499861 0.837810 0.114267
C53   C     C_1   0.499754 0.999886 0.337146 0.030805
C54   C     C_1   0.500245 0.999888 0.662853 0.030836
C55   C     C_1   0.999754 0.499884 0.337146 0.030855
C56   C     C_1   0.000245 0.499884 0.662853 0.030857
H13   H     H_    0.438860 0.952249 0.214924 0.191509
H14   H     H_    0.561907 0.953253 0.785841 0.191534
H15   H     H_    0.940021 0.450794 0.216077 0.191517
H16   H     H_    0.060247 0.451123 0.784188 0.191513
C57   C     C_R   0.843320 0.032664 0.320767 -0.068118
C58   C     C_R   0.156683 0.032617 0.679338 -0.068066
C59   C     C_R   0.343313 0.532581 0.320602 -0.068031
C60   C     C_R   0.656687 0.532580 0.679399 -0.068028
C61   C     C_R   0.865956 0.999979 0.365964 -0.118031
C62   C     C_R   0.134050 0.000009 0.634035 -0.118051
C63   C     C_R   0.365946 0.500016 0.365962 -0.118058
C64   C     C_R   0.634054 0.500016 0.634038 -0.118051
C65   C     C_R   0.842885 0.967193 0.365273 -0.068928
C66   C     C_R   0.157135 0.967336 0.634606 -0.068895
C67   C     C_R   0.342859 0.467388 0.365446 -0.068967
C68   C     C_R   0.657141 0.467389 0.634553 -0.068960
C69   C     C_R   0.795989 0.968753 0.320929 -0.017328
C70   C     C_R   0.204022 0.968956 0.678909 -0.017382
C71   C     C_R   0.295974 0.469023 0.321150 -0.017383
C72   C     C_R   0.704026 0.469024 0.678848 -0.017386
C73   C     C_R   0.773142 0.000792 0.273398 0.050792
C74   C     C_R   0.226866 0.000858 0.726589 0.050803
C75   C     C_R   0.273129 0.500871 0.273408 0.050830
C76   C     C_R   0.726871 0.500871 0.726592 0.050834
C77   C     C_R   0.796955 0.032491 0.273625 0.068539
C78   C     C_R   0.203050 0.032433 0.726500 0.068527
C79   C     C_R   0.296945 0.532395 0.273437 0.068481
C80   C     C_R   0.703055 0.532393 0.726565 0.068481
C81   C     C_R   0.770920 0.939724 0.321838 -0.163143
C82   C     C_R   0.229083 0.940117 0.677802 -0.163080
C83   C     C_R   0.270915 0.440250 0.322324 -0.163187
C84   C     C_R   0.729085 0.440253 0.677674 -0.163178
C85   C     C_R   0.724695 0.940101 0.273989 0.290149
C86   C     C_R   0.275304 0.940478 0.725651 0.290442
C87   C     C_R   0.224694 0.440605 0.274475 0.290250
C88   C     C_R   0.775306 0.440609 0.725522 0.290284
C89   C     C_R   0.702514 0.970316 0.225795 -0.008313
C90   C     C_R   0.297489 0.970502 0.774039 -0.008300
C91   C     C_R   0.202508 0.470564 0.226020 -0.008287
C92   C     C_R   0.797493 0.470566 0.773978 -0.008280
C93   C     C_R   0.726360 0.001236 0.225308 0.022958
C94   C     C_R   0.273648 0.001291 0.774684 0.022950
C95   C     C_R   0.226347 0.501300 0.225313 0.022953
C96   C     C_R   0.773653 0.501300 0.774687 0.022955
C97   C     C_R   0.703371 0.032472 0.176645 0.048434
C98   C     C_R   0.296639 0.032385 0.823500 0.048491
C99   C     C_R   0.203355 0.532337 0.176435 0.048494
C100  C     C_R   0.796645 0.532334 0.823567 0.048494
C101  C     C_R   0.728347 0.064884 0.179733 -0.045955
C102  C     C_R   0.271659 0.064672 0.820571 -0.045895
C103  C     C_R   0.228335 0.564574 0.179298 -0.045772
C104  C     C_R   0.771665 0.564570 0.820707 -0.045741
C105  C     C_R   0.774046 0.064186 0.227198 -0.207385
C106  C     C_R   0.225957 0.063994 0.773086 -0.207404
C107  C     C_R   0.274037 0.563902 0.226787 -0.207403
C108  C     C_R   0.725963 0.563899 0.773217 -0.207378
C109  C     C_R   0.656482 0.971106 0.179159 -0.160044
C110  C     C_R   0.343520 0.971240 0.820715 -0.160234
C111  C     C_R   0.156477 0.471293 0.179337 -0.160100
C112  C     C_R   0.843523 0.471296 0.820660 -0.160124
C113  C     C_R   0.633693 0.000418 0.130913 -0.116600
C114  C     C_R   0.366312 0.000422 0.869091 -0.116392
C115  C     C_R   0.133685 0.500421 0.130907 -0.116443
C116  C     C_R   0.866315 0.500421 0.869093 -0.116429
C117  C     C_R   0.656532 0.029948 0.127556 -0.088955
C118  C     C_R   0.343481 0.029850 0.872567 -0.088895
C119  C     C_R   0.156512 0.529798 0.127375 -0.088856
C120  C     C_R   0.843487 0.529794 0.872628 -0.088828
H17   H     H_    0.637576 0.949156 0.180138 0.203365
H18   H     H_    0.362422 0.949358 0.819661 0.203139
H19   H     H_    0.137575 0.449448 0.180429 0.203263
H20   H     H_    0.862425 0.449453 0.819566 0.203231
H21   H     H_    0.791778 0.089345 0.227562 0.163100
H22   H     H_    0.208222 0.089053 0.772845 0.163089
H23   H     H_    0.291771 0.588921 0.226977 0.163077
H24   H     H_    0.708229 0.588917 0.773028 0.163082
O17   O     O_R   0.537500 0.935010 0.537500 -0.581326
O18   O     O_R   0.462500 0.935010 0.462500 -0.581344
O19   O     O_R   0.037500 0.435010 0.537500 -0.581263
O20   O     O_R   0.962500 0.435010 0.462500 -0.581264
C121  C     C_R   0.500000 0.914349 0.500000 0.803938
C122  C     C_R   0.000000 0.414350 0.499999 0.803907
O21   O     O_R   0.537510 0.999880 0.477060 -0.575090
O22   O     O_R   0.462490 0.999880 0.522940 -0.575116
O23   O     O_R   0.037510 0.499880 0.477060 -0.575024
O24   O     O_R   0.962490 0.499880 0.522940 -0.575026
O25   O     O_R   0.462420 0.999960 0.401940 -0.569148
O26   O     O_R   0.537580 0.999960 0.598060 -0.569140
O27   O     O_R   0.962420 0.499960 0.401940 -0.569127
O28   O     O_R   0.037580 0.499960 0.598060 -0.569132
C123  C     C_R   0.499959 0.999957 0.419883 0.810918
C124  C     C_R   0.500041 0.999957 0.580117 0.810937
C125  C     C_R   0.999959 0.499957 0.419883 0.810923
C126  C     C_R   0.000041 0.499957 0.580117 0.810932
Cu5   Cu    Cu3+1 0.544430 0.999860 0.544440 1.012638
Cu6   Cu    Cu3+1 0.455570 0.999860 0.455560 1.012611
Cu7   Cu    Cu3+1 0.044430 0.499860 0.544440 1.012751
Cu8   Cu    Cu3+1 0.955570 0.499860 0.455560 1.012773
O29   O     O_R   0.537530 0.064730 0.537550 -0.579474
O30   O     O_R   0.462470 0.064730 0.462450 -0.579471
O31   O     O_R   0.037530 0.564730 0.537550 -0.579639
O32   O     O_R   0.962470 0.564730 0.462450 -0.579627
C127  C     C_R   0.500000 0.085519 0.500000 0.791426
C128  C     C_R   1.000000 0.585524 0.500000 0.791489
O33   O     O_R   0.999920 0.064860 0.534930 -0.545503
O34   O     O_R   0.000080 0.064860 0.465070 -0.545545
O35   O     O_R   0.499920 0.564860 0.534930 -0.545574
O36   O     O_R   0.500080 0.564860 0.465070 -0.545577
C129  C     C_R   0.000000 0.085743 0.500001 0.926470
C130  C     C_R   0.500000 0.585742 0.500000 0.926607
O37   O     O_R   0.935130 0.999970 0.470150 -0.552021
O38   O     O_R   0.064870 0.999970 0.529850 -0.552052
O39   O     O_R   0.435130 0.499970 0.470150 -0.552007
O40   O     O_R   0.564870 0.499970 0.529850 -0.552002
O41   O     O_R   0.935060 0.999990 0.400100 -0.591879
O42   O     O_R   0.064940 0.999990 0.599900 -0.591874
O43   O     O_R   0.435060 0.499990 0.400100 -0.591905
O44   O     O_R   0.564940 0.499990 0.599900 -0.591895
C131  C     C_R   0.914358 0.999946 0.414376 0.819654
C132  C     C_R   0.085644 0.999952 0.585625 0.819642
C133  C     C_R   0.414354 0.499954 0.414373 0.819706
C134  C     C_R   0.585646 0.499954 0.585627 0.819724
Cu9   Cu    Cu3+1 1.000000 0.000000 0.541440 1.097330
Cu10  Cu    Cu3+1 1.000000 0.000000 0.458560 1.097266
Cu11  Cu    Cu3+1 0.500000 0.500000 0.541440 1.097502
Cu12  Cu    Cu3+1 0.500000 0.500000 0.458560 1.097460
O45   O     O_R   0.000080 0.935140 0.535060 -0.574676
O46   O     O_R   0.999920 0.935140 0.464940 -0.574724
O47   O     O_R   0.500080 0.435140 0.535060 -0.574733
O48   O     O_R   0.499920 0.435140 0.464940 -0.574749
C135  C     C_R   0.000001 0.914262 0.500000 0.789999
C136  C     C_R   0.500000 0.414258 0.500000 0.789921
C137  C     C_R   0.970311 0.157279 0.496376 0.254953
C138  C     C_R   0.029706 0.157276 0.503657 0.254945
C139  C     C_R   0.470251 0.657273 0.496253 0.254917
C140  C     C_R   0.529755 0.657272 0.503754 0.254905
C141  C     C_R   0.000004 0.134195 0.500008 -0.272775
C142  C     C_R   0.500002 0.634192 0.500003 -0.272780
C143  C     C_R   0.030591 0.203805 0.505374 -0.001422
C144  C     C_R   0.969422 0.203807 0.494648 -0.001404
C145  C     C_R   0.530639 0.703801 0.505474 -0.001373
C146  C     C_R   0.469368 0.703802 0.494536 -0.001352
C147  C     C_R   0.000004 0.226969 0.500006 -0.027803
C148  C     C_R   0.500003 0.726965 0.500004 -0.027803
C149  C     C_R   0.061939 0.227782 0.513397 -0.101079
C150  C     C_R   0.938075 0.227784 0.486626 -0.101070
C151  C     C_R   0.562032 0.727778 0.513599 -0.101088
C152  C     C_R   0.437975 0.727778 0.486414 -0.101101
C153  C     C_R   0.562653 0.773840 0.515205 -0.199584
C154  C     C_R   0.437354 0.773840 0.484807 -0.199626
C155  C     C_R   0.062561 0.273844 0.515002 -0.199485
C156  C     C_R   0.937448 0.273846 0.485011 -0.199493
C157  C     C_R   0.531708 0.796968 0.508122 0.107373
C158  C     C_R   0.468297 0.796968 0.491886 0.107413
C159  C     C_R   0.031662 0.296972 0.508020 0.107311
C160  C     C_R   0.968342 0.296972 0.491985 0.107323
C161  C     C_R   0.500002 0.773607 0.500004 0.114476
C162  C     C_R   0.000003 0.273611 0.500003 0.114440
C163  C     C_R   0.531934 0.843161 0.509032 -0.219512
C164  C     C_R   0.468068 0.843161 0.490973 -0.219532
C165  C     C_R   0.031891 0.343165 0.508932 -0.219484
C166  C     C_R   0.968112 0.343166 0.491068 -0.219486
C167  C     C_R   0.500001 0.866170 0.500001 -0.061622
C168  C     C_R   0.000001 0.366173 0.499999 -0.061641
H25   H     H_    0.086590 0.211216 0.519273 0.202086
H26   H     H_    0.913427 0.211218 0.480759 0.202056
H27   H     H_    0.586721 0.711212 0.519555 0.202029
H28   H     H_    0.413290 0.711212 0.480464 0.202003
H29   H     H_    0.587275 0.791402 0.521720 0.163159
H30   H     H_    0.412732 0.791402 0.478294 0.163092
H31   H     H_    0.087148 0.291406 0.521439 0.163315
H32   H     H_    0.912861 0.291407 0.478575 0.163289
H33   H     H_    0.556347 0.861281 0.515517 0.158431
H34   H     H_    0.443655 0.861281 0.484488 0.158386
H35   H     H_    0.056269 0.361286 0.515342 0.158481
H36   H     H_    0.943733 0.361286 0.484659 0.158467
C169  C     C_R   0.968575 0.843148 0.445134 -0.141018
C170  C     C_R   0.031425 0.843147 0.554867 -0.141211
C171  C     C_R   0.468862 0.343131 0.445080 -0.141234
C172  C     C_R   0.531138 0.343131 0.554920 -0.141220
C173  C     C_R   0.000000 0.866023 0.500000 -0.073822
C174  C     C_R   0.500000 0.366011 0.500000 -0.074141
C175  C     C_R   0.031835 0.796712 0.555911 0.008436
C176  C     C_R   0.968164 0.796712 0.444090 0.008412
C177  C     C_R   0.531539 0.296695 0.555961 0.008364
C178  C     C_R   0.468460 0.296695 0.444039 0.008373
C179  C     C_R   0.999999 0.773450 0.500000 -0.019909
C180  C     C_R   0.500000 0.273433 0.500000 -0.019734
C181  C     C_R   0.063801 0.772869 0.611116 0.328757
C182  C     C_R   0.936196 0.772870 0.388885 0.328773
C183  C     C_R   0.563220 0.272852 0.611230 0.328572
C184  C     C_R   0.436778 0.272852 0.388770 0.328597
C185  C     C_R   0.563879 0.226545 0.609884 -0.240389
C186  C     C_R   0.436120 0.226546 0.390116 -0.240482
C187  C     C_R   0.064427 0.726563 0.609741 -0.240627
C188  C     C_R   0.935570 0.726564 0.390260 -0.240628
C189  C     C_R   0.532447 0.203450 0.555063 0.055617
C190  C     C_R   0.467552 0.203451 0.444937 0.055648
C191  C     C_R   0.032711 0.703468 0.554982 0.055555
C192  C     C_R   0.967287 0.703468 0.445019 0.055563
C193  C     C_R   0.500000 0.226824 0.500000 0.069288
C194  C     C_R   0.999999 0.726841 0.500000 0.069358
C195  C     C_R   0.532675 0.157143 0.554580 -0.189051
C196  C     C_R   0.467325 0.157143 0.445420 -0.189109
C197  C     C_R   0.032925 0.657160 0.554491 -0.189129
C198  C     C_R   0.967074 0.657161 0.445509 -0.189137
C199  C     C_R   0.500000 0.133968 0.500000 -0.063368
C200  C     C_R   0.999999 0.633980 0.500000 -0.063719
H37   H     H_    0.943946 0.862123 0.403835 0.188540
H38   H     H_    0.056054 0.862122 0.596166 0.188522
H39   H     H_    0.444433 0.362101 0.403714 0.188784
H40   H     H_    0.555567 0.362101 0.596285 0.188781
H41   H     H_    0.588326 0.208436 0.652214 0.192387
H42   H     H_    0.411673 0.208436 0.347786 0.192329
H43   H     H_    0.089088 0.708454 0.652019 0.192275
H44   H     H_    0.910908 0.708455 0.347982 0.192262
H45   H     H_    0.557662 0.139058 0.596816 0.158867
H46   H     H_    0.442337 0.139059 0.403184 0.158825
H47   H     H_    0.058113 0.639082 0.596670 0.159127
H48   H     H_    0.941886 0.639083 0.403330 0.159120
N1    N     N_R   0.700118 0.909275 0.274495 0.114049
O49   O     O_R   0.679957 0.876115 0.236768 -0.304530
O50   O     O_R   0.699103 0.913551 0.313925 -0.313968
N2    N     N_R   0.299873 0.909870 0.724901 0.113920
O51   O     O_R   0.319798 0.876397 0.762102 -0.304574
O52   O     O_R   0.301174 0.914710 0.685822 -0.314600
N3    N     N_R   0.200127 0.410063 0.275298 0.114050
O53   O     O_R   0.180235 0.376524 0.238212 -0.304400
O54   O     O_R   0.198787 0.415038 0.314322 -0.313588
N4    N     N_R   0.799874 0.410069 0.724696 0.114028
O55   O     O_R   0.819766 0.376528 0.761779 -0.304447
O56   O     O_R   0.801214 0.415047 0.685674 -0.313738
C201  C     C_1   0.631174 0.053874 0.070999 0.284725
N5    N     N_1   0.610517 0.072558 0.025528 -0.182839
C202  C     C_1   0.368861 0.053670 0.929203 0.284879
N6    N     N_1   0.389539 0.072268 0.974736 -0.183454
C203  C     C_1   0.131126 0.553558 0.070698 0.285257
N7    N     N_1   0.110442 0.572109 0.025131 -0.184357
C204  C     C_1   0.868873 0.553548 0.929310 0.285414
N8    N     N_1   0.889556 0.572093 0.974880 -0.184625
C205  C     C_1   0.709344 0.101589 0.137910 0.280804
N9    N     N_1   0.694647 0.131207 0.104947 -0.202634
C206  C     C_1   0.290656 0.101227 0.862606 0.280973
N10   N     N_1   0.305346 0.130725 0.895740 -0.202654
C207  C     C_1   0.209337 0.601072 0.137183 0.281025
N11   N     N_1   0.194648 0.630524 0.103984 -0.203051
C208  C     C_1   0.790663 0.601066 0.862823 0.281055
N12   N     N_1   0.805353 0.630517 0.896024 -0.203144
N13   N     N_R   0.940582 0.133379 0.493341 0.125888
O57   O     O_R   0.911070 0.107090 0.447881 -0.374136
O58   O     O_R   0.943967 0.136834 0.537129 -0.316601
N14   N     N_R   0.059463 0.133372 0.506751 0.125871
O59   O     O_R   0.088956 0.107083 0.552226 -0.374167
O60   O     O_R   0.056116 0.136813 0.462998 -0.316634
N15   N     N_R   0.440449 0.633368 0.493067 0.125814
O61   O     O_R   0.410979 0.607086 0.447568 -0.374333
O62   O     O_R   0.443733 0.636801 0.536763 -0.316579
N16   N     N_R   0.559556 0.633367 0.506938 0.125829
O63   O     O_R   0.589009 0.607064 0.552418 -0.374331
O64   O     O_R   0.556286 0.636818 0.463257 -0.316596
N17   N     N_R   0.095431 0.794842 0.668985 0.123849
O65   O     O_R   0.082154 0.822727 0.684034 -0.327439
O66   O     O_R   0.136018 0.780875 0.710714 -0.307272
N18   N     N_R   0.904564 0.794843 0.331017 0.123843
O67   O     O_R   0.917839 0.822726 0.315963 -0.327499
O68   O     O_R   0.863976 0.780879 0.289292 -0.307233
N19   N     N_R   0.594518 0.294823 0.669122 0.123895
O69   O     O_R   0.580883 0.322708 0.683660 -0.327043
O70   O     O_R   0.635085 0.280851 0.711298 -0.307159
N20   N     N_R   0.405479 0.294824 0.330877 0.123864
O71   O     O_R   0.419113 0.322707 0.316336 -0.327151
O72   O     O_R   0.364911 0.280853 0.288705 -0.307229
N21   N     N_R   0.419058 0.032275 0.141817 0.145993
O73   O     O_R   0.389799 0.044422 0.139953 -0.308428
O74   O     O_R   0.410097 0.035527 0.093233 -0.325352
N22   N     N_R   0.580403 0.033592 0.857643 0.145960
O75   O     O_R   0.609460 0.046216 0.859305 -0.308391
O76   O     O_R   0.589310 0.036989 0.906173 -0.325169
N23   N     N_R   0.918315 0.530323 0.141063 0.146055
O77   O     O_R   0.888767 0.541755 0.138907 -0.308412
O78   O     O_R   0.909288 0.533369 0.092412 -0.325689
N24   N     N_R   0.081519 0.530769 0.858768 0.146036
O79   O     O_R   0.111002 0.542366 0.860858 -0.308431
O80   O     O_R   0.090532 0.533861 0.907404 -0.325624
N25   N     N_R   0.511409 0.913625 0.234161 0.148859
O81   O     O_R   0.515974 0.882168 0.266124 -0.307820
O82   O     O_R   0.512572 0.904158 0.195700 -0.307354
N26   N     N_R   0.489997 0.913443 0.767244 0.148859
O83   O     O_R   0.485946 0.881916 0.735793 -0.307837
O84   O     O_R   0.488992 0.903957 0.805862 -0.307428
N27   N     N_R   0.013482 0.413934 0.236233 0.148987
O85   O     O_R   0.018795 0.382595 0.268946 -0.307717
O86   O     O_R   0.014880 0.404498 0.198008 -0.307030
N28   N     N_R   0.986991 0.413858 0.764239 0.148969
O87   O     O_R   0.981849 0.382491 0.731698 -0.307743
O88   O     O_R   0.985647 0.404414 0.802519 -0.307092
C209  C     C_1   0.868159 0.066569 0.323436 0.311470
N29   N     N_1   0.887952 0.093519 0.325634 -0.229818
C210  C     C_1   0.131842 0.066460 0.676749 0.311457
N30   N     N_1   0.112048 0.093364 0.674611 -0.229705
C211  C     C_1   0.368151 0.566386 0.323136 0.311616
N31   N     N_1   0.387943 0.593260 0.325228 -0.229623
C212  C     C_1   0.631849 0.566385 0.676867 0.311626
N32   N     N_1   0.612057 0.593258 0.674774 -0.229588
C213  C     C_1   0.868324 0.930126 0.406813 0.252371
N33   N     N_1   0.889063 0.900740 0.439968 -0.239143
C214  C     C_1   0.131740 0.930280 0.593023 0.252633
N34   N     N_1   0.111041 0.900899 0.559838 -0.238935
C215  C     C_1   0.368245 0.430351 0.407069 0.252579
N35   N     N_1   0.388936 0.400982 0.440284 -0.238561
C216  C     C_1   0.631756 0.430352 0.592930 0.252581
N36   N     N_1   0.611065 0.400983 0.559715 -0.238586
C217  C     C_1   0.790923 0.910402 0.372334 0.389713
N37   N     N_1   0.806371 0.886938 0.412374 -0.188017
C218  C     C_1   0.209071 0.911080 0.627060 0.389404
N38   N     N_1   0.193611 0.887851 0.586817 -0.188279
C219  C     C_1   0.290930 0.411302 0.373141 0.389242
N39   N     N_1   0.306394 0.388144 0.413446 -0.188017
C220  C     C_1   0.709071 0.411306 0.626855 0.389238
N40   N     N_1   0.693607 0.388149 0.586550 -0.188076

loop_
_geom_bond_atom_site_label_1
_geom_bond_atom_site_label_2
_geom_bond_distance
_ccdc_geom_bond_type
C63   C67   1.408278 A    
C26   C30   1.532305 S    
C170  H38   1.081745 S    
C72   C84   1.427453 A    
C41   N21   1.457058 S    
O46   C135  1.284726 A    
C100  C104  1.422338 A    
C26   N26   1.456996 S    
N13   O57   1.300406 A    
C139  C142  1.411547 A    
C207  N11   1.157712 T    
C97   C101  1.422273 A    
C1    C113  1.463742 S    
O30   C127  1.299553 A    
C157  C161  1.411418 A    
C155  H31   1.083830 S    
C197  H47   1.084654 S    
C59   C63   1.402425 A    
O33   Cu9   1.969956 S    
O34   C129  1.285661 A    
C198  H48   1.084653 S    
C166  C168  1.399233 A    
O19   Cu7   1.970117 S    
C9    C13   1.558547 S    
C156  C160  1.397045 A    
C177  C180  1.420540 A    
C112  H20   1.083238 S    
C11   C27   1.539543 S    
C20   C52   1.205412 T    
C113  C117  1.406496 A    
C32   C52   1.467703 S    
C110  C114  1.387117 A    
C116  C120  1.406495 A    
C146  C152  1.409001 A    
C115  C119  1.406500 A    
O4    C4    1.296129 A    
C136  C174  1.457363 S    
C43   N23   1.457068 S    
C58   C210  1.455887 S    
O35   C130  1.285622 A    
O38   C132  1.284651 A    
C108  H24   1.084254 S    
C62   C132  1.467480 S    
C94   C98   1.431891 A    
C88   C92   1.406157 A    
C107  H23   1.084259 S    
C9    C37   1.544728 S    
O17   C121  1.296880 A    
C143  C149  1.409009 A    
C68   C216  1.453787 S    
C158  C161  1.411420 A    
C202  N6    1.157865 T    
O17   Cu5   1.970117 S    
O18   Cu6   1.970114 S    
N14   O59   1.300420 A    
C12   C40   1.544727 S    
C16   C48   1.558599 S    
O15   C7    1.296513 A    
O16   Cu4   1.946145 S    
C62   C66   1.408265 A    
O13   C5    1.296516 A    
O27   Cu8   1.946125 S    
Cu8   O32   1.970618 S    
C33   H13   1.110121 S    
Cu5   Cu6   2.693871 S    
O6    C2    1.293974 A    
C109  H17   1.083192 S    
O4    Cu2   1.977642 S    
N19   O69   1.301276 A    
C119  C203  1.452317 S    
C36   C40   1.545623 S    
N18   O67   1.301272 A    
O9    C5    1.296620 A    
C165  H35   1.084798 S    
C146  C148  1.414667 A    
C166  H36   1.084796 S    
O28   C126  1.299583 A    
C93   C97   1.431895 A    
C172  C174  1.395423 A    
O43   Cu12  1.979702 S    
C137  N13   1.436558 S    
C211  N31   1.157587 T    
O8    Cu4   1.975868 S    
C210  N30   1.157589 T    
C19   C51   1.205412 T    
C87   C91   1.406155 A    
C67   C71   1.424680 A    
C102  C206  1.447040 S    
O21   Cu5   1.945848 S    
C176  C182  1.417784 A    
C190  C193  1.410353 A    
C157  C163  1.395523 A    
O3    Cu2   1.977639 S    
C44   N24   1.457066 S    
C25   C29   1.532305 S    
C83   C87   1.402213 A    
C213  N33   1.157932 T    
C27   C31   1.532303 S    
C90   C110  1.395777 A    
C28   C32   1.532303 S    
C121  C167  1.455318 S    
C149  C155  1.391861 A    
C219  N39   1.157814 T    
C34   C38   1.545617 S    
C138  C143  1.405977 A    
C176  C179  1.420556 A    
C36   H16   1.110121 S    
C184  N20   1.436727 S    
C183  C185  1.400350 A    
C91   C95   1.414841 A    
O3    C3    1.296134 A    
C186  H42   1.084224 S    
O34   Cu10  1.969955 S    
C208  N12   1.157714 T    
C89   C93   1.414815 A    
C175  C181  1.417785 A    
C13   C29   1.547808 S    
C201  N5    1.157865 T    
C90   C94   1.414833 A    
C60   C80   1.405903 A    
C15   C31   1.547805 S    
C140  C145  1.405978 A    
C43   C47   1.539715 S    
C144  C147  1.414658 A    
C130  C142  1.463501 S    
C156  H32   1.083830 S    
C143  C147  1.414664 A    
N17   O65   1.301272 A    
C137  C141  1.411590 A    
C4    C116  1.463596 S    
C37   C45   1.544846 S    
C64   C68   1.408281 A    
O24   C126  1.299879 A    
C39   C47   1.544849 S    
N24   O79   1.300209 A    
C85   C89   1.406216 A    
O23   Cu7   1.945848 S    
C11   H7    1.110082 S    
C12   C16   1.558543 S    
C169  C176  1.402840 A    
C145  C148  1.414673 A    
C170  C175  1.402840 A    
C171  C174  1.395424 A    
C24   C56   1.205619 T    
O24   Cu8   1.945845 S    
C216  N36   1.157929 T    
C34   C42   1.542316 S    
C189  C193  1.410351 A    
C139  N15   1.436545 S    
N22   O75   1.300207 A    
C25   N25   1.456995 S    
C82   C86   1.402231 A    
N4    O56   1.300926 A    
C27   C35   1.542243 S    
O5    Cu3   1.975862 S    
C103  C107  1.386804 A    
N2    O52   1.300932 A    
C171  H39   1.081737 S    
C60   C212  1.455879 S    
C74   C78   1.417005 A    
C139  C146  1.405965 A    
O8    C4    1.293967 A    
C16   C32   1.547804 S    
C28   N28   1.456998 S    
O21   C123  1.299876 A    
C21   C123  1.435247 S    
O39   C133  1.284669 A    
N26   O84   1.300232 A    
N1    O50   1.300974 A    
C32   C44   1.532281 S    
O20   Cu8   1.970114 S    
C10   C14   1.558544 S    
C42   N22   1.457056 S    
O13   Cu3   1.946146 S    
C104  C208  1.447037 S    
O42   C132  1.283486 A    
C183  N19   1.436727 S    
Cu12  O48   1.970060 S    
C22   C54   1.205612 T    
C138  C141  1.411578 A    
C158  C164  1.395524 A    
C191  C197  1.398971 A    
C135  C173  1.457131 S    
C192  C194  1.410334 A    
C83   C219  1.450416 S    
C111  C115  1.387098 A    
O5    C1    1.294000 A    
O36   Cu12  1.969955 S    
O44   C134  1.283502 A    
N16   O64   1.301014 A    
C96   C100  1.431893 A    
C159  C162  1.411417 A    
C122  C168  1.455261 S    
C150  C156  1.391851 A    
N20   O72   1.301252 A    
O15   Cu4   1.946146 S    
C163  H33   1.084797 S    
C180  C193  1.407879 A    
C75   C95   1.418882 A    
N19   O70   1.301250 A    
C192  C198  1.398974 A    
C57   C77   1.405817 A    
N15   O62   1.301014 A    
C87   N3    1.437510 S    
C35   C43   1.542329 S    
N17   O66   1.301251 A    
C57   C61   1.402283 A    
C59   C211  1.455881 S    
C37   C53   1.465905 S    
C63   C133  1.467538 S    
C3    C115  1.463599 S    
C69   C73   1.428150 A    
C165  C168  1.399243 A    
C41   C45   1.539709 S    
C9    H5    1.110083 S    
O14   C6    1.296516 A    
C71   C75   1.428037 A    
C30   C42   1.532288 S    
C44   C48   1.539712 S    
C170  C173  1.395354 A    
C178  C184  1.417804 A    
C21   C53   1.205615 T    
Cu7   O31   1.970615 S    
C110  H18   1.083227 S    
C163  C167  1.399254 A    
C36   C44   1.542325 S    
C189  C195  1.398980 A    
C71   C83   1.427452 A    
C190  C196  1.398980 A    
O10   C6    1.296621 A    
C151  H27   1.081791 S    
C172  H40   1.081736 S    
C29   C49   1.467709 S    
C215  N35   1.157929 T    
C73   C93   1.418888 A    
C13   C45   1.558601 S    
C181  N17   1.436723 S    
O27   C125  1.299582 A    
C60   C64   1.402428 A    
C15   C47   1.558601 S    
C160  C162  1.411425 A    
C178  C180  1.420540 A    
C23   C55   1.205619 T    
O26   C124  1.299583 A    
C85   N1    1.437654 S    
C65   C213  1.453783 S    
H9    C45   1.110081 S    
C70   C82   1.427477 A    
O2    C2    1.296157 A    
C8    C20   1.434673 S    
N28   O87   1.300215 A    
C159  C165  1.395523 A    
C76   C80   1.416990 A    
N27   O85   1.300216 A    
C34   H14   1.110122 S    
Cu11  Cu12  2.651993 S    
O47   C136  1.284785 A    
N21   O74   1.300226 A    
O33   C129  1.285622 A    
N14   O60   1.301012 A    
C197  C200  1.400764 A    
N25   O82   1.300230 A    
C58   C62   1.402386 A    
C14   C30   1.547810 S    
C17   C49   1.205413 T    
C169  C173  1.395355 A    
C10   C38   1.544729 S    
C218  N38   1.157813 T    
N18   O68   1.301249 A    
C164  H34   1.084795 S    
C6    C18   1.434683 S    
O22   C124  1.299873 A    
O20   C122  1.296868 A    
C30   C50   1.467706 S    
O23   C125  1.299880 A    
N3    O53   1.300932 A    
C128  C200  1.463700 S    
O12   Cu2   1.945858 S    
C69   C81   1.427610 A    
C182  N18   1.436720 S    
C5    C17   1.434679 S    
N13   O58   1.301015 A    
C217  N37   1.157826 T    
C66   C214  1.453787 S    
C185  C189  1.397916 A    
C187  C191  1.397928 A    
C112  C116  1.387099 A    
C188  C192  1.397928 A    
O1    C1    1.296183 A    
O36   C130  1.285627 A    
C102  C106  1.386793 A    
H10   C46   1.110082 S    
C92   C112  1.395767 A    
C29   C41   1.532285 S    
C179  C194  1.407876 A    
C13   H1    1.110036 S    
C72   C76   1.428037 A    
C31   C51   1.467696 S    
C76   C96   1.418882 A    
C145  C151  1.409003 A    
C15   H3    1.110039 S    
C206  N10   1.157711 T    
Cu5   O29   1.970615 S    
Cu9   Cu10  2.651993 S    
C86   N2    1.437524 S    
C191  C194  1.410335 A    
N23   O78   1.300225 A    
O38   Cu10  1.977200 S    
C152  H28   1.081789 S    
O39   Cu11  1.977207 S    
C39   C55   1.465914 S    
O44   Cu11  1.979696 S    
C82   C218  1.450414 S    
C9    C25   1.539547 S    
C153  H29   1.083830 S    
C11   C15   1.558545 S    
C12   C28   1.539543 S    
C68   C72   1.424679 A    
C196  H46   1.084662 S    
C18   C50   1.205419 T    
C209  N29   1.157596 T    
C101  C105  1.386716 A    
O32   C128  1.299613 A    
C104  C108  1.386808 A    
C25   C33   1.542244 S    
C106  H22   1.084257 S    
N24   O80   1.300228 A    
C214  N34   1.157928 T    
C153  C157  1.397051 A    
C103  C207  1.447038 S    
C99   C103  1.422340 A    
C169  H37   1.081746 S    
O48   C136  1.284785 A    
C204  N8    1.157868 T    
C2    C114  1.463656 S    
Cu7   Cu8   2.693871 S    
C98   C118  1.423860 A    
C33   C37   1.545618 S    
C67   C215  1.453787 S    
O42   Cu9   1.979696 S    
C64   C134  1.467544 S    
N22   O76   1.300222 A    
C74   C94   1.418885 A    
O2    Cu1   1.977642 S    
C35   C39   1.545625 S    
O10   Cu1   1.945858 S    
C203  N7    1.157868 T    
O35   Cu11  1.969956 S    
O7    Cu4   1.975862 S    
C28   C36   1.542240 S    
C40   C48   1.544848 S    
C42   C46   1.539706 S    
C10   H6    1.110084 S    
C89   C109  1.395827 A    
C109  C113  1.387159 A    
O25   Cu6   1.946125 S    
C129  C141  1.463559 S    
O26   Cu5   1.946122 S    
Cu9   O45   1.970059 S    
N15   O61   1.300415 A    
C171  C178  1.402852 A    
C105  H21   1.084254 S    
C38   C46   1.544839 S    
C205  N9    1.157715 T    
C195  C199  1.400688 A    
N23   O77   1.300215 A    
H11   C47   1.110085 S    
C111  H19   1.083235 S    
C58   C78   1.405886 A    
C33   C41   1.542322 S    
C212  N32   1.157589 T    
N1    O49   1.300962 A    
N2    O51   1.300933 A    
O7    C3    1.293967 A    
C137  C144  1.405956 A    
C177  C183  1.417805 A    
C160  C166  1.395516 A    
C97   C117  1.423784 A    
C78   C106  1.401684 A    
C184  C186  1.400347 A    
C175  C179  1.420556 A    
O45   C135  1.284726 A    
C100  C120  1.423871 A    
C57   C209  1.455909 S    
N27   O86   1.300230 A    
C152  C154  1.391859 A    
C99   C119  1.423870 A    
C148  C161  1.408888 A    
C81   C85   1.402346 A    
C84   C220  1.450415 S    
O28   Cu7   1.946122 S    
C26   C34   1.542240 S    
O16   C8    1.296513 A    
C59   C79   1.405903 A    
C172  C177  1.402852 A    
C195  H45   1.084663 S    
C220  N40   1.157814 T    
C154  H30   1.083827 S    
O29   C127  1.299554 A    
C164  C167  1.399256 A    
C73   C77   1.417069 A    
O11   C7    1.296617 A    
C181  C187  1.400339 A    
O12   C8    1.296617 A    
C80   C108  1.401692 A    
O1    Cu1   1.977639 S    
C151  C153  1.391861 A    
O9    Cu1   1.945857 S    
O40   C134  1.284674 A    
C118  C202  1.452315 S    
C92   C96   1.414840 A    
C35   H15   1.110122 S    
C40   C56   1.465911 S    
O19   C122  1.296867 A    
C65   C69   1.424839 A    
C79   C107  1.401690 A    
N3    O54   1.300927 A    
Cu10  O46   1.970060 S    
C16   H4    1.110040 S    
Cu11  O47   1.970059 S    
O11   Cu2   1.945857 S    
O25   C123  1.299583 A    
O41   C131  1.283427 A    
O40   Cu12  1.977200 S    
Cu6   O30   1.970618 S    
C86   C90   1.406166 A    
O31   C128  1.299614 A    
C138  N14   1.436558 S    
N4    O55   1.300931 A    
O22   Cu6   1.945845 S    
C95   C99   1.431896 A    
C7    C19   1.434669 S    
O6    Cu3   1.975868 S    
O43   C133  1.283504 A    
O37   C131  1.284631 A    
C23   C125  1.435257 S    
C61   C131  1.467370 S    
C101  C205  1.447051 S    
C186  C190  1.397918 A    
O41   Cu10  1.979702 S    
C147  C162  1.408885 A    
C38   C54   1.465905 S    
C185  H41   1.084226 S    
C117  C201  1.452320 S    
N26   O83   1.300214 A    
C31   C43   1.532283 S    
C81   C217  1.450411 S    
C70   C74   1.428057 A    
C187  H43   1.084227 S    
C150  H26   1.081796 S    
C188  H44   1.084227 S    
N28   O88   1.300229 A    
C14   H2    1.110039 S    
C144  C150  1.409004 A    
C196  C199  1.400686 A    
O14   Cu3   1.946145 S    
C140  C142  1.411553 A    
C98   C102  1.422336 A    
C75   C79   1.416990 A    
C149  H25   1.081790 S    
Cu1   Cu3   2.685645 S    
N21   O73   1.300206 A    
C154  C158  1.397052 A    
Cu2   Cu4   2.685645 S    
H12   C48   1.110083 S    
C88   N4    1.437507 S    
N25   O81   1.300214 A    
C14   C46   1.558602 S    
C198  C200  1.400765 A    
N16   O63   1.300415 A    
C24   C126  1.435250 S    
C140  N16   1.436555 S    
C10   C26   1.539547 S    
C127  C199  1.463462 S    
C22   C124  1.435244 S    
C66   C70   1.424701 A    
O37   Cu9   1.977207 S    
C77   C105  1.401688 A    
C27   N27   1.456999 S    
N20   O71   1.301274 A    
C120  C204  1.452322 S    
C12   H8    1.110085 S    
O18   C121  1.296881 A    
C155  C159  1.397049 A    
C114  C118  1.406517 A    
C182  C188  1.400339 A    
C61   C65   1.408258 A    
C84   C88   1.402215 A    
C91   C111  1.395766 A    
C11   C39   1.544727 S    
