data_mof_unit_41357.cif
_audit_creation_date              2012-12-11T17:16:57-0500
_audit_creation_method            fapswitch 2.2
_symmetry_space_group_name_H-M    P1
_symmetry_Int_Tables_number       1
_space_group_crystal_system       triclinic
_cell_length_a                    6.942216
_cell_length_b                    13.382877
_cell_length_c                    14.672654
_cell_angle_alpha                 98.884224
_cell_angle_beta                  89.843758
_cell_angle_gamma                 90.247138
_cell_volume                      1346.81923902

loop_
_atom_site_label
_atom_site_type_symbol
_atom_type_description
_atom_site_fract_x
_atom_site_fract_y
_atom_site_fract_z
_atom_type_partial_charge
O1    O     O_R   0.354890 0.151580 0.148210 -0.536082
O2    O     O_R   0.645110 0.848420 0.851790 -0.536086
O3    O     O_R   0.682370 0.152980 0.336770 -0.530038
O4    O     O_R   0.317630 0.847020 0.663230 -0.530027
O5    O     O_R   0.854980 0.348430 0.351800 -0.537194
O6    O     O_R   0.145020 0.651570 0.648200 -0.537198
C1    C     C_R   0.513352 0.131551 0.366396 0.710739
C2    C     C_R   0.486648 0.868449 0.633604 0.710817
O7    O     O_R   0.684450 0.139580 0.148000 -0.535265
O8    O     O_R   0.315550 0.860420 0.852000 -0.535259
O9    O     O_R   0.857080 0.334940 0.161680 -0.542159
O10   O     O_R   0.142920 0.665060 0.838320 -0.542162
C3    C     C_R   0.515512 0.112662 0.114037 0.735326
C4    C     C_R   0.484488 0.887337 0.885963 0.735359
O11   O     O_R   0.352790 0.165070 0.338330 -0.544918
O12   O     O_R   0.647210 0.834930 0.661670 -0.544928
O13   O     O_3   0.522170 0.314120 0.254710 -0.373424
O14   O     O_3   0.477830 0.685880 0.745290 -0.373433
V1    V     V_3+5 0.796120 0.238110 0.249130 1.437351
V2    V     V_3+5 0.203880 0.761890 0.750870 1.437380
O15   O     O_R   0.186930 0.347040 0.163240 -0.543363
O16   O     O_R   0.813070 0.652960 0.836760 -0.543365
C5    C     C_R   0.018259 0.368769 0.133574 0.673943
C6    C     C_R   0.981741 0.631231 0.866426 0.673934
O17   O     O_R   0.184850 0.360440 0.352010 -0.539516
O18   O     O_R   0.815150 0.639560 0.647990 -0.539517
C7    C     C_R   0.015839 0.387323 0.385989 0.729680
C8    C     C_R   0.984161 0.612677 0.614011 0.729680
V3    V     V_3+5 0.296410 0.261900 0.250880 1.413645
V4    V     V_3+5 0.703590 0.738100 0.749120 1.413648
O19   O     O_3   0.020490 0.185890 0.245290 -0.363609
O20   O     O_3   0.979510 0.814110 0.754710 -0.363607
C9    C     C_1   0.005156 0.466907 0.466344 -0.196080
C10   C     C_1   0.994843 0.533093 0.533655 -0.196077
C11   C     C_3   0.179166 0.527606 0.979638 -0.114883
C12   C     C_3   0.820834 0.472394 0.020362 -0.114881
C13   C     C_3   0.085130 0.548146 0.076578 -0.142763
C14   C     C_3   0.914870 0.451854 0.923422 -0.142765
H1    H     H_    0.155466 0.587440 0.140085 0.100861
H2    H     H_    0.844534 0.412560 0.859915 0.100854
H3    H     H_    0.327331 0.550453 0.962652 0.109915
H4    H     H_    0.672668 0.449547 0.037348 0.109916
C15   C     C_3   0.008319 0.438836 0.062707 -0.005481
C16   C     C_3   0.991681 0.561164 0.937293 -0.005480
C17   C     C_3   0.102262 0.417488 0.966553 -0.141802
C18   C     C_3   0.897738 0.582512 0.033447 -0.141800
H5    H     H_    0.186922 0.349102 0.939421 0.102202
H6    H     H_    0.813078 0.650898 0.060579 0.102202
C19   C     C_3   0.317481 0.025349 0.480526 -0.146204
C20   C     C_3   0.682519 0.974650 0.519473 -0.146128
C21   C     C_3   0.398764 0.915522 0.466619 -0.232501
C22   C     C_3   0.601235 0.084477 0.533380 -0.232503
H7    H     H_    0.319185 0.845506 0.438309 0.116200
H8    H     H_    0.680815 0.154493 0.561690 0.116184
H9    H     H_    0.167805 0.047414 0.466342 0.131652
H10   H     H_    0.832195 0.952584 0.533657 0.131657
C23   C     C_3   0.496149 0.937663 0.562555 -0.057348
C24   C     C_3   0.503851 0.062336 0.437444 -0.057399
C25   C     C_3   0.417093 0.045444 0.575249 0.251757
C26   C     C_3   0.582907 0.954555 0.424750 0.251769
C27   C     C_1   0.504916 0.033093 0.033667 -0.189762
C28   C     C_1   0.495084 0.966907 0.966333 -0.189751
N1    N     N_3   0.324091 0.094891 0.659187 -0.670608
H11   H     H_    0.290278 0.168425 0.649180 0.217639
H12   H     H_    0.426395 0.101220 0.711905 0.212007
N2    N     N_3   0.675906 0.905103 0.340813 -0.670559
H13   H     H_    0.709306 0.831487 0.350740 0.217628
H14   H     H_    0.573717 0.898986 0.288049 0.211980

loop_
_geom_bond_atom_site_label_1
_geom_bond_atom_site_label_2
_ccdc_geom_bond_type
N2    H14   S    
N1    H12   S    
O13   V3    S    
C12   H4    S    
O4    C2    A    
V1    O19   S    
C7    C9    S    
O9    V1    S    
C11   C13   S    
O3    C1    A    
C23   C25   S    
O12   V4    S    
C4    C28   S    
C5    C15   S    
O7    C3    A    
C14   C17   S    
O5    C7    A    
O7    V1    S    
O6    C8    A    
O8    V2    S    
C19   C21   S    
C20   C22   S    
O3    V1    S    
C21   C23   S    
V4    O20   S    
C1    C24   S    
C22   H8    S    
C1    O11   A    
N2    H13   S    
C26   N2    S    
C2    O12   A    
C11   H3    S    
C16   C18   S    
O11   V3    S    
C17   H5    S    
O17   V3    S    
C18   H6    S    
O8    C4    A    
C19   H9    S    
O15   V3    S    
C20   H10   S    
C19   C24   S    
C21   H7    S    
C13   C15   S    
C14   C16   S    
C22   C25   S    
C2    C23   S    
O10   V2    S    
O1    V3    S    
C9    C10   T    
C12   C18   S    
C11   C16   S    
C15   C17   S    
C22   C24   S    
O14   V4    S    
O18   V4    S    
O15   C5    A    
C6    C16   S    
O16   C6    A    
O1    C3    A    
C11   C17   S    
V2    O20   S    
O16   V4    S    
C20   C23   S    
C25   N1    S    
O5    V1    S    
O17   C7    A    
O6    V2    S    
O10   C6    A    
O18   C8    A    
C19   C25   S    
O2    V4    S    
C20   C26   S    
C12   C14   S    
C13   H1    S    
C14   H2    S    
O9    C5    A    
O13   V1    S    
O14   V2    S    
C27   C28   T    
O2    C4    A    
C8    C10   S    
N1    H11   S    
O4    V2    S    
C3    C27   S    
V3    O19   S    
C12   C15   S    
C21   C26   S    
C13   C18   S    
C24   C26   S    
