data_mof_unit_36499.cif
_audit_creation_date              2012-12-11T15:34:50-0500
_audit_creation_method            fapswitch 2.2
_symmetry_space_group_name_H-M    P1
_symmetry_Int_Tables_number       1
_space_group_crystal_system       triclinic
_cell_length_a                    30.545754
_cell_length_b                    7.249568
_cell_length_c                    25.984286
_cell_angle_alpha                 90.001817
_cell_angle_beta                  111.977678
_cell_angle_gamma                 90.000891
_cell_volume                      5335.90326341

loop_
_atom_site_label
_atom_site_type_symbol
_atom_type_description
_atom_site_fract_x
_atom_site_fract_y
_atom_site_fract_z
_atom_type_partial_charge
O1    O     O_R   0.295360 0.592990 0.320420 -0.531599
O2    O     O_R   0.704640 0.407010 0.679580 -0.531599
O3    O     O_R   0.204640 0.092990 0.179580 -0.531600
O4    O     O_R   0.795360 0.907010 0.820420 -0.531601
O5    O     O_R   0.294060 0.265620 0.213230 -0.539769
O6    O     O_R   0.705940 0.734380 0.786770 -0.539771
O7    O     O_R   0.205940 0.765620 0.286770 -0.539781
O8    O     O_R   0.794060 0.234380 0.713230 -0.539774
C1    C     C_R   0.304132 0.432302 0.199508 0.695153
C2    C     C_R   0.695868 0.567698 0.800492 0.695151
C3    C     C_R   0.195869 0.932303 0.300493 0.695171
C4    C     C_R   0.804131 0.067697 0.699507 0.695169
O9    O     O_R   0.300850 0.263360 0.322080 -0.535954
O10   O     O_R   0.699150 0.736640 0.677920 -0.535956
O11   O     O_R   0.199150 0.763360 0.177920 -0.535958
O12   O     O_R   0.800850 0.236640 0.822080 -0.535960
O13   O     O_R   0.211480 0.091820 0.289210 -0.537542
O14   O     O_R   0.788520 0.908180 0.710790 -0.537536
O15   O     O_R   0.288520 0.591820 0.210790 -0.537529
O16   O     O_R   0.711480 0.408180 0.789210 -0.537532
C5    C     C_R   0.313258 0.431448 0.343171 0.683176
C6    C     C_R   0.686742 0.568552 0.656829 0.683179
C7    C     C_R   0.186742 0.931439 0.156829 0.683183
C8    C     C_R   0.813258 0.068561 0.843171 0.683177
O17   O     O_3   0.220670 0.426670 0.239090 -0.374007
O18   O     O_3   0.779330 0.573330 0.760910 -0.374001
O19   O     O_3   0.279330 0.926670 0.260910 -0.373991
O20   O     O_3   0.720670 0.073330 0.739090 -0.373996
V1    V     V_3+5 0.255440 0.152290 0.252020 1.417232
V2    V     V_3+5 0.744560 0.847710 0.747980 1.417235
V3    V     V_3+5 0.244560 0.652290 0.247980 1.417223
V4    V     V_3+5 0.755440 0.347710 0.752020 1.417235
C9    C     C_R   0.850222 0.063911 0.899378 -0.037836
C10   C     C_R   0.149778 0.936089 0.100622 -0.037838
C11   C     C_R   0.649780 0.563860 0.600623 -0.037805
C12   C     C_R   0.350220 0.436140 0.399377 -0.037805
C13   C     C_R   0.873787 0.129594 0.997237 -0.155813
C14   C     C_R   0.126213 0.870406 0.002763 -0.155815
C15   C     C_R   0.626235 0.629138 0.502745 -0.155802
C16   C     C_R   0.373765 0.370862 0.497255 -0.155800
C17   C     C_R   0.838933 0.119960 0.944280 -0.160347
C18   C     C_R   0.161067 0.880040 0.055720 -0.160348
C19   C     C_R   0.661084 0.619629 0.555708 -0.160376
C20   C     C_R   0.338916 0.380371 0.444292 -0.160374
C21   C     C_R   0.897171 0.018046 0.907799 -0.212223
C22   C     C_R   0.102829 0.981954 0.092201 -0.212221
C23   C     C_R   0.602823 0.518153 0.592209 -0.212209
C24   C     C_R   0.397178 0.481846 0.407791 -0.212208
C25   C     C_R   0.933793 0.030178 0.961475 0.085679
C26   C     C_R   0.066207 0.969822 0.038525 0.085678
C27   C     C_R   0.566208 0.530146 0.538526 0.085687
C28   C     C_R   0.433792 0.469853 0.461473 0.085686
C29   C     C_R   0.920884 0.086695 0.006174 0.134330
C30   C     C_R   0.079116 0.913305 0.993826 0.134333
C31   C     C_R   0.579131 0.586377 0.493814 0.134329
C32   C     C_R   0.420869 0.413622 0.506186 0.134329
C33   C     C_R   0.982613 0.990985 0.972341 0.057166
C34   C     C_R   0.017387 0.009015 0.027659 0.057164
C35   C     C_R   0.517383 0.491071 0.527664 0.057166
C36   C     C_R   0.482617 0.508928 0.472336 0.057167
C37   C     C_R   0.002146 0.064988 0.070237 -0.183794
C38   C     C_R   0.997854 0.935013 0.929763 -0.183797
C39   C     C_R   0.497872 0.564617 0.429745 -0.183793
C40   C     C_R   0.502128 0.435381 0.570255 -0.183792
C41   C     C_R   0.955000 0.102478 0.059589 -0.194098
C42   C     C_R   0.044999 0.897522 0.940411 -0.194101
C43   C     C_R   0.545023 0.601998 0.440390 -0.194102
C44   C     C_R   0.454977 0.398000 0.559610 -0.194101
H1    H     H_    0.945155 0.145650 0.093745 0.130573
H2    H     H_    0.054844 0.854350 0.906254 0.130568
H3    H     H_    0.554879 0.644949 0.406222 0.130570
H4    H     H_    0.445122 0.355049 0.593777 0.130572
H5    H     H_    0.096115 0.021697 0.128509 0.097184
H6    H     H_    0.903885 0.978303 0.871491 0.097181
H7    H     H_    0.403901 0.521386 0.371473 0.097153
H8    H     H_    0.596099 0.478613 0.628527 0.097153
H9    H     H_    0.197001 0.842375 0.061804 0.109396
H10   H     H_    0.802999 0.157624 0.938196 0.109398
H11   H     H_    0.302975 0.342840 0.438214 0.109398
H12   H     H_    0.697025 0.657160 0.561786 0.109387
H13   H     H_    0.863967 0.173502 0.031330 0.120940
H14   H     H_    0.136033 0.826498 0.968670 0.120937
H15   H     H_    0.636067 0.672824 0.468641 0.120939
H16   H     H_    0.363933 0.327175 0.531358 0.120943
H17   H     H_    0.025886 0.081949 0.112666 0.127536
H18   H     H_    0.974114 0.918051 0.887334 0.127532
H19   H     H_    0.474140 0.581430 0.387306 0.127534
H20   H     H_    0.525861 0.418568 0.612693 0.127535
C45   C     C_R   0.072945 0.830477 0.458761 0.574253
C46   C     C_R   0.927059 0.169547 0.541249 0.574253
C47   C     C_R   0.427058 0.330443 0.041246 0.574246
C48   C     C_R   0.572946 0.669554 0.958760 0.574245
N1    N     N_R   0.072940 0.971251 0.423286 -0.555872
N2    N     N_R   0.927058 0.028748 0.576715 -0.555900
N3    N     N_R   0.427064 0.471235 0.076722 -0.555909
N4    N     N_R   0.572938 0.528768 0.923282 -0.555903
C49   C     C_R   0.044389 0.122788 0.417468 0.577899
C50   C     C_R   0.955602 0.877185 0.582527 0.577907
C51   C     C_R   0.455615 0.622792 0.082543 0.577905
C52   C     C_R   0.544385 0.377216 0.917460 0.577903
C53   C     C_R   0.015190 0.138074 0.448331 -0.025155
C54   C     C_R   0.984805 0.861913 0.551668 -0.025168
C55   C     C_R   0.484815 0.638074 0.051679 -0.025172
C56   C     C_R   0.515187 0.361930 0.948324 -0.025169
C57   C     C_R   0.014697 0.994075 0.484444 -0.019359
C58   C     C_R   0.985301 0.005923 0.515559 -0.019351
C59   C     C_R   0.485304 0.494073 0.015561 -0.019350
C60   C     C_R   0.514698 0.505930 0.984443 -0.019351
C61   C     C_R   0.043538 0.838291 0.489533 -0.029747
C62   C     C_R   0.956463 0.161719 0.510472 -0.029763
C63   C     C_R   0.456462 0.338275 0.010469 -0.029773
C64   C     C_R   0.543541 0.661725 0.989536 -0.029769
C65   C     C_R   0.986425 0.293523 0.443804 -0.148069
C66   C     C_R   0.013570 0.706467 0.556195 -0.148076
C67   C     C_R   0.513583 0.793526 0.056210 -0.148055
C68   C     C_R   0.486419 0.206479 0.943793 -0.148053
C69   C     C_R   0.957431 0.305179 0.474473 -0.154883
C70   C     C_R   0.042569 0.694829 0.525531 -0.154877
C71   C     C_R   0.542577 0.805181 0.025541 -0.154867
C72   C     C_R   0.457426 0.194820 0.974464 -0.154868
O21   O     O_2   0.101811 0.684280 0.464999 -0.524725
O22   O     O_2   0.898203 0.315784 0.535024 -0.524680
O23   O     O_2   0.398195 0.184210 0.035012 -0.524671
O24   O     O_2   0.601811 0.815780 0.964997 -0.524680
O25   O     O_2   0.043754 0.257784 0.381453 -0.527419
O26   O     O_2   0.956226 0.742150 0.618530 -0.527374
O27   O     O_2   0.456248 0.757809 0.118559 -0.527366
O28   O     O_2   0.543749 0.242206 0.881441 -0.527375
H21   H     H_    0.986272 0.407038 0.416635 0.170408
H22   H     H_    0.013721 0.592945 0.583362 0.170414
H23   H     H_    0.513740 0.907038 0.083385 0.170402
H24   H     H_    0.486261 0.092967 0.916618 0.170401
H25   H     H_    0.935838 0.427208 0.469905 0.171819
H26   H     H_    0.064164 0.572807 0.530102 0.171816
H27   H     H_    0.564174 0.927209 0.030114 0.171811
H28   H     H_    0.435830 0.072790 0.969891 0.171812
C73   C     C_R   0.898179 0.191119 0.642138 -0.086406
C74   C     C_R   0.101849 0.808831 0.357900 -0.086432
C75   C     C_R   0.601818 0.691122 0.857859 -0.086409
C76   C     C_R   0.398190 0.308893 0.142152 -0.086402
H29   H     H_    0.923117 0.301613 0.646225 0.157630
H30   H     H_    0.076935 0.698294 0.353842 0.157671
H31   H     H_    0.576880 0.801608 0.853772 0.157605
H32   H     H_    0.423133 0.198416 0.146246 0.157595
C77   C     C_R   0.868045 0.201563 0.671567 -0.208668
C78   C     C_R   0.131984 0.798387 0.328472 -0.208691
C79   C     C_R   0.631951 0.701557 0.828430 -0.208658
C80   C     C_R   0.368056 0.298456 0.171581 -0.208653
H33   H     H_    0.870292 0.320665 0.697600 0.138809
H34   H     H_    0.129761 0.679241 0.302472 0.138834
H35   H     H_    0.629703 0.820641 0.802395 0.138809
H36   H     H_    0.370309 0.179381 0.197623 0.138803
C81   C     C_R   0.836016 0.058239 0.668168 -0.053088
C82   C     C_R   0.163982 0.941761 0.331832 -0.053104
C83   C     C_R   0.663982 0.558244 0.831831 -0.053095
C84   C     C_R   0.336019 0.441756 0.168169 -0.053092
C85   C     C_R   0.834486 0.905407 0.634142 -0.202361
C86   C     C_R   0.165482 0.094643 0.365818 -0.202404
C87   C     C_R   0.665512 0.405432 0.865859 -0.202350
C88   C     C_R   0.334482 0.594557 0.134133 -0.202341
H37   H     H_    0.809935 0.793471 0.630146 0.132196
H38   H     H_    0.190007 0.206623 0.369783 0.132233
H39   H     H_    0.690065 0.293508 0.869858 0.132194
H40   H     H_    0.309923 0.706470 0.130126 0.132186
C89   C     C_R   0.863929 0.896845 0.603905 -0.089907
C90   C     C_R   0.136040 0.103204 0.396056 -0.089928
C91   C     C_R   0.636067 0.396875 0.896094 -0.089906
C92   C     C_R   0.363928 0.603117 0.103900 -0.089903
H41   H     H_    0.861391 0.779310 0.577217 0.152439
H42   H     H_    0.138555 0.220783 0.422715 0.152476
H43   H     H_    0.638604 0.279351 0.922783 0.152414
H44   H     H_    0.361387 0.720631 0.077205 0.152406
C93   C     C_R   0.896311 0.038993 0.607762 0.354791
C94   C     C_R   0.103687 0.961006 0.392239 0.354769
C95   C     C_R   0.603685 0.539012 0.892236 0.354807
C96   C     C_R   0.396317 0.460992 0.107767 0.354813

loop_
_geom_bond_atom_site_label_1
_geom_bond_atom_site_label_2
_ccdc_geom_bond_type
O17   V3    S    
C51   C55   A    
C25   C29   A    
O1    C5    A    
C13   C17   A    
N4    C95   S    
N1    C49   A    
O19   V1    S    
C53   C65   A    
C16   H16   S    
C75   C95   A    
C10   C18   A    
C48   N4    A    
C4    C81   S    
O4    V2    S    
C11   C23   A    
C76   C80   A    
C25   C33   A    
C33   C38   A    
C5    C12   S    
C67   H23   S    
O7    C3    A    
C6    C11   S    
C38   H18   S    
C75   C79   A    
C35   C40   A    
C26   C30   A    
C65   H21   S    
C36   C39   A    
C88   H40   S    
C73   C77   A    
C23   H8    S    
C82   C86   A    
C48   O24   S    
C58   C62   A    
O4    C8    A    
N3    C51   A    
C44   H4    S    
N2    C50   A    
C89   C93   A    
C45   C61   A    
N1    C94   S    
O1    V3    S    
O13   V1    S    
O2    V4    S    
C47   C63   A    
O3    V1    S    
C57   C61   A    
C28   C36   A    
C3    C82   S    
C69   H25   S    
C56   C68   A    
C75   H31   S    
C1    O15   A    
C52   C56   A    
C46   O22   S    
C1    C84   S    
C2    O16   A    
C16   C32   A    
C78   C82   A    
C74   C94   A    
C59   C60   A    
C54   C58   A    
C10   C22   A    
C87   H39   S    
C11   C19   A    
C16   C20   A    
C27   C31   A    
C70   H26   S    
C76   C96   A    
C13   C29   A    
C34   C37   A    
O11   C7    A    
O15   V3    S    
C35   C36   A    
O12   C8    A    
C47   O23   S    
C14   H14   S    
C45   N1    A    
C66   H22   S    
C24   H7    S    
C13   H13   S    
O10   V2    S    
C62   C69   A    
C61   C70   A    
C46   N2    A    
O5    V1    S    
C89   H41   S    
C15   C31   A    
C90   C94   A    
C53   C57   A    
O7    V3    S    
C38   C42   A    
C83   C87   A    
C26   C34   A    
C80   H36   S    
C84   C88   A    
C49   O25   S    
C74   H30   S    
C85   C89   A    
C17   H10   S    
O18   V4    S    
C48   C64   A    
C15   C19   A    
O3    C7    A    
C50   C54   A    
C47   N3    A    
C71   H27   S    
C68   C72   A    
C21   H6    S    
C72   H28   S    
O8    V4    S    
C55   C67   A    
N3    C96   S    
C39   C43   A    
O5    C1    A    
C9    C21   A    
C54   C66   A    
C37   C41   A    
C31   C43   A    
C68   H24   S    
C21   C25   A    
O8    C4    A    
C7    C10   S    
O9    C5    A    
O11   V3    S    
C66   C70   A    
C37   H17   S    
C51   O27   S    
C50   O26   S    
O6    V2    S    
C90   H42   S    
C67   C71   A    
O14   V2    S    
C65   C69   A    
C12   C20   A    
C27   C35   A    
C46   C62   A    
C40   C44   A    
C85   H37   S    
C56   C60   A    
C29   C41   A    
C86   C90   A    
C91   C95   A    
O16   V4    S    
C92   H44   S    
O9    V1    S    
C92   C96   A    
C73   H29   S    
C3    O13   A    
C39   H19   S    
C52   O28   S    
C59   C63   A    
C20   H11   S    
C76   H32   S    
C2    C83   S    
O6    C2    A    
C64   C71   A    
C23   C27   A    
C78   H34   S    
C30   C42   A    
C79   C83   A    
O12   V4    S    
C57   C58   A    
C22   C26   A    
C8    C9    S    
C91   H43   S    
C14   C30   A    
C9    C17   A    
O10   C6    A    
O20   V2    S    
C73   C93   A    
C19   H12   S    
C77   C81   A    
C32   C44   A    
O2    C6    A    
C33   C34   A    
C42   H2    S    
C45   O21   S    
C74   C78   A    
C41   H1    S    
C79   H35   S    
N4    C52   A    
C87   C91   A    
C12   C24   A    
C43   H3    S    
C88   C92   A    
C81   C85   A    
C77   H33   S    
C86   H38   S    
N2    C93   S    
C15   H15   S    
C14   C18   A    
C60   C64   A    
C24   C28   A    
C18   H9    S    
C4    O14   A    
C63   C72   A    
C55   C59   A    
C80   C84   A    
C40   H20   S    
C22   H5    S    
C49   C53   A    
C28   C32   A    
