data_mof_unit_18546.cif
_audit_creation_date              2012-12-11T14:04:16-0500
_audit_creation_method            fapswitch 2.2
_symmetry_space_group_name_H-M    P1
_symmetry_Int_Tables_number       1
_space_group_crystal_system       triclinic
_cell_length_a                    18.869398
_cell_length_b                    10.996413
_cell_length_c                    18.905197
_cell_angle_alpha                 90.141176
_cell_angle_beta                  90.991861
_cell_angle_gamma                 90.155658
_cell_volume                      3922.13235099

loop_
_atom_site_label
_atom_site_type_symbol
_atom_type_description
_atom_site_fract_x
_atom_site_fract_y
_atom_site_fract_z
_atom_type_partial_charge
C1    C     C_R   0.222858 0.524521 0.639811 0.559301
C2    C     C_R   0.993618 0.655214 0.573422 0.059056
C3    C     C_R   0.508078 0.169916 0.425141 0.069710
C4    C     C_R   0.493799 0.155173 0.573324 0.057751
C5    C     C_R   0.993821 0.894500 0.435061 0.427603
C6    C     C_R   0.954080 0.867718 0.575894 0.400327
C7    C     C_R   0.494015 0.394518 0.434980 0.427353
C8    C     C_R   0.454267 0.367729 0.575812 0.400066
C9    C     C_R   0.966559 0.992986 0.472252 -0.012290
C10   C     C_R   0.944249 0.978391 0.541492 -0.049627
C11   C     C_R   0.466833 0.493041 0.472195 -0.011632
C12   C     C_R   0.777106 0.522762 0.360431 0.549916
C13   C     C_R   0.444527 0.478455 0.541436 -0.049073
C14   C     C_R   0.981992 0.767023 0.539183 -0.063926
C15   C     C_R   0.995025 0.777048 0.465653 -0.070416
C16   C     C_R   0.482154 0.267007 0.539095 -0.064285
C17   C     C_R   0.495189 0.277065 0.465570 -0.069153
C18   C     C_R   0.001064 0.548245 0.531374 -0.091712
C19   C     C_R   0.023100 0.560369 0.461089 -0.076629
C20   C     C_R   0.501388 0.048221 0.531255 -0.091562
C21   C     C_R   0.523369 0.060454 0.460955 -0.075211
C22   C     C_R   0.990209 0.429332 0.558339 0.226441
C23   C     C_R   0.722850 0.024552 0.639813 0.559799
C24   C     C_R   0.053928 0.459558 0.426304 0.225541
C25   C     C_R   0.490681 0.929221 0.558175 0.226349
C26   C     C_R   0.554254 0.959772 0.426097 0.226182
C27   C     C_R   0.018437 0.328890 0.522519 0.373033
C28   C     C_R   0.051105 0.343955 0.457812 0.374737
C29   C     C_R   0.519018 0.828913 0.522311 0.372918
C30   C     C_R   0.551610 0.844144 0.457581 0.375112
C31   C     C_2   0.257468 0.935036 0.914323 0.292600
C32   C     C_2   0.739358 0.945622 0.090385 0.301324
C33   C     C_2   0.742289 0.409528 0.925011 0.289747
C34   C     C_R   0.277118 0.022814 0.360426 0.551117
C35   C     C_2   0.238183 0.443025 0.089708 0.294463
C36   C     C_2   0.252539 0.933821 0.074807 0.398223
C37   C     C_2   0.732897 0.978529 0.931892 0.411369
C38   C     C_2   0.745669 0.391545 0.087659 0.376485
C39   C     C_2   0.233435 0.477304 0.931523 0.388727
C40   C     C_R   0.226760 0.875969 0.648542 0.581098
C41   C     C_R   0.772396 0.878137 0.350382 0.569899
C42   C     C_R   0.726791 0.376032 0.648577 0.586432
C43   C     C_R   0.272412 0.378099 0.350401 0.570610
C44   C     C_2   0.226790 0.018603 0.030093 -0.117990
C45   C     C_2   0.300146 0.884727 0.544701 -0.111501
C46   C     C_2   0.762782 0.055309 0.978768 -0.134197
C47   C     C_2   0.692182 0.422434 0.044755 -0.113992
C48   C     C_2   0.260883 0.555706 0.978956 -0.125422
C49   C     C_2   0.211970 0.993740 0.956263 -0.081461
C50   C     C_2   0.781675 0.016136 0.050469 -0.051201
C51   C     C_2   0.691000 0.382038 0.971868 -0.095989
C52   C     C_2   0.278925 0.518364 0.051226 -0.055206
C53   C     C_2   0.985664 0.654531 0.912994 0.318699
C54   C     C_2   0.973790 0.654519 0.071182 0.293095
C55   C     C_2   0.499341 0.155423 0.920123 0.287967
C56   C     C_2   0.726683 0.854977 0.466462 -0.141622
C57   C     C_2   0.503009 0.155565 0.081025 0.294195
C58   C     C_2   0.955086 0.565580 0.026036 0.261030
C59   C     C_2   0.990241 0.559362 0.958339 0.283373
C60   C     C_2   0.487626 0.064385 0.035256 0.267161
C61   C     C_2   0.517782 0.066095 0.965725 0.248711
C62   C     C_R   0.026997 0.653541 0.645632 0.618469
C63   C     C_R   0.973064 0.656423 0.354160 0.607010
C64   C     C_R   0.527037 0.153530 0.645599 0.618076
C65   C     C_R   0.473088 0.156430 0.354135 0.597015
C66   C     C_R   0.225562 0.515481 0.858782 0.565794
C67   C     C_2   0.799966 0.384241 0.544595 -0.111975
C68   C     C_R   0.759965 0.462627 0.150854 0.586858
C69   C     C_R   0.725449 0.015826 0.858802 0.564887
C70   C     C_R   0.261259 0.968954 0.148014 0.593891
C71   C     C_R   0.228803 0.875705 0.851722 0.585402
C72   C     C_R   0.771006 0.876700 0.148527 0.594350
C73   C     C_R   0.727468 0.373489 0.853043 0.597531
C74   C     C_R   0.270733 0.376629 0.148541 0.594379
C75   C     C_R   0.028343 0.651398 0.849631 0.559302
C76   C     C_R   0.945077 0.648865 0.141309 0.578254
C77   C     C_R   0.529928 0.151702 0.850546 0.556157
C78   C     C_2   0.226256 0.355119 0.466338 -0.142017
C79   C     C_R   0.470387 0.151671 0.149668 0.573932
C80   C     C_2   0.243797 0.924244 0.580024 0.344523
C81   C     C_2   0.753262 0.929358 0.417655 0.356480
C82   C     C_2   0.743929 0.424498 0.580133 0.344920
C83   C     C_2   0.253287 0.429322 0.417674 0.357022
C84   C     C_2   0.278241 0.002597 0.436220 0.014287
C85   C     C_2   0.723188 0.996946 0.565354 -0.009051
C86   C     C_2   0.778231 0.502384 0.436201 0.015194
C87   C     C_2   0.223204 0.496995 0.565342 -0.008467
C88   C     C_2   0.309154 0.905875 0.468227 0.242023
C89   C     C_R   0.007931 0.669868 0.425237 0.068222
C90   C     C_2   0.730480 0.882380 0.542507 0.253679
C91   C     C_2   0.808736 0.405199 0.468078 0.241332
C92   C     C_2   0.229855 0.382314 0.542420 0.253241
Cr1   Cr    Cr6+3 0.113970 0.508630 0.747920 1.144411
Cr2   Cr    Cr6+3 0.887700 0.820070 0.250200 1.117000
Cr3   Cr    Cr6+3 0.612300 0.320070 0.749800 1.118543
Cr4   Cr    Cr6+3 0.387700 0.320070 0.250200 1.114348
Cr5   Cr    Cr6+3 0.886030 0.508630 0.252080 1.146668
Cr6   Cr    Cr6+3 0.613970 0.008630 0.747920 1.148678
Cr7   Cr    Cr6+3 0.386030 0.008630 0.252080 1.144745
Cr8   Cr    Cr6+3 0.269200 0.666740 0.749850 1.079706
Cr9   Cr    Cr6+3 0.730800 0.666740 0.250150 1.105330
Cr10  Cr    Cr6+3 0.769200 0.166740 0.749850 1.068883
Cr11  Cr    Cr6+3 0.230800 0.166740 0.250150 1.109720
Cr12  Cr    Cr6+3 0.112300 0.820070 0.749800 1.114184
F1    F     F_    0.273913 0.822275 0.052796 -0.632817
F2    F     F_    0.930994 0.856781 0.643231 -0.583385
F3    F     F_    0.523058 0.416260 0.371003 -0.563297
F4    F     F_    0.431130 0.356791 0.643129 -0.583869
F5    F     F_    0.016761 0.216712 0.551793 -0.624949
F6    F     F_    0.077580 0.244717 0.424672 -0.596520
F7    F     F_    0.517464 0.716683 0.551534 -0.624096
F8    F     F_    0.578172 0.745027 0.424391 -0.596623
F9    F     F_    0.713145 0.863705 0.950107 -0.565038
F10   F     F_    0.794057 0.307416 0.067201 -0.631877
F11   F     F_    0.216700 0.360606 0.948737 -0.587033
F12   F     F_    0.190900 0.989143 0.548093 -0.609429
F13   F     F_    0.783083 0.038372 0.435425 -0.646990
F14   F     F_    0.691294 0.490327 0.548446 -0.609097
F15   F     F_    0.283468 0.538002 0.435591 -0.646303
F16   F     F_    0.022909 0.916292 0.371111 -0.558833
H1    H     H_    0.158176 0.013936 0.938634 0.155348
H2    H     H_    0.710461 0.071217 0.529799 0.108581
H3    H     H_    0.754937 0.574574 0.466259 0.105951
H4    H     H_    0.211105 0.571633 0.529829 0.109806
H5    H     H_    0.962731 0.081117 0.447154 0.220581
H6    H     H_    0.920697 0.053974 0.569261 0.191646
H7    H     H_    0.463055 0.581190 0.447109 0.220308
H8    H     H_    0.421044 0.554086 0.569223 0.191394
H9    H     H_    0.209355 0.106669 0.049358 0.160948
H10   H     H_    0.782660 0.142850 0.961248 0.138655
H11   H     H_    0.651576 0.486173 0.060790 0.143244
H12   H     H_    0.836087 0.034764 0.066879 0.165414
H13   H     H_    0.278719 0.644763 0.961801 0.170911
H14   H     H_    0.364563 0.757163 0.460930 0.343594
H15   H     H_    0.749014 0.713052 0.564851 0.348225
H16   H     H_    0.863245 0.255510 0.460518 0.344516
H17   H     H_    0.247058 0.212507 0.564713 0.348675
H18   H     H_    0.343218 0.988883 0.962083 0.353152
H19   H     H_    0.650745 0.008799 0.053649 0.338910
H20   H     H_    0.792908 0.529142 0.982984 0.360517
H21   H     H_    0.148150 0.489900 0.045959 0.350795
H22   H     H_    0.909436 0.409465 0.008948 0.382108
H23   H     H_    0.643512 0.333188 0.954608 0.142779
H24   H     H_    0.033225 0.405006 0.986582 0.353582
H25   H     H_    0.444383 0.906259 0.014584 0.358655
H26   H     H_    0.564196 0.910640 0.984807 0.371374
H27   H     H_    0.034689 0.793866 0.093856 0.350970
H28   H     H_    0.944302 0.810303 0.887516 0.349546
H29   H     H_    0.552758 0.305960 0.103060 0.332004
H30   H     H_    0.445972 0.301627 0.898627 0.348232
H31   H     H_    0.104684 0.398988 0.344300 0.373162
H32   H     H_    0.948946 0.326912 0.631450 0.364623
H33   H     H_    0.604839 0.899405 0.343937 0.372810
H34   H     H_    0.331763 0.543670 0.069738 0.160674
H35   H     H_    0.449500 0.826534 0.631208 0.364845
H36   H     H_    0.335837 0.820638 0.570201 0.114729
H37   H     H_    0.710793 0.763627 0.451481 0.148285
H38   H     H_    0.835456 0.319637 0.569932 0.114190
H39   H     H_    0.210112 0.263934 0.451237 0.148198
H40   H     H_    0.254429 0.074453 0.466175 0.106274
O1    O     O_R   0.043230 0.549300 0.667990 -0.484524
O2    O     O_R   0.832470 0.905110 0.169660 -0.541913
O3    O     O_R   0.667530 0.405110 0.830340 -0.514520
O4    O     O_R   0.332470 0.405110 0.169660 -0.532532
O5    O     O_R   0.054010 0.748440 0.822860 -0.510336
O6    O     O_R   0.945990 0.748440 0.177140 -0.506737
O7    O     O_R   0.554010 0.248440 0.822860 -0.516938
O8    O     O_R   0.445990 0.248440 0.177140 -0.502832
O9    O     O_3   0.165160 0.665150 0.749190 -0.365250
O10   O     O_3   0.834840 0.665150 0.250810 -0.356270
O11   O     O_3   0.665160 0.165150 0.749190 -0.369235
O12   O     O_R   0.956770 0.549300 0.332010 -0.480928
O13   O     O_3   0.334840 0.165150 0.250810 -0.344413
O14   O     O_R   0.178620 0.457600 0.674100 -0.431470
O15   O     O_R   0.821380 0.457600 0.325900 -0.430380
O16   O     O_R   0.678620 0.957600 0.674100 -0.430339
O17   O     O_R   0.321380 0.957600 0.325900 -0.426304
O18   O     O_R   0.284680 0.542100 0.669460 -0.444377
O19   O     O_R   0.715320 0.542100 0.330540 -0.431449
O20   O     O_R   0.784680 0.042100 0.669460 -0.442853
O21   O     O_R   0.215320 0.042100 0.330540 -0.427377
O22   O     O_R   0.262860 0.790390 0.676650 -0.567586
O23   O     O_R   0.543230 0.049300 0.667990 -0.484112
O24   O     O_R   0.737140 0.790390 0.323350 -0.554579
O25   O     O_R   0.762860 0.290390 0.676650 -0.565180
O26   O     O_R   0.237140 0.290390 0.323350 -0.555497
O27   O     O_R   0.167460 0.907030 0.670940 -0.427093
O28   O     O_R   0.832540 0.907030 0.329060 -0.457885
O29   O     O_R   0.667460 0.407030 0.670940 -0.424121
O30   O     O_R   0.332540 0.407030 0.329060 -0.457782
O31   O     O_R   0.053950 0.750220 0.675100 -0.454316
O32   O     O_R   0.946050 0.750220 0.324900 -0.456803
O33   O     O_R   0.553950 0.250220 0.675100 -0.453521
O34   O     O_R   0.456770 0.049300 0.332010 -0.484504
O35   O     O_R   0.446050 0.250220 0.324900 -0.462803
O36   O     O_R   0.043300 0.547370 0.827390 -0.457935
O37   O     O_R   0.956700 0.547370 0.172610 -0.453499
O38   O     O_R   0.543300 0.047370 0.827390 -0.454798
O39   O     O_R   0.456700 0.047370 0.172610 -0.448516
O40   O     O_R   0.178690 0.455820 0.821860 -0.419407
O41   O     O_R   0.821310 0.455820 0.178140 -0.434552
O42   O     O_R   0.678690 0.955820 0.821860 -0.406366
O43   O     O_R   0.321310 0.955820 0.178140 -0.447353
O44   O     O_R   0.284750 0.540170 0.828860 -0.497706
O45   O     O_R   0.262920 0.788600 0.824420 -0.486383
O46   O     O_R   0.715250 0.540170 0.171140 -0.540893
O47   O     O_R   0.784750 0.040170 0.828860 -0.503048
O48   O     O_R   0.215250 0.040170 0.171140 -0.538049
O49   O     O_3   0.347006 0.822381 0.429110 -0.623567
O50   O     O_3   0.741369 0.789887 0.591004 -0.592547
O51   O     O_3   0.845860 0.321028 0.428786 -0.622989
O52   O     O_3   0.239970 0.289499 0.590882 -0.595572
O53   O     O_3   0.328527 0.920581 0.930828 -0.649199
O54   O     O_3   0.667307 0.934146 0.078031 -0.643721
O55   O     O_3   0.800560 0.482621 0.938929 -0.657463
O56   O     O_R   0.737080 0.788600 0.175580 -0.454895
O57   O     O_3   0.167194 0.421392 0.074424 -0.634082
O58   O     O_3   0.911828 0.471070 0.047307 -0.673143
O59   O     O_3   0.033074 0.459788 0.944971 -0.678626
O60   O     O_3   0.444917 0.966829 0.053529 -0.678497
O61   O     O_3   0.562830 0.972449 0.946744 -0.679872
O62   O     O_3   0.022384 0.743045 0.052086 -0.701775
O63   O     O_3   0.942294 0.752523 0.927601 -0.669957
O64   O     O_3   0.546572 0.250947 0.061769 -0.729019
O65   O     O_3   0.453975 0.247686 0.939940 -0.686972
O66   O     O_3   0.087656 0.477818 0.362772 -0.649678
O67   O     O_R   0.762920 0.288600 0.824420 -0.516942
O68   O     O_3   0.949795 0.413957 0.618086 -0.667937
O69   O     O_3   0.587843 0.978183 0.362505 -0.654632
O70   O     O_3   0.450257 0.913599 0.617891 -0.668786
O71   O     O_R   0.237080 0.288600 0.175580 -0.464082
O72   O     O_R   0.167530 0.905110 0.830340 -0.535196

loop_
_geom_bond_atom_site_label_1
_geom_bond_atom_site_label_2
_ccdc_geom_bond_type
C44   C49   S    
C1    C87   S    
C21   C26   A    
C35   C74   S    
C8    C13   A    
Cr5   O15   S    
C37   C69   S    
C2    C18   A    
C43   C83   S    
C57   C79   S    
C42   C82   S    
C3    C21   A    
Cr8   O18   S    
Cr2   O6    S    
H15   O50   S    
C33   O55   S    
C56   C81   D    
C32   C72   S    
C40   O27   A    
C3    C65   S    
C7    C11   A    
Cr7   O34   S    
Cr1   O9    S    
C29   C30   A    
Cr5   O12   S    
Cr9   O19   S    
H28   O63   S    
Cr2   O28   S    
Cr7   O17   S    
C48   C52   S    
C86   C91   D    
C60   O60   S    
C87   H4    S    
C38   F10   S    
Cr12  O72   S    
C62   O1    A    
C22   O68   S    
C20   C25   A    
Cr9   O56   S    
C83   F15   S    
C63   O32   A    
C8    F4    S    
Cr1   O14   S    
Cr11  O13   S    
Cr10  O20   S    
C34   O21   A    
C18   C19   A    
C8    C16   A    
Cr4   O30   S    
Cr6   O23   S    
H22   O58   S    
C70   O48   A    
H20   O55   S    
H21   O57   S    
Cr12  O5    S    
H32   O68   S    
C64   O23   A    
C78   C83   D    
Cr4   O35   S    
C80   F12   S    
C43   O30   A    
C16   C17   A    
C7    C17   A    
C71   O72   A    
Cr4   O8    S    
C41   O24   A    
C76   O6    A    
H29   O64   S    
C79   O8    A    
C45   C80   D    
Cr8   O22   S    
Cr10  O47   S    
Cr2   O2    S    
C36   C44   D    
C66   O44   A    
C75   O36   A    
C56   C90   S    
Cr8   O9    S    
C41   C81   S    
C69   O42   A    
Cr3   O33   S    
H14   O49   S    
Cr11  O21   S    
C87   C92   D    
C58   O58   S    
Cr11  O71   S    
C13   H8    S    
H33   O69   S    
C53   C75   S    
Cr11  O26   S    
C34   C84   S    
C31   C49   D    
C24   O66   S    
C35   O57   S    
C9    C10   A    
C67   C91   S    
C36   C70   S    
C40   O22   A    
C26   O69   S    
C53   C59   D    
C25   O70   S    
C1    O14   A    
C69   O47   A    
Cr10  O25   S    
C79   O39   A    
Cr4   O13   S    
Cr6   O38   S    
C5    F16   S    
Cr5   O37   S    
C48   H13   S    
C85   H2    S    
Cr1   O40   S    
Cr11  O48   S    
H24   O59   S    
C91   O51   S    
Cr9   O46   S    
C90   O50   S    
H26   O61   S    
C57   C60   D    
C47   C51   S    
C23   O16   A    
H17   O52   S    
C43   O26   A    
C28   F6    S    
C44   H9    S    
Cr12  O31   S    
C9    H5    S    
Cr5   O10   S    
Cr4   O4    S    
C41   O28   A    
C47   H11   S    
C60   C61   S    
C4    C16   A    
C11   H7    S    
C5    C9    A    
C56   H37   S    
C19   C89   A    
H18   O53   S    
Cr3   O3    S    
C15   C89   A    
H16   O51   S    
Cr6   O16   S    
C1    O18   A    
Cr7   O13   S    
Cr1   O1    S    
C85   C90   D    
C86   H3    S    
C49   H1    S    
C64   O33   A    
C63   C89   S    
C40   C80   S    
C6    F2    S    
Cr9   O10   S    
C75   O5    A    
C45   H36   S    
Cr10  O11   S    
Cr9   O24   S    
C32   C50   D    
C38   C47   D    
Cr8   O44   S    
H27   O62   S    
C50   H12   S    
C12   O15   A    
C54   C76   S    
Cr6   O11   S    
C81   F13   S    
C33   C73   S    
C72   O56   A    
C38   C68   S    
C26   C30   A    
C39   F11   S    
C88   O49   S    
C45   C88   S    
C68   O46   A    
C39   C66   S    
C7    F3    S    
C92   O52   S    
Cr1   O36   S    
C77   O7    A    
C82   F14   S    
Cr7   O39   S    
C35   C52   D    
C42   O25   A    
C24   C28   A    
C73   O67   A    
C65   O34   A    
C54   C58   D    
C70   O43   A    
Cr12  O27   S    
C46   C50   S    
Cr7   O43   S    
C36   F1    S    
C18   C22   A    
Cr6   O42   S    
C84   C88   D    
C77   O38   A    
Cr5   O41   S    
C74   O71   A    
Cr3   O7    S    
C46   H10   S    
Cr8   O45   S    
C84   H40   S    
C62   O31   A    
C31   O53   S    
C51   H23   S    
C33   C51   D    
C23   O20   A    
C12   O19   A    
C4    C64   S    
H35   O70   S    
Cr2   O32   S    
C12   C86   S    
C53   O63   S    
C22   C27   A    
C78   C92   S    
C55   O65   S    
C19   C24   A    
C58   C59   S    
C32   O54   S    
C68   O41   A    
C6    C14   A    
C59   O59   S    
Cr2   O10   S    
C74   O4    A    
C11   C13   A    
C42   O29   A    
C25   C29   A    
C63   O12   A    
H25   O60   S    
Cr3   O11   S    
C76   O37   A    
C55   C77   S    
C55   C61   D    
C31   C71   S    
Cr10  O67   S    
C3    C17   A    
C67   H38   S    
C29   F7    S    
C2    C14   A    
C61   O61   S    
C5    C15   A    
C54   O62   S    
C6    C10   A    
Cr3   O29   S    
C4    C20   A    
C78   H39   S    
C71   O45   A    
H31   O66   S    
C37   F9    S    
C20   C21   A    
C27   F5    S    
C67   C82   D    
C73   O3    A    
C23   C85   S    
C30   F8    S    
C27   C28   A    
H30   O65   S    
C72   O2    A    
C14   C15   A    
C39   C48   D    
C34   O17   A    
H19   O54   S    
C37   C46   D    
C10   H6    S    
C52   H34   S    
C66   O40   A    
C2    C62   S    
Cr12  O9    S    
C65   O35   A    
C57   O64   S    
