data_mof_unit_59882.cif
_audit_creation_date              2012-12-10T17:02:59-0500
_audit_creation_method            fapswitch 2.2
_symmetry_space_group_name_H-M    P1
_symmetry_Int_Tables_number       1
_space_group_crystal_system       triclinic
_cell_length_a                    9.85484
_cell_length_b                    10.99071
_cell_length_c                    13.408935
_cell_angle_alpha                 95.104896
_cell_angle_beta                  81.294995
_cell_angle_gamma                 111.353055
_cell_volume                      1336.1605638

loop_
_atom_site_label
_atom_site_type_symbol
_atom_type_description
_atom_site_fract_x
_atom_site_fract_y
_atom_site_fract_z
_atom_type_partial_charge
C1    C     C_R   0.558040 0.746210 0.504749 0.832901
C2    C     C_R   0.437520 0.500064 0.972538 0.115460
C3    C     C_R   0.476137 0.541125 0.871477 0.082844
C4    C     C_R   0.547269 0.542547 0.039020 0.012031
C5    C     C_R   0.688625 0.634996 0.007029 0.043875
C6    C     C_R   0.718006 0.684840 0.910662 -0.184656
C7    C     C_R   0.613352 0.639820 0.844488 -0.193317
C8    C     C_R   0.520890 0.494789 0.136313 -0.247981
C9    C     C_R   0.765607 0.630572 0.170366 -0.284793
C10   C     C_R   0.375703 0.483019 0.800176 -0.106503
C11   C     C_2   0.595404 0.887949 0.501974 -0.276184
C12   C     C_R   0.423325 0.492546 0.690737 0.791174
C13   C     C_2   0.514465 0.936299 0.454697 0.475270
C14   C     C_2   0.419877 0.115320 0.473502 -0.309208
C15   C     C_2   0.533934 0.075206 0.466394 -0.255330
C16   C     C_2   0.922064 0.487988 0.492158 -0.104307
C17   C     C_2   0.074398 0.506605 0.512122 0.082739
C18   C     C_R   0.444937 0.254393 0.489288 0.839714
C19   C     C_R   0.578137 0.514421 0.309811 0.801734
C20   C     C_R   0.797390 0.678835 0.073030 0.500722
C21   C     C_R   0.626009 0.542047 0.202874 -0.122023
C22   C     C_R   0.232094 0.400956 0.833155 -0.149365
C23   C     C_R   0.189061 0.372180 0.934244 -0.141187
C24   C     C_R   0.290299 0.418835 0.003123 -0.181254
Cu1   Cu    Cu3+1 0.362000 0.479240 0.482530 0.990197
Cu2   Cu    Cu3+1 0.638000 0.520760 0.517470 0.972008
H1    H     H_    0.847766 0.667011 0.221718 0.174322
H2    H     H_    0.309568 0.046421 0.466849 0.205984
H3    H     H_    0.874115 0.418445 0.433084 0.158668
H4    H     H_    0.110209 0.390204 0.395962 0.189550
H5    H     H_    0.890332 0.619595 0.598938 0.220191
H6    H     H_    0.822657 0.759114 0.885622 0.197517
H7    H     H_    0.417975 0.421195 0.163500 0.156215
H8    H     H_    0.153762 0.355496 0.780138 0.192694
H9    H     H_    0.248564 0.391425 0.080007 0.126621
H10   H     H_    0.077436 0.309549 0.958957 0.148518
H11   H     H_    0.640772 0.685884 0.772557 0.188863
H12   H     H_    0.642737 0.145941 0.473016 0.197849
N1    N     N_2   0.845330 0.551960 0.543750 -0.273908
N2    N     N_2   0.154690 0.448120 0.456210 -0.330402
O1    O     O_R   0.426290 0.668220 0.490680 -0.500451
O2    O     O_R   0.659360 0.703290 0.520190 -0.573393
O3    O     O_R   0.326580 0.473880 0.629020 -0.565984
O4    O     O_R   0.559660 0.508940 0.658530 -0.569710
O5    O     O_R   0.340640 0.296710 0.479810 -0.573609
O6    O     O_R   0.573710 0.331780 0.509320 -0.566409
O7    O     O_R   0.440340 0.491060 0.341470 -0.580243
O8    O     O_R   0.673420 0.526120 0.370980 -0.583203
O9    O     O_3   0.399798 0.853799 0.404675 -0.524438
C25   C     C_3   0.451208 0.852570 0.300757 -0.269205
H13   H     H_    0.484304 0.951202 0.269510 0.153047
H14   H     H_    0.360723 0.785029 0.260454 0.194909
H15   H     H_    0.544036 0.815711 0.285679 0.136109
C26   C     C_2   0.723783 0.973251 0.552354 0.802369
O10   O     O_2   0.733924 0.950738 0.638069 -0.579303
O11   O     O_R   0.836142 0.074316 0.500260 -0.791775
H16   H     H_    0.917855 0.123973 0.542390 0.344416
C27   C     C_2   0.128668 0.591384 0.600125 0.920586
O12   O     O_2   0.195336 0.708434 0.590151 -0.570417
O13   O     O_R   0.086154 0.540250 0.696391 -0.780245
H17   H     H_    0.124261 0.608484 0.751416 0.331612
O14   O     O_3   0.936297 0.766075 0.041350 -0.576568
C28   C     C_3   0.947505 0.891414 0.082739 -0.340922
H18   H     H_    0.860797 0.922763 0.061019 0.155564
H19   H     H_    0.055444 0.962623 0.052200 0.202448
H20   H     H_    0.942865 0.895212 0.166339 0.167577

loop_
_geom_bond_atom_site_label_1
_geom_bond_atom_site_label_2
_ccdc_geom_bond_type
C25   H14   S    
C23   C24   A    
C28   H19   S    
C15   H12   S    
O14   C28   S    
C14   C18   S    
C9    C20   A    
C6    H6    S    
C1    C11   S    
Cu2   O8    S    
C17   C27   S    
C4    C8    A    
Cu1   N2    S    
Cu1   O3    S    
C25   H13   S    
C7    H11   S    
C28   H20   S    
Cu2   O4    S    
C12   O4    A    
C3    C10   A    
C10   C22   A    
C20   O14   S    
C11   C13   D    
C9    C21   A    
C6    C7    A    
C11   C26   S    
C10   C12   S    
O13   H17   S    
C13   O9    S    
C2    C4    A    
C18   O6    A    
C1    O1    A    
C19   C21   S    
H5    N1    S    
C2    C3    A    
C12   O3    A    
C26   O11   S    
C8    H7    S    
C13   C15   S    
Cu2   O2    S    
C2    C24   A    
C5    C6    A    
C22   H8    S    
C5    C20   A    
C19   O7    A    
Cu2   N1    S    
C27   O12   D    
C24   H9    S    
Cu2   O6    S    
C16   N1    D    
C27   O13   S    
C28   H18   S    
C25   H15   S    
C18   O5    A    
Cu1   O5    S    
C1    O2    A    
H4    N2    S    
O11   H16   S    
C9    H1    S    
C16   H3    S    
C23   H10   S    
Cu1   O1    S    
O9    C25   S    
Cu1   O7    S    
C26   O10   D    
C16   C17   S    
C19   O8    A    
C3    C7    A    
C14   H2    S    
Cu1   Cu2   S    
C14   C15   D    
C22   C23   A    
C4    C5    A    
C17   N2    D    
C8    C21   A    
