data_mof_unit_14506.cif
_audit_creation_date              2012-12-10T17:16:35-0500
_audit_creation_method            fapswitch 2.2
_symmetry_space_group_name_H-M    P1
_symmetry_Int_Tables_number       1
_space_group_crystal_system       triclinic
_cell_length_a                    10.101997
_cell_length_b                    10.60532
_cell_length_c                    10.672118
_cell_angle_alpha                 89.429539
_cell_angle_beta                  97.784817
_cell_angle_gamma                 78.314164
_cell_volume                      1108.51483656

loop_
_atom_site_label
_atom_site_type_symbol
_atom_type_description
_atom_site_fract_x
_atom_site_fract_y
_atom_site_fract_z
_atom_type_partial_charge
C1    C     C_R   0.439773 0.506426 0.265437 1.055435
C2    C     C_R   0.491418 0.742234 0.485685 0.958802
C3    C     C_R   0.745580 0.062240 0.445305 -0.045018
C4    C     C_R   0.255031 0.937755 0.555837 -0.042876
C5    C     C_R   0.819589 0.994286 0.356531 0.006636
C6    C     C_R   0.181318 0.005621 0.644861 0.015479
C7    C     C_R   0.766992 0.898735 0.290202 -0.234141
C8    C     C_R   0.234084 0.101133 0.711118 -0.253518
C9    C     C_R   0.647564 0.864966 0.318452 0.432214
C10   C     C_R   0.353334 0.135000 0.682524 0.434116
C11   C     C_R   0.579127 0.926526 0.416199 -0.007200
C12   C     C_R   0.560114 0.494295 0.734400 0.949292
C13   C     C_R   0.421442 0.073486 0.584584 0.004001
C14   C     C_R   0.617928 0.036690 0.466882 0.005392
C15   C     C_R   0.382586 0.963318 0.533955 0.005428
C16   C     C_R   0.474080 0.881275 0.465504 -0.163964
C17   C     C_R   0.526284 0.118791 0.535090 -0.166734
C18   C     C_2   0.948776 0.025660 0.328045 0.426633
C19   C     C_2   0.052249 0.974215 0.673641 0.415287
C20   C     C_2   0.434390 0.678635 0.917457 0.489482
C21   C     C_2   0.567504 0.326317 0.081838 0.586249
C22   C     C_2   0.749857 0.442254 0.921993 0.368288
C23   C     C_2   0.396223 0.511606 0.128837 -0.228965
C24   C     C_2   0.252461 0.566872 0.073372 0.374606
C25   C     C_2   0.603934 0.492347 0.870375 -0.205918
C26   C     C_2   0.490263 0.462987 0.055009 -0.116702
C27   C     C_2   0.510187 0.541560 0.944278 -0.028252
C28   C     C_2   0.072902 0.490092 0.489129 -0.065593
C29   C     C_2   0.927063 0.510012 0.510768 -0.112753
C30   C     C_R   0.508655 0.257803 0.514483 0.951938
Cl1   Cl    Cl    0.575461 0.762008 0.214222 -0.630835
Cl2   Cl    Cl    0.425763 0.237996 0.786532 -0.694853
H1    H     H_    0.183034 0.149011 0.785927 0.166767
H2    H     H_    0.994363 0.031543 0.739327 0.063245
H3    H     H_    0.368598 0.727477 0.981532 0.096029
H4    H     H_    0.637512 0.279723 0.020171 0.085500
H5    H     H_    0.818912 0.389060 0.862373 0.076802
H6    H     H_    0.219090 0.556124 0.973674 0.089094
H7    H     H_    0.818290 0.850775 0.215568 0.190319
H8    H     H_    0.791072 0.131667 0.500022 0.181380
H9    H     H_    0.209332 0.868437 0.501160 0.188472
H10   H     H_    0.890603 0.577813 0.580134 0.179965
H11   H     H_    0.109342 0.422353 0.419704 0.191447
H12   H     H_    0.880369 0.385361 0.383310 0.227841
H13   H     H_    0.119640 0.614603 0.616722 0.204663
H14   H     H_    0.006935 0.968193 0.262628 0.086441
N1    N     N_2   0.157300 0.551390 0.551120 -0.188865
N2    N     N_2   0.842700 0.448610 0.448880 -0.177639
O1    O     O_R   0.568940 0.489660 0.307530 -0.549314
O2    O     O_2   0.009438 0.883692 0.625436 -0.606319
O3    O     O_2   0.450391 0.741647 0.826243 -0.566391
O4    O     O_2   0.548265 0.261157 0.170111 -0.585187
O5    O     O_2   0.794764 0.462634 0.030368 -0.516581
O6    O     O_2   0.170473 0.624754 0.137701 -0.532223
O7    O     O_R   0.431060 0.510340 0.692470 -0.551832
O8    O     O_R   0.348880 0.522640 0.340350 -0.588278
O9    O     O_R   0.651120 0.477360 0.659650 -0.648632
O10   O     O_R   0.610030 0.300280 0.483580 -0.626755
O11   O     O_R   0.389970 0.699720 0.516420 -0.618202
O12   O     O_R   0.389970 0.333270 0.516400 -0.593165
O13   O     O_R   0.610030 0.666730 0.483600 -0.588895
O14   O     O_2   0.991378 0.116315 0.376190 -0.607117
Zn1   Zn    Zn3+2 0.646940 0.477980 0.478080 1.011188
Zn2   Zn    Zn3+2 0.353060 0.522020 0.521920 1.024286

loop_
_geom_bond_atom_site_label_1
_geom_bond_atom_site_label_2
_ccdc_geom_bond_type
C24   H6    S    
C23   C24   S    
O8    Zn2   S    
C28   N1    D    
O9    Zn1   S    
O1    Zn1   S    
C20   C27   S    
C10   Cl2   S    
C29   H10   S    
C25   C27   D    
C2    C16   S    
C11   C16   A    
C28   H11   S    
C14   C17   A    
C2    O13   A    
C13   C17   A    
C12   C25   S    
O12   Zn2   S    
O7    Zn2   S    
C21   O4    D    
C4    C15   A    
H13   N1    S    
C26   C27   S    
C21   H4    S    
C10   C13   A    
C6    C19   S    
C9    C11   A    
C19   O2    D    
O11   Zn2   S    
C3    C14   A    
C17   C30   S    
C12   O9    A    
C30   O10   A    
C4    C6    A    
C28   C29   S    
C21   C26   S    
C3    H8    S    
C1    C23   S    
C20   O3    D    
C7    C9    A    
C8    H1    S    
C13   C15   A    
C11   C14   A    
C20   H3    S    
C12   O7    A    
C4    H9    S    
C9    Cl1   S    
C29   N2    D    
C24   O6    D    
C15   C16   A    
C22   C25   S    
C18   H14   S    
N1    Zn2   S    
C22   O5    D    
O13   Zn1   S    
C23   C26   D    
O10   Zn1   S    
C5    C7    A    
C7    H7    S    
C2    O11   A    
C18   O14   D    
N2    Zn1   S    
C6    C8    A    
C5    C18   S    
C22   H5    S    
C1    O1    A    
C1    O8    A    
C8    C10   A    
H12   N2    S    
C3    C5    A    
C19   H2    S    
C30   O12   A    
