data_mof_unit_62537.cif
_audit_creation_date              2012-12-10T18:07:34-0500
_audit_creation_method            fapswitch 2.2
_symmetry_space_group_name_H-M    P1
_symmetry_Int_Tables_number       1
_space_group_crystal_system       triclinic
_cell_length_a                    18.373985
_cell_length_b                    18.373985
_cell_length_c                    30.26065
_cell_angle_alpha                 90.000025
_cell_angle_beta                  90.00003
_cell_angle_gamma                 90.0
_cell_volume                      10216.09605

loop_
_atom_site_label
_atom_site_type_symbol
_atom_type_description
_atom_site_fract_x
_atom_site_fract_y
_atom_site_fract_z
_atom_type_partial_charge
Br1   Br    Br    0.073754 0.362583 0.375929 -0.472889
Br2   Br    Br    0.137417 0.573755 0.875929 -0.472889
Br3   Br    Br    0.426245 0.137417 0.875929 -0.472889
Br4   Br    Br    0.862583 0.426245 0.875929 -0.472889
Br5   Br    Br    0.573755 0.137417 0.124071 -0.472889
Br6   Br    Br    0.137417 0.426245 0.124071 -0.472889
Br7   Br    Br    0.426245 0.862583 0.124071 -0.472889
Br8   Br    Br    0.862582 0.573754 0.124071 -0.472890
Br9   Br    Br    0.637417 0.073755 0.375929 -0.472889
Br10  Br    Br    0.926246 0.637417 0.375929 -0.472889
Br11  Br    Br    0.362583 0.926245 0.375929 -0.472888
Br12  Br    Br    0.073755 0.637417 0.624071 -0.472889
Br13  Br    Br    0.637417 0.926246 0.624071 -0.472890
Br14  Br    Br    0.926246 0.362582 0.624070 -0.472889
Br15  Br    Br    0.362582 0.073754 0.624071 -0.472890
Br16  Br    Br    0.573755 0.862583 0.875929 -0.472889
C1    C     C_R   0.139889 0.500000 1.000000 0.877242
C2    C     C_1   0.500000 0.217440 1.000000 -0.092909
C3    C     C_R   0.090999 0.597460 0.773102 0.150957
C4    C     C_R   0.402540 0.909001 0.226897 0.150957
C5    C     C_R   0.909001 0.597460 0.226897 0.150957
C6    C     C_R   0.597460 0.090999 0.226898 0.150957
C7    C     C_R   0.090999 0.402540 0.226897 0.150957
C8    C     C_1   0.782559 0.500000 0.000000 -0.092909
C9    C     C_1   0.500000 0.782559 0.000000 -0.092909
C10   C     C_1   0.717440 0.000000 0.500000 -0.092909
C11   C     C_1   0.000000 0.717440 0.500000 -0.092909
C12   C     C_1   0.282560 0.000000 0.500000 -0.092909
C13   C     C_1   0.000000 0.282560 0.500000 -0.092909
C14   C     C_R   0.000000 0.500000 0.085632 0.902870
C15   C     C_R   0.500000 1.000000 0.085632 0.902869
C16   C     C_R   0.000000 0.500000 0.914368 0.902870
C17   C     C_R   0.500000 0.139889 1.000000 0.877242
C18   C     C_R   0.500000 0.000000 0.914368 0.902870
C19   C     C_R   0.500000 0.000000 0.585632 0.902870
C20   C     C_R   0.000000 0.500000 0.585632 0.902870
C21   C     C_R   0.500000 1.000000 0.414368 0.902870
C22   C     C_R   1.000000 0.500000 0.414368 0.902871
C23   C     C_1   0.282745 0.500000 1.000000 -0.117891
C24   C     C_1   0.500000 0.282745 1.000000 -0.117891
C25   C     C_1   0.717255 0.500000 0.000000 -0.117891
C26   C     C_1   0.500000 0.717255 0.000000 -0.117891
C27   C     C_1   0.782745 0.000000 0.500000 -0.117891
C28   C     C_R   0.860111 0.500000 0.000000 0.877243
C29   C     C_1   0.000000 0.782745 0.500000 -0.117891
C30   C     C_1   0.217255 0.000000 0.500000 -0.117891
C31   C     C_1   0.000000 0.217255 0.500000 -0.117891
C32   C     C_R   0.500000 0.360310 1.000000 0.825157
C33   C     C_R   0.639690 0.500000 0.000000 0.825156
C34   C     C_R   0.500000 0.639690 0.000000 0.825156
C35   C     C_R   0.360310 0.500000 1.000000 0.825157
C36   C     C_R   0.000000 0.860310 0.500000 0.825157
C37   C     C_R   0.139689 0.000000 0.500000 0.825156
C38   C     C_R   0.000000 0.139689 0.500000 0.825156
C39   C     C_R   0.500000 0.860111 0.000000 0.877243
C40   C     C_R   0.860310 1.000000 0.500000 0.825157
C41   C     C_R   0.040209 0.447215 0.343221 0.188320
C42   C     C_R   0.552785 0.040209 0.343221 0.188320
C43   C     C_R   0.959791 0.552785 0.343221 0.188319
C44   C     C_R   0.447215 0.959790 0.343221 0.188320
C45   C     C_R   0.040209 0.552785 0.656779 0.188320
C46   C     C_R   0.552785 0.959791 0.656779 0.188319
C47   C     C_R   0.959791 0.447215 0.656779 0.188320
C48   C     C_R   0.447215 0.040209 0.656779 0.188319
C49   C     C_R   0.540209 0.947215 0.843221 0.188320
C50   C     C_R   0.639889 1.000000 0.500000 0.877242
C51   C     C_R   0.052785 0.540209 0.843221 0.188320
C52   C     C_R   0.459791 0.052785 0.843221 0.188319
C53   C     C_R   0.947215 0.459790 0.843221 0.188320
C54   C     C_R   0.540209 0.052785 0.156779 0.188320
C55   C     C_R   0.052785 0.459791 0.156779 0.188319
C56   C     C_R   0.459791 0.947215 0.156779 0.188321
C57   C     C_R   0.947215 0.540209 0.156779 0.188319
C58   C     C_R   1.000000 0.500000 0.366088 -0.192315
C59   C     C_R   0.500000 1.000000 0.366088 -0.192316
C60   C     C_R   0.000000 0.500000 0.633912 -0.192315
C61   C     C_R   1.000000 0.639889 0.500000 0.877243
C62   C     C_R   0.500000 0.000000 0.633912 -0.192315
C63   C     C_R   0.500000 1.000000 0.866088 -0.192315
C64   C     C_R   0.000000 0.500000 0.866088 -0.192316
C65   C     C_R   0.500000 1.000000 0.133912 -0.192316
C66   C     C_R   1.000000 0.500000 0.133912 -0.192315
C67   C     C_R   0.953235 0.548027 0.296771 0.011228
C68   C     C_R   0.451973 0.953235 0.296771 0.011227
C69   C     C_R   0.046765 0.451973 0.296771 0.011228
C70   C     C_R   0.548027 0.046765 0.296771 0.011228
C71   C     C_R   0.953236 0.451972 0.703229 0.011228
C72   C     C_R   0.360111 0.000000 0.500000 0.877243
C73   C     C_R   0.451973 0.046765 0.703229 0.011228
C74   C     C_R   0.046765 0.548027 0.703229 0.011228
C75   C     C_R   0.548027 0.953235 0.703229 0.011228
C76   C     C_R   0.453235 0.048027 0.796771 0.011228
C77   C     C_R   0.951973 0.453235 0.796771 0.011227
C78   C     C_R   0.546765 0.951973 0.796771 0.011228
C79   C     C_R   0.048027 0.546765 0.796771 0.011228
C80   C     C_R   0.453235 0.951973 0.203229 0.011228
C81   C     C_R   0.951973 0.546765 0.203229 0.011228
C82   C     C_R   0.546765 0.048027 0.203229 0.011228
C83   C     C_R   0.000000 0.360111 0.500000 0.877243
C84   C     C_R   0.048027 0.453235 0.203229 0.011228
C85   C     C_R   1.000000 0.500000 0.273373 -0.064428
C86   C     C_R   0.500000 1.000000 0.273373 -0.064429
C87   C     C_R   0.000000 0.500000 0.726627 -0.064428
C88   C     C_R   0.500000 0.000000 0.726627 -0.064428
C89   C     C_R   0.500000 0.000000 0.773373 -0.064428
C90   C     C_R   0.000000 0.500000 0.773373 -0.064428
C91   C     C_R   0.500000 1.000000 0.226627 -0.064429
C92   C     C_R   1.000000 0.500000 0.226627 -0.064428
C93   C     C_R   0.902540 0.590999 0.273102 0.150957
C94   C     C_1   0.217440 0.500000 1.000000 -0.092909
C95   C     C_R   0.409001 0.902540 0.273102 0.150957
C96   C     C_R   0.097460 0.409001 0.273102 0.150957
C97   C     C_R   0.590999 0.097460 0.273102 0.150957
C98   C     C_R   0.902540 0.409000 0.726897 0.150957
C99   C     C_R   0.409000 0.097460 0.726897 0.150957
C100  C     C_R   0.097460 0.590999 0.726898 0.150957
C101  C     C_R   0.590999 0.902540 0.726897 0.150957
C102  C     C_R   0.402540 0.090999 0.773102 0.150957
C103  C     C_R   0.909001 0.402539 0.773102 0.150957
C104  C     C_R   0.597460 0.909001 0.773102 0.150957
Cu1   Cu    Cu3+1 0.000000 0.572490 0.000000 1.064088
Cu2   Cu    Cu3+1 0.500000 0.500000 0.955520 1.048566
Cu3   Cu    Cu3+1 1.000000 1.000000 0.544480 1.048566
Cu4   Cu    Cu3+1 1.000000 0.000000 0.455520 1.048566
Cu5   Cu    Cu3+1 0.427510 0.000000 0.000000 1.064088
Cu6   Cu    Cu3+1 0.000000 0.427510 0.000000 1.064088
Cu7   Cu    Cu3+1 0.572490 0.000000 0.000000 1.064088
Cu8   Cu    Cu3+1 0.500000 0.072490 0.500000 1.064087
Cu9   Cu    Cu3+1 0.927510 0.500000 0.500000 1.064088
Cu10  Cu    Cu3+1 0.500000 0.927510 0.500000 1.064088
Cu11  Cu    Cu3+1 0.072490 0.500000 0.500000 1.064088
Cu12  Cu    Cu3+1 0.500000 0.500000 0.044480 1.048566
H1    H     H_    0.799558 0.635564 0.272794 0.233000
H2    H     H_    0.816601 0.419102 0.685794 0.242180
H3    H     H_    0.364436 0.200441 0.727206 0.233000
H4    H     H_    0.419102 0.183399 0.685794 0.242180
H5    H     H_    0.200441 0.635565 0.727207 0.233000
H6    H     H_    0.183400 0.580897 0.685794 0.242180
H7    H     H_    0.635564 0.799559 0.727206 0.233000
H8    H     H_    0.580897 0.816600 0.685794 0.242180
H9    H     H_    0.299558 0.135564 0.772794 0.233000
H10   H     H_    0.316601 0.080897 0.814206 0.242180
H11   H     H_    0.864437 0.299557 0.772793 0.232999
H12   H     H_    0.816601 0.580897 0.314206 0.242180
H13   H     H_    0.919104 0.316600 0.814206 0.242180
H14   H     H_    0.700442 0.864436 0.772794 0.233000
H15   H     H_    0.683400 0.919103 0.814206 0.242180
H16   H     H_    0.135564 0.700442 0.772794 0.233000
H17   H     H_    0.080896 0.683400 0.814206 0.242179
H18   H     H_    0.299559 0.864435 0.227206 0.233000
H19   H     H_    0.316600 0.919104 0.185794 0.242179
H20   H     H_    0.864436 0.700442 0.227206 0.233000
H21   H     H_    0.919103 0.683399 0.185794 0.242180
H22   H     H_    0.700442 0.135564 0.227207 0.233000
H23   H     H_    0.364436 0.799558 0.272793 0.233000
H24   H     H_    0.683400 0.080896 0.185794 0.242179
H25   H     H_    0.135564 0.299558 0.227206 0.233000
H26   H     H_    0.080897 0.316600 0.185794 0.242180
H27   H     H_    0.419104 0.816600 0.314205 0.242179
H28   H     H_    0.200441 0.364435 0.272794 0.233000
H29   H     H_    0.183400 0.419103 0.314206 0.242180
H30   H     H_    0.635564 0.200442 0.272794 0.233000
H31   H     H_    0.580896 0.183400 0.314206 0.242179
H32   H     H_    0.799559 0.364434 0.727206 0.233000
N1    N     N_3   0.840479 0.622215 0.295347 -0.509988
N2    N     N_3   0.877787 0.340478 0.795347 -0.509988
N3    N     N_3   0.659521 0.877786 0.795347 -0.509988
N4    N     N_3   0.122214 0.659521 0.795347 -0.509987
N5    N     N_3   0.340479 0.877786 0.204653 -0.509988
N6    N     N_3   0.877786 0.659521 0.204653 -0.509988
N7    N     N_3   0.659521 0.122214 0.204653 -0.509987
N8    N     N_3   0.122214 0.340479 0.204653 -0.509988
N9    N     N_3   0.377786 0.840479 0.295347 -0.509987
N10   N     N_3   0.159521 0.377786 0.295347 -0.509988
N11   N     N_3   0.622214 0.159521 0.295347 -0.509988
N12   N     N_3   0.840480 0.377785 0.704653 -0.509987
N13   N     N_3   0.377785 0.159521 0.704653 -0.509988
N14   N     N_3   0.159521 0.622214 0.704653 -0.509988
N15   N     N_3   0.622214 0.840479 0.704653 -0.509988
N16   N     N_3   0.340479 0.122214 0.795347 -0.509988
O1    O     O_R   0.105780 0.561220 0.000020 -0.570942
O2    O     O_R   0.938780 0.605780 0.500020 -0.570942
O3    O     O_R   0.394220 0.938780 0.500020 -0.570942
O4    O     O_R   0.061220 0.394220 0.500020 -0.570943
O5    O     O_R   0.605780 0.938780 0.499980 -0.570942
O6    O     O_R   0.938780 0.394220 0.499980 -0.570942
O7    O     O_R   0.394220 0.061220 0.499980 -0.570943
O8    O     O_R   0.061220 0.605780 0.499980 -0.570943
O9    O     O_R   0.999940 0.561230 0.064880 -0.564138
O10   O     O_R   0.438770 0.999940 0.064880 -0.564137
O11   O     O_R   0.000060 0.438770 0.064880 -0.564137
O12   O     O_R   0.438780 0.105780 0.000020 -0.570942
O13   O     O_R   0.561230 0.000060 0.064880 -0.564137
O14   O     O_R   0.999940 0.438770 0.935120 -0.564137
O15   O     O_R   0.438770 0.000060 0.935120 -0.564137
O16   O     O_R   0.000060 0.561230 0.935120 -0.564137
O17   O     O_R   0.561230 0.999940 0.935120 -0.564137
O18   O     O_R   0.499940 0.061230 0.564880 -0.564138
O19   O     O_R   0.938770 0.499940 0.564880 -0.564137
O20   O     O_R   0.500060 0.938770 0.564880 -0.564137
O21   O     O_R   0.061230 0.500060 0.564880 -0.564137
O22   O     O_R   0.499940 0.938770 0.435120 -0.564137
O23   O     O_R   0.894220 0.438780 0.000020 -0.570942
O24   O     O_R   0.938770 0.500060 0.435120 -0.564137
O25   O     O_R   0.500060 0.061230 0.435120 -0.564137
O26   O     O_R   0.061230 0.499940 0.435120 -0.564137
O27   O     O_R   0.499980 0.394200 0.037580 -0.570776
O28   O     O_R   0.605800 0.499980 0.037580 -0.570776
O29   O     O_R   0.500020 0.605800 0.037580 -0.570776
O30   O     O_R   0.394200 0.500020 0.037580 -0.570776
O31   O     O_R   0.499980 0.605800 0.962420 -0.570775
O32   O     O_R   0.605800 0.500020 0.962420 -0.570775
O33   O     O_R   0.500020 0.394200 0.962420 -0.570775
O34   O     O_R   0.561220 0.894220 0.000020 -0.570943
O35   O     O_R   0.394200 0.499980 0.962420 -0.570775
O36   O     O_R   0.999980 0.894200 0.537580 -0.570776
O37   O     O_R   0.105800 0.999980 0.537580 -0.570776
O38   O     O_R   0.000020 0.105800 0.537580 -0.570776
O39   O     O_R   0.894200 0.000020 0.537580 -0.570776
O40   O     O_R   0.999980 0.105800 0.462420 -0.570775
O41   O     O_R   0.105800 0.000020 0.462420 -0.570775
O42   O     O_R   0.000020 0.894200 0.462420 -0.570775
O43   O     O_R   0.894200 0.999980 0.462420 -0.570775
O44   O     O_R   0.105780 0.438780 0.999980 -0.570942
O45   O     O_R   0.438780 0.894220 0.999980 -0.570942
O46   O     O_R   0.894220 0.561220 0.999980 -0.570943
O47   O     O_R   0.561220 0.105780 0.999980 -0.570943
O48   O     O_R   0.605780 0.061220 0.500020 -0.570943

loop_
_geom_bond_atom_site_label_1
_geom_bond_atom_site_label_2
_ccdc_geom_bond_type
C18   O15   A    
C96   N10   S    
Cu9   O2    S    
Cu4   O40   S    
C78   C89   A    
C36   O42   A    
C49   C63   A    
C100  N14   S    
H9    N16   S    
C68   C86   A    
C23   C35   S    
Br3   C52   S    
C18   O17   A    
C20   O19   A    
C75   C88   A    
H14   N3    S    
C69   C96   A    
H31   N11   S    
C1    C94   S    
C39   O34   A    
C73   C99   A    
Cu10  O5    S    
C3    C79   A    
Cu3   Cu4   S    
H19   N5    S    
Br1   C41   S    
C57   C81   A    
C7    C96   A    
C15   O10   A    
C12   C30   T    
H2    N12   S    
C13   C31   T    
C17   O12   A    
C6    C82   A    
C43   C67   A    
Br15  C48   S    
C56   C65   A    
C53   C77   A    
Cu10  O3    S    
Cu7   O13   S    
H25   N8    S    
Cu1   O9    S    
C18   C63   S    
Cu5   O45   S    
H18   N5    S    
C47   C60   A    
Cu5   O15   S    
C37   O41   A    
C5    N6    S    
Cu8   O7    S    
Cu7   O17   S    
C36   O36   A    
H8    N15   S    
H20   N6    S    
Cu2   O35   S    
C30   C37   S    
Br9   C42   S    
C14   O9    A    
Cu2   Cu12  S    
C54   C65   A    
C2    C24   T    
C88   C89   A    
C71   C98   A    
C76   C102  A    
C20   C60   S    
C81   C92   A    
C78   C104  A    
C6    C97   A    
H10   N16   S    
C7    N8    S    
C34   O29   A    
H21   N6    S    
C19   O20   A    
C28   O23   A    
C21   O22   A    
C67   C93   A    
Cu5   O10   S    
C74   C100  A    
Cu5   O12   S    
C67   C85   A    
Cu1   O16   S    
C98   C103  A    
Cu10  O22   S    
C16   O16   A    
C97   N11   S    
C55   C66   A    
Cu11  O8    S    
H23   N9    S    
C85   C92   A    
C98   N12   S    
C7    C84   A    
C21   C59   S    
C4    C80   A    
C22   O24   A    
Cu3   O36   S    
C51   C79   A    
C8    C25   T    
Cu9   O24   S    
H17   N4    S    
H28   N10   S    
C48   C73   A    
Cu10  O20   S    
C42   C70   A    
C25   C33   S    
Br4   C53   S    
C42   C59   A    
C38   O38   A    
H13   N2    S    
C23   C94   T    
C45   C60   A    
C37   O37   A    
Br6   C55   S    
C84   C92   A    
C68   C95   A    
H5    N14   S    
C10   C50   S    
Cu12  O30   S    
H3    N13   S    
C16   O14   A    
Br2   C51   S    
C101  C104  A    
Br7   C56   S    
C15   O13   A    
C13   C83   S    
C72   O3    A    
H30   N11   S    
C29   C36   S    
C11   C61   S    
H4    N13   S    
Cu1   O46   S    
C41   C58   A    
C14   C66   S    
C101  N15   S    
H11   N2    S    
C12   C72   S    
Br5   C54   S    
H15   N3    S    
C79   C90   A    
H1    N1    S    
C77   C90   A    
C16   C64   S    
C4    C95   A    
C5    C81   A    
Cu11  O4    S    
Cu6   O14   S    
Cu4   O43   S    
C43   C58   A    
C33   O28   A    
Cu8   O48   S    
C99   C102  A    
C46   C75   A    
C75   C101  A    
C61   O2    A    
C86   C91   A    
C99   N13   S    
C14   O11   A    
C103  N2    S    
C83   O4    A    
Cu9   O19   S    
C93   N1    S    
C6    N7    S    
C26   C34   S    
C31   C38   S    
C71   C87   A    
Br13  C46   S    
C10   C27   T    
C72   O7    A    
Cu3   O38   S    
Cu4   O42   S    
C34   O31   A    
Cu12  O28   S    
Cu11  O21   S    
C70   C97   A    
C73   C88   A    
H27   N9    S    
C8    C28   S    
Cu2   O32   S    
C20   O21   A    
Br11  C44   S    
C70   C86   A    
C57   C66   A    
C69   C85   A    
C45   C74   A    
Cu1   O1    S    
C27   C40   S    
C22   C58   S    
C35   O35   A    
C24   C32   S    
Cu3   O39   S    
C32   O33   A    
C49   C78   A    
C22   O26   A    
C47   C71   A    
C95   N9    S    
C48   C62   A    
C46   C62   A    
C51   C64   A    
C9    C39   S    
H29   N10   S    
C17   O47   A    
Cu8   Cu10  S    
C9    C26   T    
C40   O43   A    
C5    C93   A    
Cu7   O34   S    
C38   O40   A    
Cu6   O23   S    
C55   C84   A    
C19   C62   S    
C15   C65   S    
Cu2   O33   S    
H12   N1    S    
C39   O45   A    
Br10  C43   S    
Cu12  O29   S    
Cu1   Cu6   S    
Cu2   O31   S    
C1    O44   A    
Br12  C45   S    
C44   C68   A    
C35   O30   A    
C11   C29   T    
C53   C64   A    
C21   O25   A    
C3    C100  A    
Cu7   O47   S    
H16   N4    S    
Br14  C47   S    
C32   O27   A    
Br8   C57   S    
C52   C76   A    
C41   C69   A    
H22   N7    S    
H32   N12   S    
C87   C90   A    
Cu6   O44   S    
C40   O39   A    
Cu3   O37   S    
Cu6   O11   S    
C80   C91   A    
C2    C17   S    
Cu8   O18   S    
C74   C87   A    
C44   C59   A    
H7    N15   S    
C82   C91   A    
C4    N5    S    
C56   C80   A    
C1    O1    A    
C76   C89   A    
Cu4   O41   S    
C104  N3    S    
H24   N7    S    
H26   N8    S    
C3    N4    S    
C50   O5    A    
C50   O48   A    
Cu5   Cu7   S    
C61   O8    A    
Cu12  O27   S    
C52   C63   A    
Cu8   O25   S    
Br16  C49   S    
C77   C103  A    
C33   O32   A    
Cu9   O6    S    
Cu11  O26   S    
C28   O46   A    
C83   O6    A    
C54   C82   A    
C19   O18   A    
C102  N16   S    
Cu9   Cu11  S    
H6    N14   S    
