data_mof_unit_8248.cif
_audit_creation_date              2012-10-26T21:29:51-0400
_audit_creation_method            fapswitch 2.2
_symmetry_space_group_name_H-M    P1
_symmetry_Int_Tables_number       1
_space_group_crystal_system       cubic
_cell_length_a                    26.745744
_cell_length_b                    26.745744
_cell_length_c                    26.745744
_cell_angle_alpha                 90.0
_cell_angle_beta                  90.0
_cell_angle_gamma                 90.0
_cell_volume                      19132.1620265

loop_
_atom_site_label
_atom_site_type_symbol
_atom_type_description
_atom_site_fract_x
_atom_site_fract_y
_atom_site_fract_z
_atom_type_partial_charge
C1    C     C_R   0.930610 0.700875 0.299125 0.585301
C2    C     C_R   0.069390 0.700875 0.299125 0.585301
C3    C     C_R   0.825004 0.110587 0.825004 -0.007737
C4    C     C_R   0.174996 0.889413 0.825004 -0.007737
C5    C     C_R   0.825004 0.110587 0.174996 -0.007737
C6    C     C_R   0.825004 0.889413 0.825004 -0.007737
C7    C     C_R   0.174996 0.110587 0.174996 -0.007737
C8    C     C_R   0.110587 0.174996 0.174996 -0.007737
C9    C     C_R   0.889413 0.825004 0.825004 -0.007737
C10   C     C_R   0.110587 0.174996 0.825004 -0.007737
C11   C     C_R   0.889413 0.825004 0.174996 -0.007737
C12   C     C_R   0.110587 0.825004 0.825004 -0.007737
C13   C     C_R   0.299125 0.299125 0.930610 0.585301
C14   C     C_R   0.889413 0.174996 0.174996 -0.007737
C15   C     C_R   0.110587 0.825004 0.174996 -0.007737
C16   C     C_R   0.889413 0.174996 0.825004 -0.007737
C17   C     C_R   0.825004 0.174996 0.889413 -0.007737
C18   C     C_R   0.174996 0.825004 0.110587 -0.007737
C19   C     C_R   0.825004 0.825004 0.889413 -0.007737
C20   C     C_R   0.174996 0.174996 0.110587 -0.007737
C21   C     C_R   0.174996 0.825004 0.889413 -0.007737
C22   C     C_R   0.825004 0.174996 0.110587 -0.007737
C23   C     C_R   0.174996 0.174996 0.889413 -0.007737
C24   C     C_R   0.700875 0.700875 0.069390 0.585301
C25   C     C_R   0.825004 0.825004 0.110587 -0.007737
C26   C     C_R   0.325004 0.389413 0.174996 -0.007737
C27   C     C_R   0.674996 0.610587 0.825004 -0.007737
C28   C     C_R   0.174996 0.389413 0.674996 -0.007737
C29   C     C_R   0.825004 0.610587 0.325004 -0.007737
C30   C     C_R   0.674996 0.389413 0.825004 -0.007737
C31   C     C_R   0.325004 0.610587 0.174996 -0.007737
C32   C     C_R   0.825004 0.389413 0.325004 -0.007737
C33   C     C_R   0.174996 0.610587 0.674996 -0.007737
C34   C     C_R   0.325004 0.610587 0.825004 -0.007737
C35   C     C_R   0.069390 0.299125 0.299125 0.585301
C36   C     C_R   0.674996 0.389413 0.174996 -0.007737
C37   C     C_R   0.174996 0.610587 0.325004 -0.007737
C38   C     C_R   0.825004 0.389413 0.674996 -0.007737
C39   C     C_R   0.674996 0.610587 0.174996 -0.007737
C40   C     C_R   0.325004 0.389413 0.825004 -0.007737
C41   C     C_R   0.825004 0.610587 0.674996 -0.007737
C42   C     C_R   0.174996 0.389413 0.325004 -0.007737
C43   C     C_R   0.610587 0.174996 0.674996 -0.007737
C44   C     C_R   0.389413 0.825004 0.325004 -0.007737
C45   C     C_R   0.610587 0.674996 0.825004 -0.007737
C46   C     C_R   0.930610 0.700875 0.700875 0.585301
C47   C     C_R   0.389413 0.325004 0.174996 -0.007737
C48   C     C_R   0.610587 0.825004 0.325004 -0.007737
C49   C     C_R   0.389413 0.174996 0.674996 -0.007737
C50   C     C_R   0.610587 0.325004 0.174996 -0.007737
C51   C     C_R   0.389413 0.674996 0.825004 -0.007737
C52   C     C_R   0.389413 0.825004 0.674996 -0.007737
C53   C     C_R   0.610587 0.174996 0.325004 -0.007737
C54   C     C_R   0.389413 0.325004 0.825004 -0.007737
C55   C     C_R   0.610587 0.674996 0.174996 -0.007737
C56   C     C_R   0.389413 0.174996 0.325004 -0.007737
C57   C     C_R   0.700875 0.299125 0.069390 0.585301
C58   C     C_R   0.610587 0.825004 0.674996 -0.007737
C59   C     C_R   0.389413 0.674996 0.174996 -0.007737
C60   C     C_R   0.610587 0.325004 0.825004 -0.007737
C61   C     C_R   0.825004 0.674996 0.389413 -0.007737
C62   C     C_R   0.174996 0.325004 0.610587 -0.007737
C63   C     C_R   0.325004 0.825004 0.389413 -0.007737
C64   C     C_R   0.674996 0.174996 0.610587 -0.007737
C65   C     C_R   0.174996 0.325004 0.389413 -0.007737
C66   C     C_R   0.825004 0.674996 0.610587 -0.007737
C67   C     C_R   0.674996 0.174996 0.389413 -0.007737
C68   C     C_R   0.299125 0.700875 0.930610 0.585301
C69   C     C_R   0.325004 0.825004 0.610587 -0.007737
C70   C     C_R   0.174996 0.674996 0.610587 -0.007737
C71   C     C_R   0.825004 0.325004 0.389413 -0.007737
C72   C     C_R   0.674996 0.825004 0.610587 -0.007737
C73   C     C_R   0.325004 0.174996 0.389413 -0.007737
C74   C     C_R   0.825004 0.325004 0.610587 -0.007737
C75   C     C_R   0.174996 0.674996 0.389413 -0.007737
C76   C     C_R   0.325004 0.174996 0.610587 -0.007737
C77   C     C_R   0.674996 0.825004 0.389413 -0.007737
C78   C     C_R   0.325004 0.889413 0.674996 -0.007737
C79   C     C_R   0.299125 0.069390 0.700875 0.585301
C80   C     C_R   0.674996 0.110587 0.325004 -0.007737
C81   C     C_R   0.674996 0.889413 0.674996 -0.007737
C82   C     C_R   0.325004 0.110587 0.325004 -0.007737
C83   C     C_R   0.674996 0.889413 0.325004 -0.007737
C84   C     C_R   0.325004 0.110587 0.674996 -0.007737
C85   C     C_R   0.325004 0.889413 0.325004 -0.007737
C86   C     C_R   0.674996 0.110587 0.674996 -0.007737
C87   C     C_R   0.110587 0.674996 0.674996 -0.007737
C88   C     C_R   0.889413 0.325004 0.325004 -0.007737
C89   C     C_R   0.110587 0.674996 0.325004 -0.007737
C90   C     C_R   0.700875 0.930610 0.299125 0.585301
C91   C     C_R   0.889413 0.325004 0.674996 -0.007737
C92   C     C_R   0.110587 0.325004 0.325004 -0.007737
C93   C     C_R   0.889413 0.674996 0.674996 -0.007737
C94   C     C_R   0.110587 0.325004 0.674996 -0.007737
C95   C     C_R   0.889413 0.674996 0.325004 -0.007737
C96   C     C_R   0.325004 0.674996 0.889413 -0.007737
C97   C     C_R   0.674996 0.325004 0.110587 -0.007737
C98   C     C_R   0.325004 0.325004 0.889413 -0.007737
C99   C     C_R   0.674996 0.674996 0.110587 -0.007737
C100  C     C_R   0.674996 0.325004 0.889413 -0.007737
C101  C     C_R   0.299125 0.930610 0.299125 0.585301
C102  C     C_R   0.325004 0.674996 0.110587 -0.007737
C103  C     C_R   0.674996 0.674996 0.889413 -0.007737
C104  C     C_R   0.325004 0.325004 0.110587 -0.007737
C105  C     C_R   0.804218 0.868319 0.131681 0.267402
C106  C     C_R   0.195782 0.131681 0.868319 0.267402
C107  C     C_R   0.131681 0.868319 0.195782 0.267402
C108  C     C_R   0.868319 0.131681 0.804218 0.267402
C109  C     C_R   0.195782 0.868319 0.868319 0.267402
C110  C     C_R   0.804218 0.131681 0.131681 0.267402
C111  C     C_R   0.868319 0.868319 0.804218 0.267402
C112  C     C_R   0.069390 0.299125 0.700875 0.585301
C113  C     C_R   0.700875 0.069390 0.700875 0.585301
C114  C     C_R   0.131681 0.131681 0.195782 0.267402
C115  C     C_R   0.804218 0.131681 0.868319 0.267402
C116  C     C_R   0.195782 0.868319 0.131681 0.267402
C117  C     C_R   0.131681 0.131681 0.804218 0.267402
C118  C     C_R   0.868319 0.868319 0.195782 0.267402
C119  C     C_R   0.195782 0.131681 0.131681 0.267402
C120  C     C_R   0.804218 0.868319 0.868319 0.267402
C121  C     C_R   0.868319 0.131681 0.195782 0.267402
C122  C     C_R   0.131681 0.868319 0.804218 0.267402
C123  C     C_R   0.131681 0.195782 0.868319 0.267402
C124  C     C_R   0.700875 0.930610 0.700875 0.585301
C125  C     C_R   0.868319 0.804218 0.131681 0.267402
C126  C     C_R   0.131681 0.804218 0.131681 0.267402
C127  C     C_R   0.868319 0.195782 0.868319 0.267402
C128  C     C_R   0.868319 0.804218 0.868319 0.267402
C129  C     C_R   0.131681 0.195782 0.131681 0.267402
C130  C     C_R   0.868319 0.195782 0.131681 0.267402
C131  C     C_R   0.131681 0.804218 0.868319 0.267402
C132  C     C_R   0.304218 0.368319 0.131681 0.267402
C133  C     C_R   0.695782 0.631681 0.868319 0.267402
C134  C     C_R   0.131681 0.368319 0.695782 0.267402
C135  C     C_R   0.299125 0.069390 0.299125 0.585301
C136  C     C_R   0.868319 0.631681 0.304218 0.267402
C137  C     C_R   0.695782 0.368319 0.868319 0.267402
C138  C     C_R   0.304218 0.631681 0.131681 0.267402
C139  C     C_R   0.868319 0.368319 0.304218 0.267402
C140  C     C_R   0.131681 0.631681 0.695782 0.267402
C141  C     C_R   0.304218 0.631681 0.868319 0.267402
C142  C     C_R   0.695782 0.368319 0.131681 0.267402
C143  C     C_R   0.131681 0.631681 0.304218 0.267402
C144  C     C_R   0.868319 0.368319 0.695782 0.267402
C145  C     C_R   0.695782 0.631681 0.131681 0.267402
C146  C     C_R   0.700875 0.069390 0.299125 0.585301
C147  C     C_R   0.304218 0.368319 0.868319 0.267402
C148  C     C_R   0.868319 0.631681 0.695782 0.267402
C149  C     C_R   0.131681 0.368319 0.304218 0.267402
C150  C     C_R   0.631681 0.131681 0.695782 0.267402
C151  C     C_R   0.368319 0.868319 0.304218 0.267402
C152  C     C_R   0.631681 0.695782 0.868319 0.267402
C153  C     C_R   0.368319 0.304218 0.131681 0.267402
C154  C     C_R   0.631681 0.868319 0.304218 0.267402
C155  C     C_R   0.368319 0.131681 0.695782 0.267402
C156  C     C_R   0.631681 0.304218 0.131681 0.267402
C157  C     C_R   0.299125 0.930610 0.700875 0.585301
C158  C     C_R   0.368319 0.695782 0.868319 0.267402
C159  C     C_R   0.368319 0.868319 0.695782 0.267402
C160  C     C_R   0.631681 0.131681 0.304218 0.267402
C161  C     C_R   0.368319 0.304218 0.868319 0.267402
C162  C     C_R   0.631681 0.695782 0.131681 0.267402
C163  C     C_R   0.368319 0.131681 0.304218 0.267402
C164  C     C_R   0.631681 0.868319 0.695782 0.267402
C165  C     C_R   0.368319 0.695782 0.131681 0.267402
C166  C     C_R   0.631681 0.304218 0.868319 0.267402
C167  C     C_R   0.868319 0.695782 0.368319 0.267402
C168  C     C_R   0.430610 0.200875 0.299125 0.585301
C169  C     C_R   0.131681 0.304218 0.631681 0.267402
C170  C     C_R   0.304218 0.868319 0.368319 0.267402
C171  C     C_R   0.695782 0.131681 0.631681 0.267402
C172  C     C_R   0.131681 0.304218 0.368319 0.267402
C173  C     C_R   0.868319 0.695782 0.631681 0.267402
C174  C     C_R   0.695782 0.131681 0.368319 0.267402
C175  C     C_R   0.304218 0.868319 0.631681 0.267402
C176  C     C_R   0.131681 0.695782 0.631681 0.267402
C177  C     C_R   0.868319 0.304218 0.368319 0.267402
C178  C     C_R   0.695782 0.868319 0.631681 0.267402
C179  C     C_R   0.569390 0.799125 0.700875 0.585301
C180  C     C_R   0.304218 0.131681 0.368319 0.267402
C181  C     C_R   0.868319 0.304218 0.631681 0.267402
C182  C     C_R   0.131681 0.695782 0.368319 0.267402
C183  C     C_R   0.304218 0.131681 0.631681 0.267402
C184  C     C_R   0.695782 0.868319 0.368319 0.267402
C185  C     C_R   0.804218 0.368319 0.631681 0.267402
C186  C     C_R   0.195782 0.631681 0.368319 0.267402
C187  C     C_R   0.631681 0.368319 0.195782 0.267402
C188  C     C_R   0.368319 0.631681 0.804218 0.267402
C189  C     C_R   0.195782 0.368319 0.368319 0.267402
C190  C     C_R   0.299125 0.200875 0.569390 0.585301
C191  C     C_R   0.804218 0.631681 0.631681 0.267402
C192  C     C_R   0.368319 0.368319 0.804218 0.267402
C193  C     C_R   0.631681 0.631681 0.195782 0.267402
C194  C     C_R   0.804218 0.631681 0.368319 0.267402
C195  C     C_R   0.195782 0.368319 0.631681 0.267402
C196  C     C_R   0.631681 0.631681 0.804218 0.267402
C197  C     C_R   0.368319 0.368319 0.195782 0.267402
C198  C     C_R   0.195782 0.631681 0.631681 0.267402
C199  C     C_R   0.804218 0.368319 0.368319 0.267402
C200  C     C_R   0.368319 0.631681 0.195782 0.267402
C201  C     C_R   0.700875 0.799125 0.430610 0.585301
C202  C     C_R   0.631681 0.368319 0.804218 0.267402
C203  C     C_R   0.631681 0.195782 0.368319 0.267402
C204  C     C_R   0.368319 0.804218 0.631681 0.267402
C205  C     C_R   0.631681 0.804218 0.631681 0.267402
C206  C     C_R   0.368319 0.195782 0.368319 0.267402
C207  C     C_R   0.368319 0.804218 0.368319 0.267402
C208  C     C_R   0.631681 0.195782 0.631681 0.267402
C209  C     C_R   0.368319 0.195782 0.631681 0.267402
C210  C     C_R   0.631681 0.804218 0.368319 0.267402
C211  C     C_R   0.569390 0.200875 0.700875 0.585301
C212  C     C_R   0.299125 0.700875 0.069390 0.585301
C213  C     C_R   0.430610 0.799125 0.299125 0.585301
C214  C     C_R   0.700875 0.200875 0.430610 0.585301
C215  C     C_R   0.299125 0.799125 0.569390 0.585301
C216  C     C_R   0.430610 0.799125 0.700875 0.585301
C217  C     C_R   0.569390 0.200875 0.299125 0.585301
C218  C     C_R   0.299125 0.799125 0.430610 0.585301
C219  C     C_R   0.700875 0.200875 0.569390 0.585301
C220  C     C_R   0.569390 0.799125 0.299125 0.585301
C221  C     C_R   0.430610 0.200875 0.700875 0.585301
C222  C     C_R   0.700875 0.799125 0.569390 0.585301
C223  C     C_R   0.700875 0.299125 0.930610 0.585301
C224  C     C_R   0.299125 0.200875 0.430610 0.585301
C225  C     C_R   0.799125 0.299125 0.569390 0.585301
C226  C     C_R   0.200875 0.700875 0.430610 0.585301
C227  C     C_R   0.799125 0.569390 0.700875 0.585301
C228  C     C_R   0.200875 0.430610 0.299125 0.585301
C229  C     C_R   0.799125 0.700875 0.430610 0.585301
C230  C     C_R   0.200875 0.299125 0.569390 0.585301
C231  C     C_R   0.799125 0.430610 0.299125 0.585301
C232  C     C_R   0.200875 0.569390 0.700875 0.585301
C233  C     C_R   0.200875 0.700875 0.569390 0.585301
C234  C     C_R   0.069390 0.700875 0.700875 0.585301
C235  C     C_R   0.799125 0.299125 0.430610 0.585301
C236  C     C_R   0.200875 0.430610 0.700875 0.585301
C237  C     C_R   0.799125 0.569390 0.299125 0.585301
C238  C     C_R   0.200875 0.299125 0.430610 0.585301
C239  C     C_R   0.799125 0.700875 0.569390 0.585301
C240  C     C_R   0.200875 0.569390 0.299125 0.585301
C241  C     C_R   0.799125 0.430610 0.700875 0.585301
C242  C     C_R   0.700875 0.569390 0.200875 0.585301
C243  C     C_R   0.299125 0.430610 0.799125 0.585301
C244  C     C_R   0.430610 0.700875 0.200875 0.585301
C245  C     C_R   0.930610 0.299125 0.299125 0.585301
C246  C     C_R   0.569390 0.299125 0.799125 0.585301
C247  C     C_R   0.299125 0.430610 0.200875 0.585301
C248  C     C_R   0.700875 0.569390 0.799125 0.585301
C249  C     C_R   0.569390 0.299125 0.200875 0.585301
C250  C     C_R   0.430610 0.700875 0.799125 0.585301
C251  C     C_R   0.299125 0.569390 0.799125 0.585301
C252  C     C_R   0.700875 0.430610 0.200875 0.585301
C253  C     C_R   0.569390 0.700875 0.799125 0.585301
C254  C     C_R   0.430610 0.299125 0.200875 0.585301
C255  C     C_R   0.700875 0.430610 0.799125 0.585301
C256  C     C_R   0.700875 0.700875 0.930610 0.585301
C257  C     C_R   0.299125 0.569390 0.200875 0.585301
C258  C     C_R   0.430610 0.299125 0.799125 0.585301
C259  C     C_R   0.569390 0.700875 0.200875 0.585301
C260  C     C_R   0.930610 0.200875 0.799125 0.585301
C261  C     C_R   0.069390 0.799125 0.200875 0.585301
C262  C     C_R   0.799125 0.200875 0.069390 0.585301
C263  C     C_R   0.200875 0.799125 0.930610 0.585301
C264  C     C_R   0.069390 0.200875 0.200875 0.585301
C265  C     C_R   0.930610 0.799125 0.799125 0.585301
C266  C     C_R   0.200875 0.200875 0.930610 0.585301
C267  C     C_R   0.299125 0.299125 0.069390 0.585301
C268  C     C_R   0.799125 0.799125 0.069390 0.585301
C269  C     C_R   0.930610 0.799125 0.200875 0.585301
C270  C     C_R   0.069390 0.200875 0.799125 0.585301
C271  C     C_R   0.799125 0.799125 0.930610 0.585301
C272  C     C_R   0.200875 0.200875 0.069390 0.585301
C273  C     C_R   0.069390 0.799125 0.799125 0.585301
C274  C     C_R   0.930610 0.200875 0.200875 0.585301
C275  C     C_R   0.200875 0.799125 0.069390 0.585301
C276  C     C_R   0.799125 0.200875 0.930610 0.585301
C277  C     C_R   0.799125 0.069390 0.200875 0.585301
C278  C     C_R   0.930610 0.299125 0.700875 0.585301
C279  C     C_R   0.200875 0.930610 0.799125 0.585301
C280  C     C_R   0.799125 0.930610 0.799125 0.585301
C281  C     C_R   0.200875 0.069390 0.200875 0.585301
C282  C     C_R   0.200875 0.930610 0.200875 0.585301
C283  C     C_R   0.799125 0.069390 0.799125 0.585301
C284  C     C_R   0.200875 0.069390 0.799125 0.585301
C285  C     C_R   0.799125 0.930610 0.200875 0.585301
C286  C     C_R   0.825004 0.889413 0.174996 -0.007737
C287  C     C_R   0.174996 0.110587 0.825004 -0.007737
C288  C     C_R   0.174996 0.889413 0.174996 -0.007737
Cu1   Cu    Cu3+1 0.000000 0.784800 0.284800 1.255422
Cu2   Cu    Cu3+1 0.784800 0.715200 0.000000 1.255422
Cu3   Cu    Cu3+1 0.215200 0.000000 0.715200 1.255422
Cu4   Cu    Cu3+1 0.784800 0.000000 0.284800 1.255422
Cu5   Cu    Cu3+1 0.215200 0.715200 0.000000 1.255422
Cu6   Cu    Cu3+1 0.784800 0.284800 0.000000 1.255422
Cu7   Cu    Cu3+1 0.215200 0.000000 0.284800 1.255422
Cu8   Cu    Cu3+1 0.784800 0.000000 0.715200 1.255422
Cu9   Cu    Cu3+1 0.715200 0.000000 0.784800 1.255422
Cu10  Cu    Cu3+1 0.284800 0.000000 0.215200 1.255422
Cu11  Cu    Cu3+1 0.000000 0.715200 0.784800 1.255422
Cu12  Cu    Cu3+1 0.000000 0.215200 0.715200 1.255422
Cu13  Cu    Cu3+1 0.000000 0.284800 0.215200 1.255422
Cu14  Cu    Cu3+1 0.284800 0.000000 0.784800 1.255422
Cu15  Cu    Cu3+1 0.715200 0.000000 0.215200 1.255422
Cu16  Cu    Cu3+1 0.000000 0.284800 0.784800 1.255422
Cu17  Cu    Cu3+1 0.000000 0.715200 0.215200 1.255422
Cu18  Cu    Cu3+1 0.500000 0.284800 0.284800 1.255422
Cu19  Cu    Cu3+1 0.500000 0.715200 0.715200 1.255422
Cu20  Cu    Cu3+1 0.284800 0.284800 0.500000 1.255422
Cu21  Cu    Cu3+1 0.715200 0.715200 0.500000 1.255422
Cu22  Cu    Cu3+1 0.500000 0.284800 0.715200 1.255422
Cu23  Cu    Cu3+1 0.284800 0.784800 0.000000 1.255422
Cu24  Cu    Cu3+1 0.500000 0.715200 0.284800 1.255422
Cu25  Cu    Cu3+1 0.715200 0.284800 0.500000 1.255422
Cu26  Cu    Cu3+1 0.284800 0.715200 0.500000 1.255422
Cu27  Cu    Cu3+1 0.715200 0.500000 0.715200 1.255422
Cu28  Cu    Cu3+1 0.284800 0.500000 0.284800 1.255422
Cu29  Cu    Cu3+1 0.715200 0.500000 0.284800 1.255422
Cu30  Cu    Cu3+1 0.284800 0.500000 0.715200 1.255422
Cu31  Cu    Cu3+1 0.500000 0.784800 0.784800 1.255422
Cu32  Cu    Cu3+1 0.500000 0.215200 0.215200 1.255422
Cu33  Cu    Cu3+1 0.784800 0.784800 0.500000 1.255422
Cu34  Cu    Cu3+1 0.715200 0.215200 0.000000 1.255422
Cu35  Cu    Cu3+1 0.215200 0.215200 0.500000 1.255422
Cu36  Cu    Cu3+1 0.500000 0.784800 0.215200 1.255422
Cu37  Cu    Cu3+1 0.500000 0.215200 0.784800 1.255422
Cu38  Cu    Cu3+1 0.215200 0.784800 0.500000 1.255422
Cu39  Cu    Cu3+1 0.784800 0.215200 0.500000 1.255422
Cu40  Cu    Cu3+1 0.215200 0.500000 0.215200 1.255422
Cu41  Cu    Cu3+1 0.784800 0.500000 0.784800 1.255422
Cu42  Cu    Cu3+1 0.215200 0.500000 0.784800 1.255422
Cu43  Cu    Cu3+1 0.784800 0.500000 0.215200 1.255422
Cu44  Cu    Cu3+1 0.000000 0.784800 0.715200 1.255422
Cu45  Cu    Cu3+1 1.000000 0.215200 0.284800 1.255422
Cu46  Cu    Cu3+1 0.715200 0.784800 0.000000 1.255422
Cu47  Cu    Cu3+1 0.284800 0.215200 0.000000 1.255422
Cu48  Cu    Cu3+1 0.215200 0.284800 0.000000 1.255422
F1    F     F_    0.762871 0.889222 0.110778 -0.560875
F2    F     F_    0.237129 0.889222 0.110778 -0.560875
F3    F     F_    0.110778 0.110778 0.762871 -0.560875
F4    F     F_    0.889222 0.889222 0.237129 -0.560875
F5    F     F_    0.237129 0.110778 0.110778 -0.560875
F6    F     F_    0.762871 0.889222 0.889222 -0.560875
F7    F     F_    0.889222 0.110778 0.237129 -0.560875
F8    F     F_    0.110778 0.889222 0.762871 -0.560875
F9    F     F_    0.110778 0.237129 0.889222 -0.560875
F10   F     F_    0.889222 0.762871 0.110778 -0.560875
F11   F     F_    0.110778 0.762871 0.110778 -0.560875
F12   F     F_    0.237129 0.110778 0.889222 -0.560875
F13   F     F_    0.889222 0.237129 0.889222 -0.560875
F14   F     F_    0.889222 0.762871 0.889222 -0.560875
F15   F     F_    0.110778 0.237129 0.110778 -0.560875
F16   F     F_    0.889222 0.237129 0.110778 -0.560875
F17   F     F_    0.110778 0.762871 0.889222 -0.560875
F18   F     F_    0.262871 0.389222 0.110778 -0.560875
F19   F     F_    0.737129 0.610778 0.889222 -0.560875
F20   F     F_    0.110778 0.389222 0.737129 -0.560875
F21   F     F_    0.889222 0.610778 0.262871 -0.560875
F22   F     F_    0.737129 0.389222 0.889222 -0.560875
F23   F     F_    0.110778 0.889222 0.237129 -0.560875
F24   F     F_    0.262871 0.610778 0.110778 -0.560875
F25   F     F_    0.889222 0.389222 0.262871 -0.560875
F26   F     F_    0.110778 0.610778 0.737129 -0.560875
F27   F     F_    0.262871 0.610778 0.889222 -0.560875
F28   F     F_    0.737129 0.389222 0.110778 -0.560875
F29   F     F_    0.110778 0.610778 0.262871 -0.560875
F30   F     F_    0.889222 0.389222 0.737129 -0.560875
F31   F     F_    0.737129 0.610778 0.110778 -0.560875
F32   F     F_    0.262871 0.389222 0.889222 -0.560875
F33   F     F_    0.889222 0.610778 0.737129 -0.560875
F34   F     F_    0.889222 0.110778 0.762871 -0.560875
F35   F     F_    0.110778 0.389222 0.262871 -0.560875
F36   F     F_    0.610778 0.110778 0.737129 -0.560875
F37   F     F_    0.389222 0.889222 0.262871 -0.560875
F38   F     F_    0.610778 0.737129 0.889222 -0.560875
F39   F     F_    0.389222 0.262871 0.110778 -0.560875
F40   F     F_    0.610778 0.889222 0.262871 -0.560875
F41   F     F_    0.389222 0.110778 0.737129 -0.560875
F42   F     F_    0.610778 0.262871 0.110778 -0.560875
F43   F     F_    0.389222 0.737129 0.889222 -0.560875
F44   F     F_    0.389222 0.889222 0.737129 -0.560875
F45   F     F_    0.237129 0.889222 0.889222 -0.560875
F46   F     F_    0.610778 0.110778 0.262871 -0.560875
F47   F     F_    0.389222 0.262871 0.889222 -0.560875
F48   F     F_    0.610778 0.737129 0.110778 -0.560875
F49   F     F_    0.389222 0.110778 0.262871 -0.560875
F50   F     F_    0.610778 0.889222 0.737129 -0.560875
F51   F     F_    0.389222 0.737129 0.110778 -0.560875
F52   F     F_    0.610778 0.262871 0.889222 -0.560875
F53   F     F_    0.889222 0.737129 0.389222 -0.560875
F54   F     F_    0.110778 0.262871 0.610778 -0.560875
F55   F     F_    0.262871 0.889222 0.389222 -0.560875
F56   F     F_    0.762871 0.110778 0.110778 -0.560875
F57   F     F_    0.737129 0.110778 0.610778 -0.560875
F58   F     F_    0.110778 0.262871 0.389222 -0.560875
F59   F     F_    0.889222 0.737129 0.610778 -0.560875
F60   F     F_    0.737129 0.110778 0.389222 -0.560875
F61   F     F_    0.262871 0.889222 0.610778 -0.560875
F62   F     F_    0.110778 0.737129 0.610778 -0.560875
F63   F     F_    0.889222 0.262871 0.389222 -0.560875
F64   F     F_    0.737129 0.889222 0.610778 -0.560875
F65   F     F_    0.262871 0.110778 0.389222 -0.560875
F66   F     F_    0.889222 0.262871 0.610778 -0.560875
F67   F     F_    0.889222 0.889222 0.762871 -0.560875
F68   F     F_    0.110778 0.737129 0.389222 -0.560875
F69   F     F_    0.262871 0.110778 0.610778 -0.560875
F70   F     F_    0.737129 0.889222 0.389222 -0.560875
F71   F     F_    0.762871 0.389222 0.610778 -0.560875
F72   F     F_    0.237129 0.610778 0.389222 -0.560875
F73   F     F_    0.610778 0.389222 0.237129 -0.560875
F74   F     F_    0.389222 0.610778 0.762871 -0.560875
F75   F     F_    0.237129 0.389222 0.389222 -0.560875
F76   F     F_    0.762871 0.610778 0.610778 -0.560875
F77   F     F_    0.389222 0.389222 0.762871 -0.560875
F78   F     F_    0.110778 0.110778 0.237129 -0.560875
F79   F     F_    0.610778 0.610778 0.237129 -0.560875
F80   F     F_    0.762871 0.610778 0.389222 -0.560875
F81   F     F_    0.237129 0.389222 0.610778 -0.560875
F82   F     F_    0.610778 0.610778 0.762871 -0.560875
F83   F     F_    0.389222 0.389222 0.237129 -0.560875
F84   F     F_    0.237129 0.610778 0.610778 -0.560875
F85   F     F_    0.762871 0.389222 0.389222 -0.560875
F86   F     F_    0.389222 0.610778 0.237129 -0.560875
F87   F     F_    0.610778 0.389222 0.762871 -0.560875
F88   F     F_    0.610778 0.237129 0.389222 -0.560875
F89   F     F_    0.762871 0.110778 0.889222 -0.560875
F90   F     F_    0.389222 0.762871 0.610778 -0.560875
F91   F     F_    0.610778 0.762871 0.610778 -0.560875
F92   F     F_    0.389222 0.237129 0.389222 -0.560875
F93   F     F_    0.389222 0.762871 0.389222 -0.560875
F94   F     F_    0.610778 0.237129 0.610778 -0.560875
F95   F     F_    0.389222 0.237129 0.610778 -0.560875
F96   F     F_    0.610778 0.762871 0.389222 -0.560875
O1    O     O_R   0.947350 0.816370 0.242430 -0.455902
O2    O     O_R   0.052650 0.816370 0.242430 -0.455902
O3    O     O_R   0.257570 0.183630 0.447350 -0.455902
O4    O     O_R   0.552650 0.816370 0.257570 -0.455902
O5    O     O_R   0.447350 0.183630 0.742430 -0.455902
O6    O     O_R   0.257570 0.816370 0.447350 -0.455902
O7    O     O_R   0.742430 0.183630 0.552650 -0.455902
O8    O     O_R   0.447350 0.183630 0.257570 -0.455902
O9    O     O_R   0.552650 0.816370 0.742430 -0.455902
O10   O     O_R   0.742430 0.183630 0.447350 -0.455902
O11   O     O_R   0.257570 0.816370 0.552650 -0.455902
O12   O     O_R   0.552650 0.183630 0.742430 -0.455902
O13   O     O_R   0.242430 0.183630 0.947350 -0.455902
O14   O     O_R   0.447350 0.816370 0.257570 -0.455902
O15   O     O_R   0.257570 0.183630 0.552650 -0.455902
O16   O     O_R   0.742430 0.816370 0.447350 -0.455902
O17   O     O_R   0.183630 0.742430 0.552650 -0.455902
O18   O     O_R   0.816370 0.257570 0.447350 -0.455902
O19   O     O_R   0.183630 0.552650 0.257570 -0.455902
O20   O     O_R   0.816370 0.447350 0.742430 -0.455902
O21   O     O_R   0.183630 0.257570 0.447350 -0.455902
O22   O     O_R   0.816370 0.742430 0.552650 -0.455902
O23   O     O_R   0.183630 0.447350 0.742430 -0.455902
O24   O     O_R   0.757570 0.816370 0.052650 -0.455902
O25   O     O_R   0.816370 0.552650 0.257570 -0.455902
O26   O     O_R   0.816370 0.257570 0.552650 -0.455902
O27   O     O_R   0.183630 0.742430 0.447350 -0.455902
O28   O     O_R   0.816370 0.447350 0.257570 -0.455902
O29   O     O_R   0.183630 0.552650 0.742430 -0.455902
O30   O     O_R   0.816370 0.742430 0.447350 -0.455902
O31   O     O_R   0.183630 0.257570 0.552650 -0.455902
O32   O     O_R   0.816370 0.552650 0.742430 -0.455902
O33   O     O_R   0.183630 0.447350 0.257570 -0.455902
O34   O     O_R   0.257570 0.552650 0.816370 -0.455902
O35   O     O_R   0.052650 0.183630 0.242430 -0.455902
O36   O     O_R   0.742430 0.447350 0.183630 -0.455902
O37   O     O_R   0.447350 0.257570 0.816370 -0.455902
O38   O     O_R   0.552650 0.742430 0.183630 -0.455902
O39   O     O_R   0.742430 0.447350 0.816370 -0.455902
O40   O     O_R   0.257570 0.552650 0.183630 -0.455902
O41   O     O_R   0.552650 0.742430 0.816370 -0.455902
O42   O     O_R   0.447350 0.257570 0.183630 -0.455902
O43   O     O_R   0.742430 0.552650 0.183630 -0.455902
O44   O     O_R   0.257570 0.447350 0.816370 -0.455902
O45   O     O_R   0.552650 0.257570 0.183630 -0.455902
O46   O     O_R   0.947350 0.816370 0.757570 -0.455902
O47   O     O_R   0.447350 0.742430 0.816370 -0.455902
O48   O     O_R   0.257570 0.447350 0.183630 -0.455902
O49   O     O_R   0.742430 0.552650 0.816370 -0.455902
O50   O     O_R   0.447350 0.742430 0.183630 -0.455902
O51   O     O_R   0.552650 0.257570 0.816370 -0.455902
O52   O     O_R   0.947350 0.316370 0.742430 -0.455902
O53   O     O_R   0.052650 0.683630 0.257570 -0.455902
O54   O     O_R   0.742430 0.316370 0.052650 -0.455902
O55   O     O_R   0.257570 0.683630 0.947350 -0.455902
O56   O     O_R   0.052650 0.316370 0.257570 -0.455902
O57   O     O_R   0.757570 0.183630 0.052650 -0.455902
O58   O     O_R   0.947350 0.683630 0.742430 -0.455902
O59   O     O_R   0.257570 0.316370 0.947350 -0.455902
O60   O     O_R   0.742430 0.683630 0.052650 -0.455902
O61   O     O_R   0.947350 0.683630 0.257570 -0.455902
O62   O     O_R   0.052650 0.316370 0.742430 -0.455902
O63   O     O_R   0.742430 0.683630 0.947350 -0.455902
O64   O     O_R   0.257570 0.316370 0.052650 -0.455902
O65   O     O_R   0.052650 0.683630 0.742430 -0.455902
O66   O     O_R   0.947350 0.316370 0.257570 -0.455902
O67   O     O_R   0.257570 0.683630 0.052650 -0.455902
O68   O     O_R   0.242430 0.816370 0.947350 -0.455902
O69   O     O_R   0.742430 0.316370 0.947350 -0.455902
O70   O     O_R   0.683630 0.742430 0.052650 -0.455902
O71   O     O_R   0.316370 0.257570 0.947350 -0.455902
O72   O     O_R   0.683630 0.052650 0.257570 -0.455902
O73   O     O_R   0.316370 0.947350 0.742430 -0.455902
O74   O     O_R   0.683630 0.257570 0.947350 -0.455902
O75   O     O_R   0.316370 0.742430 0.052650 -0.455902
O76   O     O_R   0.683630 0.947350 0.742430 -0.455902
O77   O     O_R   0.316370 0.052650 0.257570 -0.455902
O78   O     O_R   0.316370 0.257570 0.052650 -0.455902
O79   O     O_R   0.183630 0.242430 0.052650 -0.455902
O80   O     O_R   0.683630 0.742430 0.947350 -0.455902
O81   O     O_R   0.316370 0.947350 0.257570 -0.455902
O82   O     O_R   0.683630 0.052650 0.742430 -0.455902
O83   O     O_R   0.316370 0.742430 0.947350 -0.455902
O84   O     O_R   0.683630 0.257570 0.052650 -0.455902
O85   O     O_R   0.316370 0.052650 0.742430 -0.455902
O86   O     O_R   0.683630 0.947350 0.257570 -0.455902
O87   O     O_R   0.257570 0.052650 0.316370 -0.455902
O88   O     O_R   0.742430 0.947350 0.683630 -0.455902
O89   O     O_R   0.947350 0.257570 0.316370 -0.455902
O90   O     O_R   0.816370 0.757570 0.947350 -0.455902
O91   O     O_R   0.052650 0.742430 0.683630 -0.455902
O92   O     O_R   0.742430 0.947350 0.316370 -0.455902
O93   O     O_R   0.257570 0.052650 0.683630 -0.455902
O94   O     O_R   0.052650 0.742430 0.316370 -0.455902
O95   O     O_R   0.947350 0.257570 0.683630 -0.455902
O96   O     O_R   0.742430 0.052650 0.683630 -0.455902
O97   O     O_R   0.257570 0.947350 0.316370 -0.455902
O98   O     O_R   0.052650 0.257570 0.683630 -0.455902
O99   O     O_R   0.947350 0.742430 0.316370 -0.455902
O100  O     O_R   0.257570 0.947350 0.683630 -0.455902
O101  O     O_R   0.183630 0.052650 0.757570 -0.455902
O102  O     O_R   0.742430 0.052650 0.316370 -0.455902
O103  O     O_R   0.947350 0.742430 0.683630 -0.455902
O104  O     O_R   0.052650 0.257570 0.316370 -0.455902
O105  O     O_R   0.052650 0.183630 0.757570 -0.455902
O106  O     O_R   0.816370 0.947350 0.242430 -0.455902
O107  O     O_R   0.183630 0.757570 0.947350 -0.455902
O108  O     O_R   0.816370 0.242430 0.052650 -0.455902
O109  O     O_R   0.183630 0.947350 0.242430 -0.455902
O110  O     O_R   0.816370 0.052650 0.757570 -0.455902
O111  O     O_R   0.816370 0.757570 0.052650 -0.455902
O112  O     O_R   0.183630 0.242430 0.947350 -0.455902
O113  O     O_R   0.816370 0.947350 0.757570 -0.455902
O114  O     O_R   0.183630 0.052650 0.242430 -0.455902
O115  O     O_R   0.816370 0.242430 0.947350 -0.455902
O116  O     O_R   0.242430 0.816370 0.052650 -0.455902
O117  O     O_R   0.183630 0.757570 0.052650 -0.455902
O118  O     O_R   0.816370 0.052650 0.242430 -0.455902
O119  O     O_R   0.183630 0.947350 0.757570 -0.455902
O120  O     O_R   0.757570 0.052650 0.816370 -0.455902
O121  O     O_R   0.242430 0.947350 0.183630 -0.455902
O122  O     O_R   0.947350 0.757570 0.816370 -0.455902
O123  O     O_R   0.052650 0.242430 0.183630 -0.455902
O124  O     O_R   0.242430 0.947350 0.816370 -0.455902
O125  O     O_R   0.757570 0.052650 0.183630 -0.455902
O126  O     O_R   0.052650 0.242430 0.816370 -0.455902
O127  O     O_R   0.757570 0.183630 0.947350 -0.455902
O128  O     O_R   0.947350 0.757570 0.183630 -0.455902
O129  O     O_R   0.242430 0.052650 0.183630 -0.455902
O130  O     O_R   0.757570 0.947350 0.816370 -0.455902
O131  O     O_R   0.052650 0.757570 0.183630 -0.455902
O132  O     O_R   0.947350 0.242430 0.816370 -0.455902
O133  O     O_R   0.757570 0.947350 0.183630 -0.455902
O134  O     O_R   0.242430 0.052650 0.816370 -0.455902
O135  O     O_R   0.947350 0.242430 0.183630 -0.455902
O136  O     O_R   0.052650 0.757570 0.816370 -0.455902
O137  O     O_R   0.447350 0.316370 0.242430 -0.455902
O138  O     O_R   0.052650 0.816370 0.757570 -0.455902
O139  O     O_R   0.552650 0.683630 0.757570 -0.455902
O140  O     O_R   0.242430 0.316370 0.552650 -0.455902
O141  O     O_R   0.757570 0.683630 0.447350 -0.455902
O142  O     O_R   0.552650 0.316370 0.757570 -0.455902
O143  O     O_R   0.447350 0.683630 0.242430 -0.455902
O144  O     O_R   0.757570 0.316370 0.447350 -0.455902
O145  O     O_R   0.242430 0.683630 0.552650 -0.455902
O146  O     O_R   0.447350 0.683630 0.757570 -0.455902
O147  O     O_R   0.552650 0.316370 0.242430 -0.455902
O148  O     O_R   0.242430 0.683630 0.447350 -0.455902
O149  O     O_R   0.947350 0.183630 0.242430 -0.455902
O150  O     O_R   0.757570 0.316370 0.552650 -0.455902
O151  O     O_R   0.552650 0.683630 0.242430 -0.455902
O152  O     O_R   0.447350 0.316370 0.757570 -0.455902
O153  O     O_R   0.757570 0.683630 0.552650 -0.455902
O154  O     O_R   0.242430 0.316370 0.447350 -0.455902
O155  O     O_R   0.683630 0.242430 0.552650 -0.455902
O156  O     O_R   0.316370 0.757570 0.447350 -0.455902
O157  O     O_R   0.683630 0.552650 0.757570 -0.455902
O158  O     O_R   0.316370 0.447350 0.242430 -0.455902
O159  O     O_R   0.683630 0.757570 0.447350 -0.455902
O160  O     O_R   0.757570 0.816370 0.947350 -0.455902
O161  O     O_R   0.316370 0.242430 0.552650 -0.455902
O162  O     O_R   0.683630 0.447350 0.242430 -0.455902
O163  O     O_R   0.316370 0.552650 0.757570 -0.455902
O164  O     O_R   0.316370 0.757570 0.552650 -0.455902
O165  O     O_R   0.683630 0.242430 0.447350 -0.455902
O166  O     O_R   0.316370 0.447350 0.757570 -0.455902
O167  O     O_R   0.683630 0.552650 0.242430 -0.455902
O168  O     O_R   0.316370 0.242430 0.447350 -0.455902
O169  O     O_R   0.683630 0.757570 0.552650 -0.455902
O170  O     O_R   0.316370 0.552650 0.242430 -0.455902
O171  O     O_R   0.242430 0.183630 0.052650 -0.455902
O172  O     O_R   0.683630 0.447350 0.757570 -0.455902
O173  O     O_R   0.757570 0.552650 0.316370 -0.455902
O174  O     O_R   0.242430 0.447350 0.683630 -0.455902
O175  O     O_R   0.447350 0.757570 0.316370 -0.455902
O176  O     O_R   0.552650 0.242430 0.683630 -0.455902
O177  O     O_R   0.242430 0.447350 0.316370 -0.455902
O178  O     O_R   0.757570 0.552650 0.683630 -0.455902
O179  O     O_R   0.552650 0.242430 0.316370 -0.455902
O180  O     O_R   0.447350 0.757570 0.683630 -0.455902
O181  O     O_R   0.242430 0.552650 0.683630 -0.455902
O182  O     O_R   0.947350 0.183630 0.757570 -0.455902
O183  O     O_R   0.757570 0.447350 0.316370 -0.455902
O184  O     O_R   0.552650 0.757570 0.683630 -0.455902
O185  O     O_R   0.447350 0.242430 0.316370 -0.455902
O186  O     O_R   0.757570 0.447350 0.683630 -0.455902
O187  O     O_R   0.242430 0.552650 0.316370 -0.455902
O188  O     O_R   0.447350 0.242430 0.683630 -0.455902
O189  O     O_R   0.552650 0.757570 0.316370 -0.455902
O190  O     O_R   0.447350 0.816370 0.742430 -0.455902
O191  O     O_R   0.552650 0.183630 0.257570 -0.455902
O192  O     O_R   0.742430 0.816370 0.552650 -0.455902

loop_
_geom_bond_atom_site_label_1
_geom_bond_atom_site_label_2
_ccdc_geom_bond_type
C73   C206  A    
Cu33  O192  S    
C203  F88   S    
Cu48  O79   S    
Cu26  O164  S    
C152  F38   S    
C223  O74   A    
C283  O120  A    
C6    C280  S    
C245  O66   A    
C25   C268  S    
Cu40  O19   S    
C130  F16   S    
C123  F9    S    
C25   C105  A    
C88   C177  A    
Cu6   O54   S    
C83   C154  A    
Cu14  O85   S    
C87   C176  A    
C274  O135  A    
Cu42  O34   S    
C81   C124  S    
C248  O157  A    
Cu13  O123  S    
C81   C178  A    
C74   C225  S    
C111  F67   S    
C199  F85   S    
Cu19  O139  S    
Cu1   Cu17  S    
C226  O27   A    
Cu11  Cu44  S    
C28   C195  A    
C237  O173  A    
Cu25  O144  S    
C128  F14   S    
C26   C197  A    
C36   C142  A    
Cu32  O8    S    
C213  O14   A    
C242  O167  A    
Cu38  O6    S    
Cu21  O153  S    
Cu6   Cu34  S    
Cu25  O165  S    
C170  F55   S    
C68   O83   A    
C24   O60   A    
Cu13  O56   S    
C8    C264  S    
C33   C232  S    
Cu36  O38   S    
C143  F29   S    
C57   O84   A    
Cu22  O188  S    
C39   C242  S    
Cu7   O97   S    
C80   C146  S    
C201  O159  A    
C58   C164  A    
C124  O76   A    
C14   C121  A    
C22   C130  A    
C231  O183  A    
C103  C256  S    
Cu48  O59   S    
C234  O91   A    
Cu15  O125  S    
C279  O119  A    
C121  F7    S    
C31   C200  A    
C49   C155  A    
Cu23  O116  S    
C119  F5    S    
C218  O156  A    
Cu17  O128  S    
Cu43  O25   S    
Cu20  O161  S    
C90   O86   A    
C156  F42   S    
C243  O44   A    
C9    C128  A    
C1    O99   A    
Cu10  O129  S    
C184  F70   S    
C106  C287  A    
C44   C151  A    
C7    C119  A    
C113  O82   A    
Cu37  O37   S    
Cu13  O135  S    
C32   C139  A    
C74   C181  A    
Cu27  O178  S    
C17   C127  A    
C19   C271  S    
Cu33  O30   S    
C234  O65   A    
Cu10  O77   S    
Cu35  O21   S    
C146  O102  A    
C9    C265  S    
C249  O147  A    
C282  O121  A    
C91   C278  S    
Cu30  O163  S    
C85   C151  A    
C246  O51   A    
C99   C162  A    
C217  O191  A    
C24   O70   A    
C40   C192  A    
Cu33  O16   S    
Cu36  O14   S    
C57   C97   S    
Cu2   O111  S    
C39   C145  A    
C157  O100  A    
C237  O25   A    
C4    C122  A    
Cu8   O113  S    
C233  O145  A    
Cu2   O63   S    
C103  C152  A    
C153  F39   S    
C118  F4    S    
Cu8   Cu9   S    
Cu29  O183  S    
C244  O143  A    
C65   C189  A    
C19   C120  A    
C212  O67   A    
C219  O7    A    
C54   C258  S    
Cu23  O75   S    
C201  O16   A    
C127  F13   S    
Cu39  O10   S    
C146  O72   A    
C117  F3    S    
C14   C130  A    
C108  F34   S    
Cu38  O27   S    
C114  F78   S    
C275  O117  A    
C40   C147  A    
C43   C208  A    
Cu45  O149  S    
Cu2   O90   S    
C235  O18   A    
Cu14  O124  S    
C168  O185  A    
Cu39  O18   S    
C253  O41   A    
C12   C273  S    
C180  F65   S    
C42   C228  S    
C207  F93   S    
C101  O81   A    
C225  O26   A    
C13   O59   A    
Cu30  O181  S    
Cu46  O80   S    
Cu48  O64   S    
C64   C171  A    
Cu35  O3    S    
Cu41  O49   S    
C217  O179  A    
C258  O152  A    
C93   C173  A    
Cu6   O115  S    
C36   C252  S    
Cu32  O45   S    
C222  O169  A    
C221  O188  A    
C161  F47   S    
C97   C142  A    
C227  O178  A    
C76   C190  S    
C100  C137  A    
Cu47  Cu48  S    
C251  O34   A    
C133  F19   S    
Cu44  O138  S    
C126  F11   S    
C258  O37   A    
C8    C129  A    
C284  O134  A    
C3    C115  A    
C27   C196  A    
C69   C175  A    
Cu19  O184  S    
Cu3   Cu14  S    
C70   C176  A    
C219  O155  A    
Cu19  O146  S    
C278  O95   A    
C90   O92   A    
C4    C109  A    
C34   C141  A    
Cu1   O94   S    
Cu18  Cu32  S    
C6    C111  A    
C163  F49   S    
C72   C178  A    
C87   C140  A    
C271  O90   A    
C216  O190  A    
C46   O103  A    
C284  O101  A    
C88   C139  A    
Cu11  O65   S    
C259  O38   A    
C39   C193  A    
C53   C203  A    
Cu28  O187  S    
C54   C192  A    
Cu4   Cu15  S    
C109  F45   S    
C13   O71   A    
C122  F8    S    
C32   C199  A    
Cu16  O126  S    
C86   C150  A    
Cu21  O169  S    
C79   C84   S    
C79   O85   A    
Cu35  O15   S    
C98   C147  A    
C67   C174  A    
Cu40  O48   S    
C82   C135  S    
C158  F43   S    
C97   C156  A    
C51   C250  S    
C51   C188  A    
C252  O36   A    
C179  O184  A    
C245  O89   A    
C285  O106  A    
C62   C230  S    
C251  O163  A    
C83   C184  A    
C106  F12   S    
C240  O19   A    
C179  O9    A    
C71   C235  S    
C104  C153  A    
C227  O32   A    
C236  O23   A    
C59   C165  A    
C1    C95   S    
C253  O139  A    
C74   C185  A    
C45   C196  A    
Cu4   O118  S    
C99   C145  A    
C72   C222  S    
C70   C198  A    
C232  O29   A    
C66   C191  A    
Cu7   O114  S    
Cu4   O92   S    
C216  O180  A    
Cu37  O51   S    
C190  O161  A    
C154  F40   S    
Cu27  O172  S    
Cu8   O96   S    
C53   C217  S    
C220  O189  A    
C281  O129  A    
Cu23  O68   S    
C41   C191  A    
C65   C172  A    
C226  O148  A    
Cu27  O186  S    
Cu39  O7    S    
Cu16  O132  S    
C105  F1    S    
C47   C254  S    
Cu17  O61   S    
C167  F53   S    
C160  F46   S    
C261  O131  A    
C63   C170  A    
C23   C123  A    
Cu1   O99   S    
C100  C223  S    
Cu44  O46   S    
Cu6   O69   S    
C200  F86   S    
Cu36  O4    S    
C44   C207  A    
C230  O140  A    
C197  F83   S    
C157  O73   A    
C59   C244  S    
C70   C233  S    
C198  F84   S    
C91   C144  A    
C135  O87   A    
C15   C261  S    
C196  F82   S    
C215  O164  A    
C14   C274  S    
C84   C183  A    
C59   C200  A    
C115  F89   S    
Cu27  O157  S    
C150  F36   S    
C265  O122  A    
Cu26  O156  S    
C55   C193  A    
Cu25  Cu39  S    
Cu30  O166  S    
Cu37  O12   S    
Cu28  O158  S    
Cu18  O179  S    
C43   C150  A    
Cu38  O11   S    
C28   C236  S    
Cu12  O95   S    
C145  F31   S    
Cu41  O32   S    
C260  O132  A    
C171  F57   S    
C229  O141  A    
Cu3   O100  S    
C10   C270  S    
C78   C175  A    
C81   C164  A    
Cu46  O160  S    
C65   C238  S    
C75   C186  A    
C264  O35   A    
C177  F63   S    
C92   C149  A    
Cu35  O31   S    
C17   C115  A    
C266  O13   A    
C38   C241  S    
C48   C154  A    
C2    O53   A    
C49   C221  S    
Cu1   O2    S    
Cu21  O141  S    
C248  O49   A    
C277  O118  A    
C168  O8    A    
C95   C167  A    
C21   C109  A    
Cu43  O28   S    
C107  F23   S    
C3    C108  A    
Cu22  O142  S    
C131  F17   S    
Cu22  O176  S    
C68   O55   A    
C205  F91   S    
C273  O138  A    
C193  F79   S    
C1    O61   A    
Cu31  O41   S    
C194  F80   S    
C187  F73   S    
C214  O165  A    
C10   C117  A    
Cu7   O87   S    
C18   C126  A    
C283  O110  A    
C41   C148  A    
C252  O162  A    
C33   C198  A    
C94   C112  S    
C95   C136  A    
C55   C259  S    
C54   C161  A    
C280  O130  A    
Cu5   O107  S    
C16   C127  A    
Cu45  O35   S    
C144  F30   S    
Cu9   O120  S    
C173  F59   S    
C56   C206  A    
C69   C204  A    
Cu47  O13   S    
Cu41  O20   S    
Cu42  O44   S    
C47   C197  A    
C67   C214  S    
C220  O4    A    
C75   C182  A    
C221  O5    A    
C35   O104  A    
C218  O6    A    
C151  F37   S    
C134  F20   S    
Cu34  O74   S    
C11   C269  S    
C96   C158  A    
Cu26  O145  S    
C259  O151  A    
C271  O160  A    
C104  C267  S    
C20   C129  A    
C232  O181  A    
Cu24  O143  S    
C26   C132  A    
C29   C237  S    
C135  O77   A    
C238  O21   A    
C282  C288  S    
C273  O136  A    
C68   C96   S    
C285  O133  A    
C86   C113  S    
C28   C134  A    
C189  F75   S    
C7    C114  A    
C169  F54   S    
C11   C125  A    
C186  F72   S    
C183  F69   S    
C268  O111  A    
Cu16  O52   S    
Cu36  O50   S    
Cu23  O83   S    
C80   C160  A    
C278  O52   A    
Cu12  O98   S    
Cu28  Cu40  S    
C240  O187  A    
C19   C128  A    
C52   C216  S    
C93   C148  A    
C162  F48   S    
C230  O31   A    
C15   C107  A    
Cu19  O180  S    
C42   C149  A    
C25   C125  A    
C21   C131  A    
C215  O11   A    
C96   C141  A    
C73   C180  A    
C254  O137  A    
Cu24  O189  S    
C5    C110  A    
C165  F51   S    
C244  O50   A    
C8    C114  A    
C22   C110  A    
C45   C152  A    
C166  F52   S    
C235  O144  A    
C159  F44   S    
C269  O128  A    
C61   C229  S    
C214  O10   A    
C34   C251  S    
C132  F18   S    
C117  C287  A    
C76   C183  A    
Cu29  O167  S    
Cu27  Cu41  S    
C224  O168  A    
Cu6   O108  S    
C238  O154  A    
C35   C92   S    
Cu25  O155  S    
Cu31  O190  S    
C206  F92   S    
Cu2   O60   S    
C30   C137  A    
C63   C207  A    
C147  F32   S    
C204  F90   S    
C141  F27   S    
C246  O142  A    
C239  O153  A    
C148  F33   S    
Cu46  O24   S    
C62   C195  A    
C30   C202  A    
C210  F96   S    
C255  O172  A    
Cu44  O103  S    
Cu15  O86   S    
Cu43  O36   S    
C241  O20   A    
Cu34  O127  S    
C44   C213  S    
C27   C133  A    
Cu31  O47   S    
Cu11  O136  S    
Cu22  O152  S    
C182  F68   S    
C10   C123  A    
Cu24  O151  S    
C18   C116  A    
Cu21  O159  S    
Cu26  Cu38  S    
C37   C240  S    
Cu24  Cu36  S    
C60   C166  A    
C77   C201  S    
C137  F22   S    
C52   C204  A    
Cu47  O71   S    
C2    C89   S    
C176  F62   S    
C285  C286  S    
C266  O112  A    
C136  F21   S    
C110  F56   S    
Cu40  O33   S    
C264  O123  A    
Cu43  O43   S    
C142  F28   S    
C268  O24   A    
Cu19  Cu31  S    
C270  O126  A    
C247  O158  A    
C31   C138  A    
Cu41  O39   S    
C213  O175  A    
Cu4   O102  S    
C282  O109  A    
C211  O176  A    
C222  O192  A    
C181  F66   S    
C112  O98   A    
Cu29  O162  S    
C91   C181  A    
C124  O88   A    
C98   C161  A    
C263  O107  A    
C26   C247  S    
C63   C218  S    
C35   O56   A    
C48   C220  S    
Cu5   O55   S    
C62   C169  A    
C53   C160  A    
Cu5   O117  S    
Cu3   O101  S    
C38   C144  A    
C254  O42   A    
Cu17  O131  S    
Cu11  O58   S    
C260  O182  A    
Cu16  O62   S    
C43   C211  S    
C71   C199  A    
C72   C205  A    
C22   C262  S    
Cu32  O42   S    
Cu25  O150  S    
C47   C153  A    
C51   C158  A    
C112  O62   A    
C85   C170  A    
C58   C205  A    
C129  F15   S    
C281  O114  A    
Cu15  O133  S    
C36   C187  A    
C89   C182  A    
C80   C174  A    
C89   C143  A    
C27   C248  S    
C256  O63   A    
C42   C189  A    
C101  O97   A    
C164  F50   S    
Cu38  O17   S    
C16   C260  S    
Cu12  O105  S    
C209  F95   S    
C84   C155  A    
C191  F76   S    
C261  O2    A    
C118  C286  A    
C40   C243  S    
Cu33  O22   S    
Cu5   Cu23  S    
C78   C159  A    
C29   C136  A    
C12   C122  A    
Cu28  O177  S    
C104  C132  A    
Cu44  O91   S    
C49   C209  A    
Cu40  O40   S    
C4    C279  S    
Cu12  O182  S    
Cu32  O191  S    
C61   C167  A    
C20   C119  A    
Cu2   Cu46  S    
C279  O124  A    
Cu12  Cu16  S    
Cu37  O5    S    
Cu42  O29   S    
C192  F77   S    
C9    C111  A    
Cu39  O26   S    
Cu3   O119  S    
C41   C227  S    
C60   C246  S    
Cu5   O67   S    
C12   C131  A    
C66   C239  S    
C24   C99   S    
Cu8   O88   S    
C69   C215  S    
Cu14  O134  S    
C138  F24   S    
Cu7   O109  S    
C212  O75   A    
C140  F26   S    
C64   C208  A    
C56   C163  A    
C190  O15   A    
C87   C234  S    
Cu45  O104  S    
Cu26  O148  S    
C202  F87   S    
C178  F64   S    
Cu10  O81   S    
Cu34  O84   S    
Cu30  O174  S    
C94   C169  A    
C272  O79   A    
C82   C163  A    
C33   C140  A    
C29   C194  A    
C5    C121  A    
Cu9   O130  S    
C77   C184  A    
C100  C166  A    
C102  C138  A    
C13   C98   S    
Cu46  O70   S    
C88   C245  S    
Cu18  O137  S    
C265  O46   A    
C231  O28   A    
C37   C186  A    
C50   C156  A    
Cu31  O9    S    
C15   C126  A    
C263  O68   A    
C228  O33   A    
C113  O96   A    
C66   C173  A    
C58   C179  S    
Cu21  Cu33  S    
C20   C272  S    
C277  O125  A    
C280  O113  A    
C52   C159  A    
C3    C283  S    
C155  F41   S    
C32   C231  S    
C239  O22   A    
C21   C263  S    
C57   O54   A    
Cu9   O82   S    
Cu3   O93   S    
C50   C187  A    
C225  O150  A    
C6    C120  A    
Cu15  O72   S    
Cu7   Cu10  S    
C250  O47   A    
C270  O105  A    
C228  O177  A    
Cu48  O112  S    
C276  O127  A    
Cu34  O57   S    
Cu1   O1    S    
C86   C171  A    
C5    C277  S    
C272  O171  A    
C174  F60   S    
C284  C287  S    
C172  F58   S    
C267  O64   A    
C23   C106  A    
C211  O12   A    
C102  C212  S    
C77   C210  A    
C243  O166  A    
C139  F25   S    
Cu24  O175  S    
C64   C219  S    
Cu14  O73   S    
C236  O174  A    
C175  F61   S    
C78   C157  S    
Cu20  O154  S    
C255  O39   A    
C125  F10   S    
C56   C168  S    
C257  O40   A    
C208  F94   S    
C31   C257  S    
C223  O69   A    
C34   C188  A    
C79   O93   A    
Cu20  Cu35  S    
C195  F81   S    
C37   C143  A    
C46   O58   A    
C256  O80   A    
Cu11  O122  S    
C48   C210  A    
C102  C165  A    
Cu28  O170  S    
C275  O116  A    
C224  O3    A    
C188  F74   S    
C229  O30   A    
C185  F71   S    
C17   C276  S    
C85   C101  S    
C18   C275  S    
C60   C202  A    
C83   C90   S    
C249  O45   A    
C247  O48   A    
Cu20  O140  S    
C73   C224  S    
C30   C255  S    
C276  O115  A    
C262  O57   A    
C75   C226  S    
C262  O108  A    
C55   C162  A    
C7    C281  S    
Cu18  O185  S    
Cu13  Cu45  S    
Cu29  Cu43  S    
Cu10  O121  S    
C38   C185  A    
Cu18  O147  S    
C23   C266  S    
Cu47  O171  S    
C105  C286  A    
C67   C203  A    
C149  F35   S    
C242  O43   A    
C71   C177  A    
C274  O149  A    
C107  C288  A    
C103  C133  A    
C92   C172  A    
Cu4   O106  S    
C233  O17   A    
C11   C118  A    
Cu22  Cu37  S    
C250  O146  A    
C76   C209  A    
C269  O1    A    
C61   C194  A    
Cu9   O76   S    
Cu8   O110  S    
C94   C134  A    
Cu47  O78   S    
Cu45  O89   S    
C116  C288  A    
Cu29  O173  S    
C46   C93   S    
Cu17  O53   S    
C241  O186  A    
C2    O94   A    
C16   C108  A    
C120  F6    S    
C50   C249  S    
Cu20  O168  S    
Cu42  O23   S    
C257  O170  A    
C82   C180  A    
C267  O78   A    
Cu30  Cu42  S    
C116  F2    S    
Cu13  O66   S    
C45   C253  S    
