data_mof_unit_30186.cif
_audit_creation_date              2012-12-10T19:12:18-0500
_audit_creation_method            fapswitch 2.2
_symmetry_space_group_name_H-M    P1
_symmetry_Int_Tables_number       1
_space_group_crystal_system       triclinic
_cell_length_a                    7.765769
_cell_length_b                    9.098558
_cell_length_c                    17.185288
_cell_angle_alpha                 89.571818
_cell_angle_beta                  92.822612
_cell_angle_gamma                 90.000151
_cell_volume                      1212.75892578

loop_
_atom_site_label
_atom_site_type_symbol
_atom_type_description
_atom_site_fract_x
_atom_site_fract_y
_atom_site_fract_z
_atom_type_partial_charge
C1    C     C_R   0.499981 0.219945 0.500006 0.852609
C2    C     C_R   0.500019 0.780055 0.499994 0.844732
C3    C     C_R   0.519045 0.501416 0.651340 0.812556
C4    C     C_R   0.480932 0.504782 0.348651 0.812569
C5    C     C_R   0.526438 0.505183 0.737226 -0.085436
C6    C     C_R   0.473382 0.509005 0.262744 -0.085422
C7    C     C_R   0.381285 0.543534 0.780076 0.119492
C8    C     C_R   0.618511 0.547070 0.219540 0.119736
C9    C     C_R   0.396788 0.541515 0.861262 -0.204397
C10   C     C_R   0.603126 0.544274 0.138362 -0.204405
C11   C     C_R   0.553267 0.503421 0.901159 0.333414
C12   C     C_R   0.446766 0.505664 0.098864 0.333475
C13   C     C_R   0.698215 0.470475 0.858742 0.158171
C14   C     C_R   0.301695 0.473474 0.141576 0.158160
C15   C     C_R   0.683501 0.470765 0.777353 -0.261034
C16   C     C_R   0.316305 0.474530 0.222944 -0.261005
C17   C     C_1   0.499994 0.065342 0.500003 -0.178696
C18   C     C_1   0.500005 0.934650 0.499999 -0.178371
Cu1   Cu    Cu3+1 0.669080 0.500010 0.500000 0.992591
Cu2   Cu    Cu3+1 0.330920 0.499990 0.500000 0.992459
H1    H     H_    0.714029 0.573728 0.105713 0.167344
H2    H     H_    0.285860 0.571333 0.893588 0.167493
H3    H     H_    0.795384 0.443013 0.745136 0.174142
H4    H     H_    0.204391 0.447067 0.255406 0.174337
N1    N     N_1   0.076820 0.499970 0.500010 -0.054087
N2    N     N_1   0.923180 0.500030 0.499990 -0.054057
N3    N     N_2   0.570105 0.501735 0.983748 -0.250500
N4    N     N_2   0.430092 0.502702 0.016321 -0.250831
O1    O     O_R   0.642760 0.288400 0.500000 -0.576287
O2    O     O_R   0.357240 0.711600 0.500000 -0.578071
O3    O     O_R   0.357190 0.288380 0.500000 -0.576293
O4    O     O_R   0.642810 0.711620 0.500000 -0.577953
O5    O     O_R   0.658410 0.498660 0.613920 -0.589273
O6    O     O_R   0.341590 0.501340 0.386080 -0.589359
O7    O     O_R   0.372840 0.498650 0.613930 -0.582169
O8    O     O_R   0.627160 0.501350 0.386070 -0.582066
C19   C     C_3   0.789653 0.594073 0.257111 -0.803788
H5    H     H_    0.770489 0.686998 0.297308 0.240848
H6    H     H_    0.851847 0.500097 0.289023 0.245650
H7    H     H_    0.880927 0.632302 0.213469 0.215534
C20   C     C_3   0.209996 0.590244 0.742102 -0.803238
H8    H     H_    0.228874 0.683223 0.701178 0.241136
H9    H     H_    0.148124 0.496155 0.710937 0.245540
H10   H     H_    0.118527 0.628315 0.785408 0.215334
C21   C     C_3   0.868548 0.434242 0.900157 -0.853591
H11   H     H_    0.969119 0.407939 0.858635 0.229452
H12   H     H_    0.913565 0.529736 0.935453 0.232029
H13   H     H_    0.853665 0.337664 0.939136 0.246819
C22   C     C_3   0.131403 0.436987 0.100504 -0.853574
H14   H     H_    0.030715 0.411352 0.142276 0.229473
H15   H     H_    0.086538 0.532111 0.064112 0.231942
H16   H     H_    0.146278 0.339915 0.062631 0.246868

loop_
_geom_bond_atom_site_label_1
_geom_bond_atom_site_label_2
_ccdc_geom_bond_type
C4    O8    A    
C19   H5    S    
C3    O7    A    
C2    C18   S    
C20   H9    S    
C20   H8    S    
C1    C17   S    
Cu1   Cu2   S    
C11   N3    S    
C2    O2    A    
C22   H16   S    
Cu2   O6    S    
C15   H3    S    
C17   C18   T    
C5    C7    A    
C16   H4    S    
Cu2   O2    S    
C21   H11   S    
C13   C21   S    
C11   C13   A    
C9    C11   A    
C10   C12   A    
C12   N4    S    
Cu1   O4    S    
C1    O1    A    
C12   C14   A    
C22   H14   S    
C19   H7    S    
C4    O6    A    
Cu1   O8    S    
C13   C15   A    
C10   H1    S    
Cu1   O5    S    
C19   H6    S    
C20   H10   S    
C14   C16   A    
C9    H2    S    
C5    C15   A    
C14   C22   S    
C8    C19   S    
C3    O5    A    
C6    C16   A    
Cu1   O1    S    
C1    O3    A    
C2    O4    A    
C4    C6    S    
Cu2   N1    S    
C21   H12   S    
N3    N4    D    
C7    C9    A    
Cu1   N2    S    
C6    C8    A    
C21   H13   S    
C3    C5    S    
N1    N2    T    
Cu2   O7    S    
C8    C10   A    
C7    C20   S    
C22   H15   S    
Cu2   O3    S    
