data_mof_unit_23655.cif
_audit_creation_date              2012-12-11T15:39:24-0500
_audit_creation_method            fapswitch 2.2
_symmetry_space_group_name_H-M    P1
_symmetry_Int_Tables_number       1
_space_group_crystal_system       triclinic
_cell_length_a                    14.291088
_cell_length_b                    14.753601
_cell_length_c                    33.19045
_cell_angle_alpha                 97.760352
_cell_angle_beta                  90.389822
_cell_angle_gamma                 118.674634
_cell_volume                      6062.89363246

loop_
_atom_site_label
_atom_site_type_symbol
_atom_type_description
_atom_site_fract_x
_atom_site_fract_y
_atom_site_fract_z
_atom_type_partial_charge
C1    C     C_R   0.617688 0.909434 0.436960 0.568806
C2    C     C_R   0.711393 0.435118 0.949840 0.574513
C3    C     C_R   0.596423 0.858334 0.778127 -0.123952
C4    C     C_R   0.609260 0.872892 0.737545 -0.112776
C5    C     C_R   0.618347 0.798892 0.709071 0.013342
C6    C     C_R   0.610343 0.708243 0.720947 -0.119503
C7    C     C_R   0.598999 0.694229 0.761636 -0.109954
C8    C     C_R   0.593899 0.770121 0.790780 0.025451
C9    C     C_R   0.546841 0.750740 0.637734 -0.157821
C10   C     C_R   0.546563 0.775187 0.598905 -0.165141
C11   C     C_R   0.724607 0.924890 0.615429 0.123735
C12   C     C_2   0.176876 0.040963 0.331241 0.557693
C13   C     C_R   0.710033 0.739796 0.950304 0.558817
C14   C     C_2   0.469647 0.699671 0.382399 0.586736
C15   C     C_2   0.785188 0.218827 0.698660 0.577559
C16   C     C_2   0.484336 0.273278 0.913321 0.589647
C17   C     C_R   0.784228 0.369387 0.154684 -0.116136
C18   C     C_R   0.806148 0.423004 0.121268 -0.129174
C19   C     C_R   0.696547 0.212756 0.216995 -0.111299
C20   C     C_R   0.675368 0.180700 0.255221 -0.110234
C21   C     C_R   0.613618 0.210644 0.280892 0.031480
C22   C     C_R   0.571900 0.271124 0.267354 -0.105519
C23   C     C_R   0.591881 0.301791 0.229243 -0.108421
C24   C     C_R   0.654830 0.273615 0.203915 0.029219
C25   C     C_R   0.678219 0.311995 0.164635 0.029235
C26   C     C_R   0.501379 0.164911 0.340013 -0.110142
C27   C     C_R   0.563945 0.152470 0.448709 0.559857
C28   C     C_R   0.491614 0.156357 0.381184 -0.115427
C29   C     C_R   0.671996 0.182298 0.388115 -0.120094
C30   C     C_R   0.682584 0.192751 0.347065 -0.115722
C31   C     C_R   0.597970 0.185968 0.322789 0.029397
C32   C     C_R   0.577222 0.166406 0.405731 0.012948
C33   C     C_R   0.244504 0.878251 0.393310 -0.014775
C34   C     C_R   0.220772 0.954300 0.382398 -0.146150
C35   C     C_R   0.197702 0.956386 0.341296 0.056753
C36   C     C_R   0.725326 0.900187 0.655039 0.127554
C37   C     C_R   0.198294 0.879494 0.310907 0.014345
C38   C     C_R   0.213925 0.799332 0.322178 -0.137118
C39   C     C_R   0.295269 0.892715 0.434382 0.544585
C40   C     C_R   0.236264 0.798302 0.362970 -0.121298
C41   C     C_R   0.199683 0.810750 0.163030 -0.119649
C42   C     C_R   0.169684 0.787317 0.121231 -0.123386
C43   C     C_R   0.094125 0.904241 0.129274 -0.132444
C44   C     C_R   0.123725 0.927119 0.171190 -0.106817
C45   C     C_R   0.172957 0.877354 0.188277 0.034858
C46   C     C_1   0.184188 0.883753 0.231763 0.010348
C47   C     C_R   0.632665 0.815577 0.666562 0.019711
C48   C     C_1   0.190509 0.883605 0.267956 0.034936
C49   C     C_R   0.112323 0.830198 0.104231 0.020910
C50   C     C_R   0.639632 0.878050 0.394812 0.035560
C51   C     C_R   0.614095 0.905172 0.551711 0.559187
C52   C     C_R   0.558806 0.790904 0.367911 0.014868
C53   C     C_R   0.564878 0.787994 0.325559 -0.123617
C54   C     C_R   0.652645 0.865329 0.309812 -0.009837
C55   C     C_R   0.739067 0.941643 0.335925 -0.110946
C56   C     C_R   0.734346 0.948024 0.378199 0.075644
C57   C     C_R   0.768096 0.929500 0.172808 -0.115412
C58   C     C_R   0.631788 0.865913 0.588141 0.035655
C59   C     C_R   0.787291 0.912413 0.131999 -0.127571
C60   C     C_R   0.613779 0.755825 0.119960 -0.124571
C61   C     C_R   0.594740 0.773207 0.160674 -0.111739
C62   C     C_R   0.673417 0.857847 0.187429 0.038661
C63   C     C_R   0.588889 0.197973 0.571269 0.544269
C64   C     C_1   0.663027 0.862938 0.230469 -0.024730
C65   C     C_1   0.656926 0.864135 0.266618 -0.022184
C66   C     C_R   0.712122 0.822813 0.105658 0.022116
C67   C     C_R   0.617192 0.239393 0.615253 -0.008019
C68   C     C_R   0.551666 0.269927 0.637938 -0.140618
C69   C     C_R   0.052523 0.781538 0.063792 0.542040
C70   C     C_R   0.559677 0.281483 0.680383 -0.153775
C71   C     C_R   0.632969 0.262604 0.700839 0.010606
C72   C     C_R   0.704266 0.238087 0.678691 0.067770
C73   C     C_R   0.696372 0.228290 0.635997 -0.125188
C74   C     C_R   0.759336 0.349307 0.844238 0.109252
C75   C     C_R   0.345165 0.910293 0.554960 0.562347
C76   C     C_R   0.774007 0.382666 0.886373 -0.136691
C77   C     C_R   0.581209 0.306690 0.890284 0.046945
C78   C     C_R   0.567330 0.275303 0.847773 -0.153975
C79   C     C_R   0.655720 0.299784 0.824838 0.035887
C80   C     C_R   0.742317 0.483414 0.065218 0.548791
C81   C     C_1   0.641412 0.281639 0.781114 0.039143
C82   C     C_1   0.635458 0.271743 0.744511 0.028508
C83   C     C_R   0.686793 0.368036 0.909430 -0.018850
C84   C     C_R   0.090572 0.768786 0.913835 0.023462
C85   C     C_R   0.135934 0.873921 0.908345 -0.119192
C86   C     C_R   0.193833 0.907555 0.874823 -0.115206
C87   C     C_R   0.722079 0.419676 0.097819 0.023932
C88   C     C_R   0.206291 0.836401 0.845838 0.029299
C89   C     C_R   0.164990 0.732154 0.852286 -0.111312
C90   C     C_R   0.107941 0.698693 0.886172 -0.121398
C91   C     C_R   0.742580 0.789575 0.066295 0.537437
C92   C     C_R   0.315972 0.829525 0.788097 -0.112452
C93   C     C_R   0.344782 0.846933 0.748656 -0.115010
C94   C     C_R   0.310144 0.903252 0.727498 0.030792
C95   C     C_R   0.250847 0.946410 0.747345 -0.108680
C96   C     C_R   0.221785 0.928784 0.786641 -0.104852
C97   C     C_R   0.251572 0.867809 0.806976 0.031937
C98   C     C_R   0.344135 0.997648 0.667230 -0.116330
C99   C     C_R   0.615960 0.356519 0.106444 -0.116700
C100  C     C_R   0.347916 0.997602 0.625234 -0.129030
C101  C     C_R   0.319672 0.820340 0.615628 -0.119940
C102  C     C_R   0.023098 0.733054 0.947730 0.545755
C103  C     C_R   0.314814 0.819950 0.657459 -0.114023
C104  C     C_R   0.326030 0.908218 0.683702 0.032255
C105  C     C_R   0.334486 0.908504 0.598993 0.013264
C106  C     C_R   0.657195 0.746933 0.913432 0.047426
C107  C     C_R   0.578670 0.656902 0.887606 0.087726
C108  C     C_R   0.551067 0.666544 0.848324 -0.102983
C109  C     C_R   0.600827 0.763704 0.834610 0.009273
C110  C     C_R   0.670010 0.853517 0.861939 -0.124770
C111  C     C_R   0.594294 0.303037 0.139455 -0.121231
C112  C     C_R   0.697375 0.845213 0.900926 -0.148497
Cr1   Cr    Cr6+3 0.424820 0.846020 0.489780 1.054280
Cr2   Cr    Cr6+3 0.657880 0.078580 0.505700 1.046707
Cr3   Cr    Cr6+3 0.417280 0.075360 0.504550 1.022148
Cr4   Cr    Cr6+3 0.903360 0.812540 0.006510 1.015126
Cr5   Cr    Cr6+3 0.914630 0.587050 0.006280 1.016770
Cr6   Cr    Cr6+3 0.673560 0.582680 0.008540 1.050907
H1    H     H_    0.549380 0.350483 0.088270 0.140655
H2    H     H_    0.102519 0.978665 0.190529 0.132262
H3    H     H_    0.049298 0.937877 0.117181 0.125853
H4    H     H_    0.888527 0.470583 0.114934 0.125599
H5    H     H_    0.863877 0.965115 0.121922 0.122554
H6    H     H_    0.829581 0.995132 0.193424 0.107573
H7    H     H_    0.809872 0.998055 0.323516 0.120817
H8    H     H_    0.521282 0.717320 0.171778 0.109914
H9    H     H_    0.554161 0.686456 0.100336 0.123275
H10   H     H_    0.501790 0.724571 0.304666 0.156701
H11   H     H_    0.855067 0.427172 0.900544 0.134734
H12   H     H_    0.417103 0.142010 0.393871 0.151696
H13   H     H_    0.758282 0.209817 0.334784 0.106365
H14   H     H_    0.747045 0.204203 0.618801 0.167893
H15   H     H_    0.490073 0.279196 0.622834 0.136455
H16   H     H_    0.487579 0.233037 0.832269 0.149480
H17   H     H_    0.506104 0.302042 0.697259 0.111398
H18   H     H_    0.125387 0.930043 0.929699 0.127457
H19   H     H_    0.073787 0.617263 0.889816 0.120212
H20   H     H_    0.299243 0.749245 0.669038 0.109953
H21   H     H_    0.707657 0.133205 0.264775 0.105749
H22   H     H_    0.391235 0.813471 0.734219 0.114122
H23   H     H_    0.850008 0.377483 0.174017 0.110125
H24   H     H_    0.341422 0.783652 0.803358 0.109854
H25   H     H_    0.226553 0.988729 0.871000 0.127327
H26   H     H_    0.221249 0.988527 0.731673 0.105519
H27   H     H_    0.170646 0.957889 0.800126 0.111173
H28   H     H_    0.354896 0.067480 0.686786 0.107982
H29   H     H_    0.361676 0.067361 0.613336 0.138285
H30   H     H_    0.172246 0.675283 0.830154 0.112870
H31   H     H_    0.311096 0.751058 0.596322 0.132306
H32   H     H_    0.744999 0.190069 0.197673 0.107563
H33   H     H_    0.756024 0.915560 0.920394 0.133563
H34   H     H_    0.738833 0.188802 0.406194 0.140416
H35   H     H_    0.612735 0.942078 0.728305 0.158661
H36   H     H_    0.590801 0.917093 0.799750 0.118301
H37   H     H_    0.494739 0.597354 0.827709 0.100165
H38   H     H_    0.616126 0.650143 0.698968 0.116849
H39   H     H_    0.599328 0.626430 0.770537 0.111845
H40   H     H_    0.476468 0.684799 0.646182 0.120493
H41   H     H_    0.475492 0.726661 0.578292 0.140509
H42   H     H_    0.709935 0.929568 0.852292 0.119557
H43   H     H_    0.511946 0.257987 0.146403 0.113435
H44   H     H_    0.526698 0.298013 0.286764 0.120484
H45   H     H_    0.184878 0.730157 0.102725 0.126038
H46   H     H_    0.560672 0.350465 0.219984 0.113279
H47   H     H_    0.433787 0.156660 0.321796 0.129844
H48   H     H_    0.116236 0.093520 0.290649 0.334267
H49   H     H_    0.844809 0.099650 0.396267 0.222110
H50   H     H_    0.890515 0.013704 0.397781 0.245674
H51   H     H_    0.317412 0.581954 0.371786 0.341986
H52   H     H_    0.921403 0.415477 0.839151 0.213163
H53   H     H_    0.846064 0.300028 0.809404 0.264453
H54   H     H_    0.928196 0.222879 0.696393 0.346712
H55   H     H_    0.326967 0.229303 0.912557 0.332312
H56   H     H_    0.237909 0.771943 0.175982 0.107644
H57   H     H_    0.488341 0.496615 0.875485 0.234400
H58   H     H_    0.479563 0.552627 0.921676 0.235552
H59   H     H_    0.881453 0.952831 0.671185 0.219223
H60   H     H_    0.809871 0.939087 0.711335 0.245759
H61   H     H_    0.881527 0.997563 0.604823 0.231913
H62   H     H_    0.834238 0.078904 0.623921 0.279020
H63   H     H_    0.213472 0.739620 0.299097 0.128157
H64   H     H_    0.253432 0.738368 0.370426 0.180785
H65   H     H_    0.224756 0.014901 0.405913 0.161192
N1    N     N_3   0.825977 0.026779 0.404028 -0.582704
N2    N     N_3   0.849772 0.371472 0.820620 -0.599844
N3    N     N_3   0.533192 0.555469 0.899974 -0.581255
N4    N     N_3   0.819277 0.963749 0.682919 -0.618067
N5    N     N_3   0.816618 0.011596 0.603352 -0.586228
O1    O     O_R   0.318160 0.824460 0.443680 -0.494405
O2    O     O_R   0.668160 0.499860 0.053480 -0.512506
O3    O     O_R   0.689170 0.693840 0.050110 -0.504308
O4    O     O_R   0.525040 0.857250 0.449830 -0.470586
O5    O     O_R   0.803860 0.812940 0.962540 -0.523370
O6    O     O_R   0.982950 0.787950 0.964120 -0.497911
O7    O     O_R   0.007050 0.649970 0.960540 -0.520453
O8    O     O_R   0.807910 0.482370 0.965590 -0.514051
O9    O     O_R   0.643310 0.460980 0.963840 -0.454059
O10   O     O_R   0.666140 0.657800 0.967020 -0.473810
O11   O     O_3   0.830520 0.660760 0.007110 -0.242653
O12   O     O_R   0.645130 0.163230 0.552140 -0.495523
O13   O     O_R   0.684760 0.998800 0.456360 -0.481094
O14   O     O_R   0.647540 0.166310 0.470260 -0.494247
O15   O     O_R   0.500960 0.181750 0.467450 -0.495951
O16   O     O_R   0.331100 0.981120 0.457080 -0.516852
O17   O     O_R   0.315560 0.821140 0.532010 -0.506787
O18   O     O_R   0.522630 0.854180 0.531710 -0.524251
O19   O     O_R   0.682160 0.995480 0.544690 -0.469388
O20   O     O_2   0.202932 0.119423 0.356402 -0.535881
O21   O     O_R   0.125903 0.030880 0.293493 -0.708094
O22   O     O_2   0.483557 0.670370 0.413552 -0.491394
O23   O     O_R   0.498360 0.178430 0.555780 -0.521486
O24   O     O_R   0.371309 0.643265 0.359087 -0.732507
O25   O     O_2   0.768996 0.182923 0.730596 -0.532210
O26   O     O_R   0.879895 0.240239 0.680323 -0.716789
O27   O     O_2   0.487788 0.259536 0.948704 -0.510616
O28   O     O_R   0.387561 0.253196 0.893965 -0.728357
O29   O     O_R   0.328690 0.978040 0.538950 -0.493501
O30   O     O_3   0.499990 0.999990 0.500010 -0.306210
O31   O     O_R   0.828710 0.851830 0.052170 -0.521605
O32   O     O_R   0.005980 0.823990 0.047210 -0.501564
O33   O     O_R   0.031900 0.688850 0.050170 -0.516498
O34   O     O_R   0.830940 0.518420 0.048680 -0.500368

loop_
_geom_bond_atom_site_label_1
_geom_bond_atom_site_label_2
_ccdc_geom_bond_type
C89   H30   S    
C41   H56   S    
C26   H47   S    
C93   C94   A    
C69   O32   A    
C84   C102  S    
C41   C42   A    
Cr5   O33   S    
C95   C96   A    
C111  H43   S    
C15   O25   D    
C1    O13   A    
C102  O7    A    
C81   C82   T    
C2    C83   S    
C51   O18   A    
C7    C8    A    
C54   C65   S    
C106  C112  A    
C53   C54   A    
Cr2   O19   S    
C96   H27   S    
C5    C47   S    
C107  N3    S    
C100  C105  A    
C29   C30   A    
C38   H63   S    
C74   C76   A    
C27   O15   A    
C12   O20   D    
C20   H21   S    
C21   C22   A    
C68   H15   S    
C10   C58   A    
C12   O21   S    
C34   C35   A    
C80   C87   S    
C59   C66   A    
C85   C86   A    
C5    C6    A    
C22   H44   S    
C51   O19   A    
C57   C59   A    
C106  C107  A    
C44   H2    S    
C100  H29   S    
C30   H13   S    
C2    O9    A    
C19   H32   S    
C108  C109  A    
C36   C47   A    
C17   H23   S    
C16   C77   S    
Cr6   O3    S    
C16   O28   S    
C62   C64   S    
H62   N5    S    
C14   C52   S    
C19   C20   A    
H50   N1    S    
Cr3   O15   S    
C86   H25   S    
C50   C52   A    
C107  C108  A    
Cr2   O14   S    
Cr3   O30   S    
C61   H8    S    
C67   C73   A    
Cr4   O32   S    
C11   C58   A    
C92   H24   S    
C9    C10   A    
C43   H3    S    
C2    O8    A    
C88   C97   S    
Cr5   O11   S    
C6    H38   S    
C74   N2    S    
Cr4   O6    S    
C4    H35   S    
C73   H14   S    
C94   C104  S    
C95   H26   S    
C101  C103  A    
C49   C69   S    
C39   O16   A    
C96   C97   A    
C59   H5    S    
Cr5   O34   S    
C94   C95   A    
C84   C90   A    
Cr2   O30   S    
C15   O26   S    
H54   O26   S    
Cr6   O11   S    
C102  O6    A    
C76   C83   A    
C92   C97   A    
C17   C18   A    
C40   H64   S    
C101  C105  A    
C46   C48   T    
C112  H33   S    
C33   C40   A    
C13   O10   A    
C14   O22   D    
C86   C88   A    
C11   N5    S    
C55   H7    S    
C28   C32   A    
H55   O28   S    
C24   C25   S    
C3    C8    A    
C103  H20   S    
C79   C81   S    
Cr4   O11   S    
H53   N2    S    
C42   H45   S    
C43   C49   A    
H61   N5    S    
C98   H28   S    
C57   C62   A    
C9    C47   A    
C77   C78   A    
H51   O24   S    
C91   O3    A    
C3    H36   S    
C50   C56   A    
C67   C68   A    
C60   C61   A    
C12   C35   S    
Cr1   O17   S    
C16   O27   D    
C43   C44   A    
C63   C67   S    
C37   C38   A    
Cr5   O7    S    
C53   H10   S    
C21   C31   S    
C76   H11   S    
H49   N1    S    
C23   C24   A    
C99   C111  A    
Cr3   O16   S    
C20   C21   A    
C55   C56   A    
C33   C34   A    
Cr2   O13   S    
C34   H65   S    
C51   C58   S    
C33   C39   S    
C84   C85   A    
Cr4   O31   S    
C78   H16   S    
C63   O12   A    
C6    C7    A    
C18   H4    S    
H60   N4    S    
H57   N3    S    
C75   C105  S    
C98   C100  A    
C74   C79   A    
C70   H17   S    
Cr4   O5    S    
C3    C4    A    
Cr6   O10   S    
Cr1   O30   S    
C13   C106  S    
C90   H19   S    
C110  H42   S    
C52   C53   A    
C80   O34   A    
C23   H46   S    
C1    C50   S    
Cr1   O4    S    
C54   C55   A    
C11   C36   A    
C41   C45   A    
C37   C48   S    
C35   C37   A    
C27   C32   S    
C78   C79   A    
C80   O2    A    
C60   H9    S    
C44   C45   A    
C77   C83   A    
C63   O23   A    
C72   C73   A    
H58   N3    S    
C66   C91   S    
C7    H39   S    
C14   O24   S    
C29   C32   A    
C99   H1    S    
Cr1   O1    S    
C26   C28   A    
C18   C87   A    
H59   N4    S    
Cr3   O23   S    
C36   N4    S    
C17   C25   A    
C64   C65   T    
C71   C82   S    
C19   C24   A    
C89   C90   A    
C71   C72   A    
H48   O21   S    
C93   H22   S    
C8    C109  S    
Cr1   O18   S    
C57   H6    S    
C38   C40   A    
C75   O17   A    
C28   H12   S    
C30   C31   A    
C108  H37   S    
C9    H40   S    
C98   C104  A    
C4    C5    A    
Cr6   O2    S    
H52   N2    S    
C101  H31   S    
C92   C93   A    
C15   C72   S    
C69   O33   A    
C56   N1    S    
C91   O31   A    
C61   C62   A    
C110  C112  A    
C70   C71   A    
C25   C111  A    
C85   H18   S    
C60   C66   A    
C1    O4    A    
C45   C46   S    
C26   C31   A    
C88   C89   A    
C68   C70   A    
C109  C110  A    
C103  C104  A    
Cr5   O8    S    
C39   O1    A    
C75   O29   A    
C22   C23   A    
Cr3   O29   S    
C13   O5    A    
Cr2   O12   S    
C42   C49   A    
C27   O14   A    
Cr6   O9    S    
C10   H41   S    
C87   C99   A    
C29   H34   S    
