data_mof_unit_54071.cif
_audit_creation_date              2012-10-26T19:52:49-0400
_audit_creation_method            fapswitch 2.2
_symmetry_space_group_name_H-M    P1
_symmetry_Int_Tables_number       1
_space_group_crystal_system       triclinic
_cell_length_a                    15.090288
_cell_length_b                    10.843107
_cell_length_c                    9.533249
_cell_angle_alpha                 90.974516
_cell_angle_beta                  89.448991
_cell_angle_gamma                 90.140247
_cell_volume                      1559.58184271

loop_
_atom_site_label
_atom_site_type_symbol
_atom_type_description
_atom_site_fract_x
_atom_site_fract_y
_atom_site_fract_z
_atom_type_partial_charge
C1    C     C_R   0.495741 0.262250 0.498409 0.542367
C2    C     C_R   0.184199 0.447352 0.619558 0.260655
C3    C     C_R   0.231557 0.489769 0.501053 -0.008092
C4    C     C_R   0.328575 0.496647 0.500520 0.558924
C5    C     C_R   0.185930 0.524548 0.380577 -0.190120
C6    C     C_R   0.485954 0.066515 0.621926 -0.000505
C7    C     C_R   0.482986 0.128998 0.495316 0.012582
C8    C     C_R   0.464005 0.059625 0.370710 -0.031119
C9    C     C_R   0.465909 0.930400 0.375787 -0.139807
C10   C     C_R   0.484957 0.870364 0.501463 -0.005947
C11   C     C_R   0.486174 0.939959 0.625540 0.017423
C12   C     C_R   0.908072 0.523857 0.376597 0.015957
C13   C     C_3   0.548210 0.939291 0.746606 -0.275185
C14   C     C_3   0.548217 0.079058 0.741962 -0.261231
C15   C     C_R   0.574761 0.531130 0.073146 0.160671
C16   C     C_R   0.497300 0.737713 0.500931 0.548011
C17   C     C_R   0.429548 0.456137 0.074620 -0.023670
C18   C     C_R   0.429547 0.456438 0.925904 -0.018193
C19   C     C_R   0.575136 0.529513 0.925647 0.155536
C20   C     C_3   0.625000 0.647728 0.919698 -0.280249
C21   C     C_3   0.622826 0.651431 0.078844 -0.274247
C22   C     C_R   0.671350 0.499257 0.499507 0.549523
C23   C     C_R   0.950318 0.425858 0.742580 -0.156672
C24   C     C_R   0.815725 0.524943 0.376914 -0.139174
C25   C     C_R   0.768074 0.496340 0.499043 -0.014024
C26   C     C_R   0.813012 0.464235 0.621163 -0.141582
C27   C     C_R   0.905271 0.460202 0.621752 0.012078
C28   C     C_R   0.953160 0.490936 0.499397 0.065189
C29   C     C_3   0.243041 0.275398 0.712748 -0.134429
C30   C     C_3   0.444970 0.117828 0.231386 -0.380276
C31   C     C_R   0.042539 0.421145 0.742225 -0.123990
C32   C     C_R   0.091253 0.452365 0.621384 0.024348
C33   C     C_R   0.046146 0.488746 0.499789 0.015967
C34   C     C_R   0.093738 0.522608 0.378320 -0.003361
C35   C     C_R   0.048375 0.555557 0.256918 -0.124161
C36   C     C_R   0.956017 0.555392 0.255767 -0.134212
Cu1   Cu    Cu3+1 0.500000 0.499980 0.640670 0.950867
Cu2   Cu    Cu3+1 0.500000 0.500020 0.359330 0.922905
H1    H     H_    0.781125 0.549242 0.282558 0.114505
H2    H     H_    0.585694 0.721443 0.872005 0.147132
H3    H     H_    0.689657 0.643625 0.125049 0.115649
H4    H     H_    0.776232 0.440893 0.715386 0.121227
H5    H     H_    0.581479 0.727605 0.123299 0.147318
H6    H     H_    0.914211 0.402119 0.837214 0.106641
H7    H     H_    0.075474 0.393909 0.837235 0.154835
H8    H     H_    0.222231 0.554395 0.288406 0.134405
H9    H     H_    0.084335 0.581306 0.162872 0.114809
H10   H     H_    0.922103 0.580781 0.160840 0.103290
H11   H     H_    0.287255 0.257699 0.620497 0.123623
H12   H     H_    0.456558 0.877002 0.279910 0.134452
H13   H     H_    0.179536 0.224090 0.700137 0.113190
H14   H     H_    0.276501 0.238539 0.806214 0.124262
H15   H     H_    0.505371 0.163831 0.190096 0.158252
H16   H     H_    0.424185 0.048229 0.151319 0.103669
H17   H     H_    0.390045 0.185258 0.243538 0.141985
H18   H     H_    0.515540 0.904492 0.843147 0.130369
H19   H     H_    0.613576 0.897730 0.719295 0.133195
H20   H     H_    0.516329 0.123230 0.835632 0.137189
H21   H     H_    0.613396 0.118725 0.710823 0.142213
H22   H     H_    0.371973 0.421892 0.129998 0.118468
H23   H     H_    0.372193 0.422648 0.871041 0.173381
H24   H     H_    0.692716 0.635169 0.874833 0.123280
N1    N     N_R   0.500570 0.500930 0.147930 -0.232316
N2    N     N_R   0.500570 0.500890 0.852020 -0.236735
O1    O     O_R   0.500000 0.319640 0.618810 -0.506258
O2    O     O_R   0.500010 0.319680 0.381230 -0.507540
O3    O     O_R   0.370250 0.499950 0.618800 -0.459129
O4    O     O_R   0.370260 0.499990 0.381220 -0.529196
O5    O     O_R   0.499990 0.680320 0.618770 -0.497118
O6    O     O_R   0.500000 0.680360 0.381190 -0.509846
O7    O     O_R   0.629740 0.500010 0.618780 -0.508113
O8    O     O_R   0.629750 0.500050 0.381200 -0.500664
O9    O     O_3   0.228413 0.402878 0.734554 -0.583179

loop_
_geom_bond_atom_site_label_1
_geom_bond_atom_site_label_2
_ccdc_geom_bond_type
Cu2   O6    S    
Cu1   O5    S    
C35   C36   A    
C35   H9    S    
C7    C8    A    
C29   H11   S    
C15   C19   A    
C14   H21   S    
C30   H16   S    
C26   C27   A    
C12   C28   A    
C20   H2    S    
C13   H19   S    
C24   H1    S    
C2    C32   A    
C34   C35   A    
C21   H5    S    
Cu2   O2    S    
C8    C9    A    
C22   C25   S    
Cu1   O1    S    
C1    O1    A    
C23   C27   A    
C12   C36   A    
C9    C10   A    
C13   H18   S    
C13   C14   S    
C22   O8    A    
C33   C34   A    
C14   H20   S    
C30   H15   S    
Cu2   O8    S    
C9    H12   S    
C16   O6    A    
C24   C25   A    
C6    C11   A    
C4    O4    A    
C25   C26   A    
C23   H6    S    
C1    O2    A    
Cu1   Cu2   S    
C6    C14   S    
C31   C32   A    
C19   N2    A    
C5    C34   A    
C17   C18   A    
C2    O9    S    
C21   H3    S    
Cu2   O4    S    
C28   C33   A    
Cu1   O7    S    
C3    C4    S    
C22   O7    A    
Cu1   N2    S    
C26   H4    S    
Cu2   N1    S    
C29   H13   S    
C1    C7    S    
C16   O5    A    
C3    C5    A    
C4    O3    A    
C18   H23   S    
C6    C7    A    
C30   H17   S    
C12   C24   A    
C8    C30   S    
C32   C33   A    
C19   C20   S    
C2    C3    A    
C10   C16   S    
C17   N1    A    
C11   C13   S    
C18   N2    A    
Cu1   O3    S    
C36   H10   S    
C20   H24   S    
C10   C11   A    
C17   H22   S    
C15   C21   S    
C29   O9    S    
C20   C21   S    
C31   H7    S    
C27   C28   A    
C15   N1    A    
C23   C31   A    
C5    H8    S    
C29   H14   S    
