data_mof_unit_50345.cif
_audit_creation_date              2013-03-05T15:44:31-0500
_audit_creation_method            fapswitch 2.2
_symmetry_space_group_name_H-M    P1
_symmetry_Int_Tables_number       1
_space_group_crystal_system       triclinic
_cell_length_a                    15.743457
_cell_length_b                    10.701914
_cell_length_c                    10.079308
_cell_angle_alpha                 90.357185
_cell_angle_beta                  89.713
_cell_angle_gamma                 90.400049
_cell_volume                      1698.11811701

loop_
_atom_site_label
_atom_site_type_symbol
_atom_site_description
_atom_site_fract_x
_atom_site_fract_y
_atom_site_fract_z
_atom_type_partial_charge
O1    O     O_R   0.499990 0.319060 0.613040 -0.607704
O2    O     O_R   0.500010 0.319100 0.386900 -0.547620
C1    C     C_R   0.502459 0.262883 0.499241 0.972212
O3    O     O_R   0.377130 0.499990 0.613120 -0.596434
O4    O     O_R   0.377160 0.500030 0.386980 -0.579471
C2    C     C_R   0.338500 0.499769 0.500313 0.885432
Zn1   Zn    Zn3+2 0.499980 0.499970 0.650990 1.048220
Zn2   Zn    Zn3+2 0.500020 0.500030 0.349010 1.145555
O5    O     O_R   0.499990 0.680900 0.613100 -0.626058
O6    O     O_R   0.500010 0.680940 0.386960 -0.601950
O7    O     O_R   0.622840 0.499970 0.613020 -0.596745
O8    O     O_R   0.622870 0.500010 0.386880 -0.559303
C3    C     C_R   0.503683 0.737288 0.500736 0.956539
C4    C     C_R   0.661496 0.499912 0.499736 0.911363
C5    C     C_3   0.050429 0.464347 0.647665 -0.401336
C6    C     C_3   0.047793 0.387600 0.407869 0.241149
C7    C     C_3   0.949542 0.392027 0.409109 -0.431308
H1    H     H_    0.076171 0.373512 0.680782 0.246033
H2    H     H_    0.069788 0.410986 0.305717 0.130132
H3    H     H_    0.921676 0.298729 0.430270 0.280833
H4    H     H_    0.927276 0.416188 0.307765 0.198640
C8    C     C_1   0.750273 0.497525 0.500100 -0.004497
C9    C     C_3   0.082816 0.490320 0.504541 -0.067885
C10   C     C_3   0.950324 0.463617 0.655359 0.487433
C11   C     C_3   0.917031 0.491823 0.510203 -0.028920
C12   C     C_3   0.951277 0.621640 0.465999 -0.470968
C13   C     C_3   0.049146 0.618756 0.454445 0.111185
C14   C     C_1   0.825477 0.494878 0.503889 0.104921
C15   C     C_1   0.174418 0.493191 0.502092 0.071508
C16   C     C_1   0.249685 0.496694 0.500996 -0.027778
H5    H     H_    0.065287 0.625555 0.346790 0.144220
H6    H     H_    0.930203 0.695470 0.536740 0.259074
H7    H     H_    0.080324 0.531992 0.716793 0.246610
H8    H     H_    0.924295 0.646750 0.367780 0.209968
C17   C     C_2   0.533119 0.932653 0.393993 -0.152577
C18   C     C_2   0.519981 0.868156 0.504818 -0.364455
H9    H     H_    0.534258 0.887449 0.297668 0.252139
H10   H     H_    0.525967 0.910817 0.602466 0.182444
C19   C     C_2   0.546301 0.066662 0.401200 0.338052
C20   C     C_2   0.504262 0.130502 0.496214 -0.394514
H11   H     H_    0.463172 0.085280 0.568434 0.156429
C21   C     C_2   0.503284 0.599744 0.925749 -0.088915
N1    N     N_2   0.500900 0.501330 0.852150 -0.184903
H12   H     H_    0.498051 0.690100 0.878574 0.198555
H13   H     H_    0.518186 0.418535 0.895497 0.216270
C22   C     C_2   0.523939 0.594445 0.071372 0.331256
N2    N     N_2   0.500920 0.501360 0.147810 -0.053009
N3    N     N_R   0.921765 0.340451 0.705006 0.242946
O9    O     O_R   0.949433 0.302246 0.819212 -0.280423
O10   O     O_R   0.859043 0.279295 0.650784 -0.331498
N4    N     N_R   0.917927 0.559073 0.749879 0.211126
O11   O     O_R   0.968416 0.625831 0.824103 -0.296682
O12   O     O_R   0.836790 0.564489 0.774540 -0.330053
N5    N     N_R   0.602440 0.125619 0.306541 0.250884
O13   O     O_R   0.611024 0.078143 0.188121 -0.274991
O14   O     O_R   0.655864 0.211581 0.345285 -0.363233
N6    N     N_R   0.574650 0.695298 0.123610 0.197276
O15   O     O_R   0.573475 0.803890 0.066259 -0.358024
O16   O     O_R   0.635209 0.672487 0.206841 -0.337004
N7    N     N_R   0.436296 0.423861 0.100099 0.253929
O17   O     O_R   0.440390 0.304338 0.121044 -0.306217
O18   O     O_R   0.363933 0.471391 0.064903 -0.354116
S1    S     S_3+6 0.084971 0.230105 0.435753 0.076685
O19   O     O_2   0.060066 0.150928 0.318373 -0.199105
O20   O     O_2   0.179999 0.228292 0.448691 -0.273997
O21   O     O_3   0.040611 0.168517 0.572800 -0.493867
H14   H     H_    0.066030 0.084481 0.580717 0.425796
N8    N     N_R   0.088682 0.726956 0.521024 0.235328
O22   O     O_R   0.073532 0.752096 0.645243 -0.309471
O23   O     O_R   0.136721 0.802880 0.453181 -0.325114

loop_
_geom_bond_atom_site_label_1
_geom_bond_atom_site_label_2
_geom_bond_distance
_ccdc_geom_bond_type
O4    Zn2   1.969859 S    
C17   C19   1.449075 S    
S1    O20   1.502679 D    
C12   H6    1.112227 S    
C15   C16   1.185289 T    
C6    S1    1.812124 S    
C9    C13   1.564205 S    
C5    H1    1.109757 S    
C17   C18   1.331283 D    
Zn2   O8    1.973265 S    
C7    C11   1.558757 S    
C4    C8    1.398102 S    
C10   N4    1.483788 S    
C18   H10   1.086629 S    
O21   H14   0.990749 S    
N6    O15   1.301474 A    
S1    O21   1.680930 S    
C11   C12   1.553761 S    
C8    C14   1.185313 T    
C11   C14   1.443702 S    
Zn1   O7    1.969857 S    
N3    O10   1.301554 A    
N1    H13   1.029287 S    
C12   C13   1.545107 S    
C6    C7    1.547846 S    
C21   H12   1.084052 S    
N7    O17   1.299820 A    
O3    Zn1   1.973268 S    
N3    O9    1.302053 A    
C9    C15   1.442334 S    
C5    C9    1.553697 S    
C20   H11   1.085304 S    
C2    C16   1.398391 S    
O8    C4    1.292545 A    
C1    C20   1.417346 S    
O2    C1    1.286407 A    
C6    C9    1.563812 S    
Zn1   N1    2.027639 S    
C6    H2    1.114043 S    
C22   N6    1.436893 S    
O4    C2    1.291666 A    
O7    C4    1.291189 A    
N5    O14   1.301636 A    
Zn2   N2    2.028074 S    
C19   N5    1.442507 S    
N6    O16   1.298525 A    
C21   N1    1.284902 D    
N4    O12   1.301725 A    
C13   H5    1.115907 S    
N4    O11   1.301270 A    
C10   N3    1.479078 S    
C7    H3    1.109280 S    
C10   C11   1.588032 S    
C3    C18   1.422463 S    
N7    O18   1.302619 A    
O3    C2    1.292116 A    
C21   C22   1.506460 S    
C19   C20   1.346756 D    
Zn1   O5    1.975934 S    
N8    O23   1.301141 A    
O5    C3    1.287474 A    
N5    O13   1.301090 A    
C5    C10   1.577482 S    
O1    Zn1   1.971168 S    
C13   N8    1.470719 S    
C17   H9    1.082160 S    
N2    N7    1.393706 S    
C22   N2    1.311121 D    
C12   H8    1.114383 S    
Zn2   O6    1.971168 S    
O2    Zn2   1.975933 S    
S1    O19   1.502993 D    
C5    H7    1.106032 S    
N8    O22   1.300226 A    
O1    C1    1.292237 A    
O6    C3    1.293700 A    
C7    H4    1.114130 S    
