data_mof_unit_24109.cif
_audit_creation_date              2012-12-10T19:44:59-0500
_audit_creation_method            fapswitch 2.2
_symmetry_space_group_name_H-M    P1
_symmetry_Int_Tables_number       1
_space_group_crystal_system       triclinic
_cell_length_a                    15.045265
_cell_length_b                    10.78379
_cell_length_c                    13.797089
_cell_angle_alpha                 89.209078
_cell_angle_beta                  91.638022
_cell_angle_gamma                 88.594505
_cell_volume                      2236.68481443

loop_
_atom_site_label
_atom_site_type_symbol
_atom_type_description
_atom_site_fract_x
_atom_site_fract_y
_atom_site_fract_z
_atom_type_partial_charge
C1    C     C_R   0.499688 0.262554 0.500568 0.915797
C2    C     C_R   0.631660 0.865729 0.390025 0.097692
C3    C     C_R   0.289837 0.169854 0.573810 -0.164807
C4    C     C_R   0.712343 0.830361 0.437257 -0.153780
C5    C     C_R   0.228357 0.237146 0.627658 -0.123045
C6    C     C_R   0.778057 0.766402 0.386890 -0.123921
C7    C     C_R   0.250004 0.271091 0.722722 -0.089652
C8    C     C_R   0.762863 0.735143 0.289938 -0.090349
C9    C     C_R   0.438555 0.934381 0.555921 0.364427
C10   C     C_R   0.561886 0.065609 0.444353 0.378536
C11   C     C_R   0.500454 0.871565 0.498672 -0.138961
C12   C     C_R   0.500530 0.737433 0.499473 0.897549
C13   C     C_R   0.500035 0.128395 0.501622 -0.134896
C14   C     C_R   0.562573 0.935328 0.443179 -0.163377
C15   C     C_R   0.438704 0.064586 0.558125 -0.176336
C16   C     C_R   0.328715 0.501347 0.498932 0.826949
C17   C     C_R   0.671277 0.498612 0.501060 0.837705
C18   C     C_R   0.558943 0.422979 0.796989 0.082823
C19   C     C_R   0.441389 0.578353 0.203740 0.084084
C20   C     C_R   0.440583 0.573379 0.790442 0.037995
C21   C     C_R   0.556734 0.423230 0.209066 0.033227
C22   C     C_R   0.439769 0.575423 0.892633 -0.024144
C23   C     C_R   0.047983 0.598648 0.659966 -0.023362
C24   C     C_R   0.556117 0.420288 0.106954 -0.071064
C25   C     C_R   0.497456 0.496050 0.948229 0.036062
C26   C     C_R   0.497583 0.499308 0.051643 0.012773
C27   C     C_R   0.555314 0.413914 0.900427 -0.157460
C28   C     C_R   0.439466 0.581225 0.099630 -0.082456
C29   C     C_R   0.382370 0.656480 0.939604 -0.282026
C30   C     C_R   0.611332 0.336379 0.059637 -0.171495
C31   C     C_R   0.381450 0.661676 0.041688 0.423718
C32   C     C_R   0.608926 0.328262 0.958524 0.413019
C33   C     C_R   0.812596 0.449573 0.422288 -0.184800
C34   C     C_R   0.952000 0.401213 0.340002 -0.028320
C35   C     C_R   0.187384 0.549568 0.577932 -0.197878
C36   C     C_R   0.768065 0.494925 0.502617 -0.069576
C37   C     C_R   0.231910 0.505033 0.497323 -0.065643
C38   C     C_R   0.815721 0.540294 0.582121 -0.244757
C39   C     C_R   0.184220 0.461101 0.417266 -0.181476
C40   C     C_R   0.908159 0.542164 0.581564 0.080487
C41   C     C_R   0.091793 0.458462 0.418113 0.077164
C42   C     C_R   0.953476 0.497171 0.500510 0.053527
C43   C     C_R   0.046500 0.502820 0.499399 0.048135
C44   C     C_R   0.905609 0.447458 0.420503 0.017942
C45   C     C_R   0.332612 0.235834 0.764758 -0.133141
C46   C     C_R   0.094375 0.552185 0.579538 0.018702
C47   C     C_R   0.955312 0.591241 0.660272 -0.230888
C48   C     C_R   0.044621 0.409398 0.339404 -0.227391
C49   C     C_2   0.635554 0.364140 0.749535 0.939269
C50   C     C_2   0.376912 0.656615 0.255236 1.016573
C51   C     C_2   0.092905 0.658940 0.743538 0.828397
C52   C     C_2   0.907124 0.340604 0.256551 0.832078
C53   C     C_R   0.682637 0.770269 0.242501 -0.126657
C54   C     C_R   0.393649 0.166557 0.711779 -0.083266
C55   C     C_R   0.617576 0.836765 0.291959 -0.091133
C56   C     C_R   0.372871 0.134402 0.615606 0.100178
Cu1   Cu    Cu3+1 0.500010 0.499980 0.597420 0.991764
Cu2   Cu    Cu3+1 0.499990 0.500020 0.402580 0.984814
H1    H     H_    0.773618 0.418785 0.360638 0.191081
H2    H     H_    0.080512 0.374032 0.278094 0.179902
H3    H     H_    0.202772 0.324727 0.763737 0.144702
H4    H     H_    0.813368 0.684077 0.251551 0.147776
H5    H     H_    0.349407 0.262303 0.838306 0.134883
H6    H     H_    0.671053 0.746596 0.167285 0.144693
H7    H     H_    0.457540 0.139823 0.744866 0.143004
H8    H     H_    0.556373 0.865392 0.254097 0.178400
H9    H     H_    0.272968 0.145613 0.499738 0.138832
H10   H     H_    0.724371 0.852838 0.512690 0.143571
H11   H     H_    0.164253 0.264101 0.595347 0.147924
H12   H     H_    0.226336 0.579625 0.639845 0.191626
H13   H     H_    0.840520 0.740140 0.423244 0.151876
H14   H     H_    0.340669 0.917977 0.646962 0.343591
H15   H     H_    0.658202 0.082414 0.351483 0.342270
H16   H     H_    0.768458 0.360262 0.734560 0.343963
H17   H     H_    0.347138 0.823995 0.310902 0.333163
H18   H     H_    0.289864 0.793895 0.034053 0.333294
H19   H     H_    0.614388 0.188915 0.874766 0.320588
H20   H     H_    0.183628 0.780787 0.790754 0.329905
H21   H     H_    0.816696 0.218178 0.209593 0.338813
H22   H     H_    0.395152 0.633103 0.747813 0.165829
H23   H     H_    0.601635 0.362316 0.251330 0.166407
H24   H     H_    0.338263 0.717555 0.896317 0.138000
H25   H     H_    0.653992 0.271962 0.101649 0.164027
H26   H     H_    0.780661 0.578277 0.642971 0.188467
H27   H     H_    0.219228 0.424961 0.355675 0.179106
H28   H     H_    0.919392 0.626998 0.721428 0.185753
N1    N     N_R   0.499960 0.499900 0.743810 -0.231236
N2    N     N_R   0.500040 0.500100 0.256190 -0.243389
O1    O     O_R   0.500000 0.319630 0.582270 -0.561117
O2    O     O_3   0.622052 0.135371 0.393841 -0.722832
O3    O     O_2   0.626733 0.269729 0.702767 -0.603868
O4    O     O_R   0.720202 0.411149 0.766513 -0.744429
O5    O     O_2   0.301550 0.620059 0.266225 -0.581807
O6    O     O_R   0.397884 0.778180 0.278964 -0.762713
O7    O     O_3   0.324856 0.746173 0.084566 -0.708472
O8    O     O_3   0.655858 0.230487 0.920195 -0.699141
O9    O     O_2   0.069719 0.636134 0.826008 -0.568377
O10   O     O_R   0.158731 0.745831 0.728061 -0.765607
O11   O     O_2   0.930029 0.363601 0.174011 -0.561706
O12   O     O_R   0.500000 0.680370 0.417730 -0.581436
O13   O     O_R   0.841671 0.253218 0.272220 -0.763831
O14   O     O_R   0.499990 0.319660 0.417730 -0.565056
O15   O     O_R   0.500010 0.680340 0.582270 -0.557708
O16   O     O_R   0.370260 0.499960 0.582280 -0.590631
O17   O     O_R   0.629740 0.500040 0.417720 -0.587019
O18   O     O_R   0.370250 0.499990 0.417740 -0.589181
O19   O     O_R   0.629750 0.500010 0.582260 -0.589904
O20   O     O_3   0.378347 0.864666 0.606427 -0.727318

loop_
_geom_bond_atom_site_label_1
_geom_bond_atom_site_label_2
_ccdc_geom_bond_type
C51   O9    D    
C40   C47   A    
C38   C40   A    
C22   C29   A    
C39   C41   A    
C54   H7    S    
C9    O20   S    
Cu1   O1    S    
C7    C45   A    
C35   C37   A    
C24   C26   A    
H15   O2    S    
H17   O6    S    
C2    C55   A    
C17   O19   A    
H18   O7    S    
C53   H6    S    
C20   N1    A    
C33   C36   A    
H16   O4    S    
C30   H25   S    
C7    H3    S    
C5    H11   S    
C16   O16   A    
H14   O20   S    
C35   H12   S    
C22   C25   A    
H20   O10   S    
Cu2   O14   S    
C17   C36   S    
C16   O18   A    
C16   C37   S    
C51   O10   S    
C40   C42   A    
C21   N2    A    
C33   H1    S    
C23   C46   A    
C41   C43   A    
C42   C44   A    
C49   O3    D    
C48   H2    S    
C53   C55   A    
C6    H13   S    
Cu1   O15   S    
C54   C56   A    
C52   O13   S    
C23   C47   A    
C20   H22   S    
C47   H28   S    
C34   C44   A    
C12   O15   A    
C4    C6    A    
C19   N2    A    
C10   C14   A    
C5    C7    A    
C50   O6    S    
C6    C8    A    
C25   C26   A    
C45   H5    S    
Cu1   N1    S    
Cu2   O18   S    
C2    C4    A    
C17   O17   A    
C3    C56   A    
C23   C51   S    
Cu2   O12   S    
C19   C28   A    
C9    C11   A    
C32   O8    S    
C21   H23   S    
C45   C54   A    
C13   C15   A    
C1    C13   S    
C42   C43   A    
C39   H27   S    
C49   O4    S    
C55   H8    S    
C4    H10   S    
Cu1   O16   S    
C1    O1    A    
C52   O11   D    
C38   H26   S    
C27   C32   A    
C33   C44   A    
C26   C28   A    
C28   C31   A    
C3    H9    S    
C18   C27   A    
C20   C22   A    
C3    C5    A    
C10   C13   A    
Cu2   N2    S    
C8    C53   A    
C11   C12   S    
C50   O5    D    
C25   C27   A    
H19   O8    S    
C34   C52   S    
C18   N1    A    
Cu2   O17   S    
C15   C56   S    
C36   C38   A    
C9    C15   A    
C29   H24   S    
C37   C39   A    
C30   C32   A    
C19   C50   S    
Cu1   Cu2   S    
C31   O7    S    
C11   C14   A    
C41   C48   A    
C2    C14   S    
C43   C46   A    
C24   C30   A    
C12   O12   A    
C34   C48   A    
C10   O2    S    
C29   C31   A    
C21   C24   A    
Cu1   O19   S    
H21   O13   S    
C35   C46   A    
C1    O14   A    
C18   C49   S    
C8    H4    S    
