data_mof_unit_32909.cif
_audit_creation_date              2012-12-11T15:42:44-0500
_audit_creation_method            fapswitch 2.2
_symmetry_space_group_name_H-M    P1
_symmetry_Int_Tables_number       1
_space_group_crystal_system       triclinic
_cell_length_a                    6.941859
_cell_length_b                    14.555338
_cell_length_c                    16.2311
_cell_angle_alpha                 90.502303
_cell_angle_beta                  90.149513
_cell_angle_gamma                 90.119361
_cell_volume                      1639.93602054

loop_
_atom_site_label
_atom_site_type_symbol
_atom_type_description
_atom_site_fract_x
_atom_site_fract_y
_atom_site_fract_z
_atom_type_partial_charge
O1    O     O_R   0.505810 0.583360 0.413880 -0.541571
O2    O     O_R   0.175870 0.595480 0.585520 -0.545912
O3    O     O_R   0.005540 0.416640 0.586120 -0.549771
C1    C     C_R   0.345232 0.617618 0.614488 0.711253
O4    O     O_R   0.176100 0.594390 0.414490 -0.526332
O5    O     O_R   0.005770 0.415540 0.413870 -0.532739
C2    C     C_R   0.345116 0.618874 0.388194 0.739228
O6    O     O_R   0.505580 0.584460 0.586130 -0.549892
O7    O     O_3   0.339190 0.441320 0.500000 -0.368271
V1    V     V_3+5 0.064350 0.510890 0.500000 1.493342
O8    O     O_R   0.676050 0.404520 0.414480 -0.526468
C3    C     C_R   0.844928 0.382264 0.385709 0.768506
O9    O     O_R   0.675830 0.405610 0.585510 -0.540277
C4    C     C_R   0.845158 0.383388 0.613480 0.754619
V2    V     V_3+5 0.564340 0.489110 0.500000 1.484353
O10   O     O_3   0.839370 0.558680 0.500000 -0.374992
C5    C     C_2   0.720947 0.208035 0.785265 -0.140831
C6    C     C_2   0.885532 0.182080 0.822900 -0.285303
H1    H     H_    0.585298 0.178434 0.805227 0.135651
H2    H     H_    0.022813 0.210857 0.804812 0.135181
C7    C     C_2   0.708688 0.276350 0.717271 -0.125943
C8    C     C_2   0.861873 0.314812 0.679985 -0.287441
H3    H     H_    0.564776 0.294958 0.697094 0.134031
H4    H     H_    0.006907 0.296462 0.698069 0.127014
C9    C     C_R   0.011910 0.261350 0.187568 -0.049384
C10   C     C_R   0.998165 0.325798 0.253339 -0.042108
C11   C     C_R   0.856908 0.314439 0.316108 -0.181712
C12   C     C_R   0.728301 0.238621 0.310782 0.010715
C13   C     C_R   0.739290 0.177783 0.243461 -0.122199
H5    H     H_    0.641419 0.119653 0.240422 0.155893
C14   C     C_R   0.880884 0.186846 0.182729 -0.145726
C15   C     C_R   0.193269 0.735668 0.707586 -0.229313
H6    H     H_    0.056861 0.722882 0.677073 0.122600
C16   C     C_R   0.203220 0.802513 0.770939 0.443983
C17   C     C_R   0.377093 0.814550 0.816288 -0.132985
C18   C     C_R   0.540487 0.764522 0.791447 -0.228390
H7    H     H_    0.676349 0.773107 0.823525 0.181362
C19   C     C_R   0.531198 0.702158 0.725336 -0.155733
H8    H     H_    0.660478 0.665118 0.708327 0.133533
C20   C     C_R   0.356897 0.686125 0.683163 -0.088442
C21   C     C_R   0.198994 0.749315 0.305640 -0.072431
C22   C     C_R   0.199530 0.800449 0.231681 -0.065051
C23   C     C_R   0.371521 0.809429 0.184947 -0.126442
C24   C     C_R   0.523982 0.750598 0.203713 -0.070257
H9    H     H_    0.646923 0.747158 0.164690 0.141034
C25   C     C_R   0.513115 0.689060 0.268840 -0.079077
H10   H     H_    0.630437 0.641111 0.277510 0.156383
C26   C     C_R   0.354010 0.688718 0.321804 -0.115122
O11   O     O_R   0.230120 0.912300 0.917180 -0.509961
O12   O     O_R   0.559740 0.902430 0.088770 -0.544159
O13   O     O_R   0.729930 0.081310 0.089370 -0.536202
C27   C     C_R   0.389238 0.878159 0.116204 0.712748
O14   O     O_R   0.559840 0.901330 0.917750 -0.551882
O15   O     O_R   0.730030 0.080210 0.917120 -0.546878
C28   C     C_R   0.390308 0.880479 0.887550 0.702025
O16   O     O_R   0.230020 0.913400 0.089430 -0.532071
O17   O     O_3   0.396460 0.055470 0.003290 -0.374585
V3    V     V_3+5 0.671360 0.985960 0.003250 1.472808
O18   O     O_R   0.059740 0.091300 0.917690 -0.544243
C29   C     C_R   0.890906 0.113368 0.889630 0.757920
O19   O     O_R   0.059640 0.092400 0.088720 -0.533709
C30   C     C_R   0.890891 0.116065 0.116123 0.759836
V4    V     V_3+5 0.171350 0.007820 0.003190 1.523596
O20   O     O_3   0.896380 0.938200 0.003220 -0.371317
O21   O     O_3   0.040967 0.853143 0.791846 -0.572158
C31   C     C_3   0.980459 0.909148 0.725556 0.068054
H11   H     H_    0.840408 0.940167 0.743511 0.139778
H12   H     H_    0.951592 0.868768 0.668381 0.113243
C32   C     C_3   0.123796 0.987442 0.708579 -0.358989
H13   H     H_    0.151109 0.026892 0.766245 0.194438
H14   H     H_    0.263131 0.958743 0.686900 0.186097
C33   C     C_3   0.046831 0.052207 0.642825 -0.778687
H15   H     H_    0.028161 0.014739 0.583402 0.247435
H16   H     H_    0.150449 0.109453 0.633753 0.226706
H17   H     H_    0.906190 0.081538 0.661931 0.238039
C34   C     C_2   0.044750 0.763534 0.367972 0.804772
O22   O     O_2   0.875124 0.762041 0.348017 -0.553397
O23   O     O_R   0.095644 0.778416 0.450491 -0.666583
H18   H     H_    0.979457 0.786379 0.487588 0.283916
C35   C     C_2   0.015287 0.822313 0.191670 0.811057
O24   O     O_2   0.908805 0.881774 0.219323 -0.549092
O25   O     O_R   0.973841 0.777173 0.117224 -0.663051
H19   H     H_    0.860862 0.803949 0.086668 0.299469
C36   C     C_2   0.154453 0.275737 0.120858 0.782224
O26   O     O_2   0.099054 0.287582 0.050173 -0.570371
O27   O     O_R   0.351440 0.273627 0.138704 -0.630751
H20   H     H_    0.434142 0.283078 0.088079 0.299786
C37   C     C_2   0.122728 0.408872 0.252652 0.782309
O28   O     O_2   0.050565 0.484546 0.242699 -0.572118
O29   O     O_R   0.321204 0.400501 0.265059 -0.628200
H21   H     H_    0.390446 0.461850 0.263468 0.281772
C38   C     C_2   0.587305 0.217169 0.376563 0.797378
O30   O     O_2   0.426535 0.189012 0.358169 -0.541766
O31   O     O_R   0.640255 0.225675 0.459499 -0.670883
H22   H     H_    0.531972 0.208599 0.498311 0.287080

loop_
_geom_bond_atom_site_label_1
_geom_bond_atom_site_label_2
_ccdc_geom_bond_type
C9    C14   A    
C31   H12   S    
C22   C35   S    
O11   V4    S    
C21   C22   A    
C17   C18   A    
C1    O6    A    
O29   H21   S    
O15   C29   A    
C10   C11   A    
C18   H7    S    
C34   O23   S    
C32   H13   S    
O5    C3    A    
C19   H8    S    
C23   C27   S    
C31   C32   S    
V2    O10   S    
O19   V4    S    
C16   C17   A    
C32   H14   S    
O8    V2    S    
C1    C20   S    
C9    C36   S    
O12   C27   A    
O1    V2    S    
O7    V1    S    
C31   H11   S    
O18   C29   A    
O1    C2    A    
O9    C4    A    
C14   C30   S    
O31   H22   S    
O13   C30   A    
C33   H17   S    
C16   O21   S    
C24   C25   A    
O17   V4    S    
O14   C28   A    
V3    O20   S    
C25   C26   A    
C3    C11   S    
C17   C28   S    
O12   V3    S    
C36   O26   D    
C33   H16   S    
O4    C2    A    
O23   H18   S    
C35   O24   D    
C9    C10   A    
O11   C28   A    
C5    C7    S    
C15   C16   A    
C32   C33   S    
O2    C1    A    
C23   C24   A    
C13   H5    S    
O8    C3    A    
C38   O31   S    
C5    C6    D    
O16   V4    S    
C12   C38   S    
O13   V3    S    
C34   O22   D    
O3    C4    A    
C35   O25   S    
C37   O29   S    
O21   C31   S    
O6    V2    S    
O9    V2    S    
C8    H4    S    
C22   C23   A    
O2    V1    S    
C24   H9    S    
O15   V3    S    
C6    C29   S    
C25   H10   S    
C12   C13   A    
O27   H20   S    
C36   O27   S    
C33   H15   S    
O5    V1    S    
O14   V3    S    
O18   V4    S    
C2    C26   S    
C4    C8    S    
C7    H3    S    
O7    V2    S    
O4    V1    S    
C13   C14   A    
O3    V1    S    
V1    O10   S    
C15   H6    S    
C21   C34   S    
C19   C20   A    
O17   V3    S    
C18   C19   A    
C38   O30   D    
C5    H1    S    
C21   C26   A    
C6    H2    S    
C15   C20   A    
O19   C30   A    
V4    O20   S    
C37   O28   D    
C10   C37   S    
O25   H19   S    
C11   C12   A    
C7    C8    D    
C27   O16   A    
