data_mof_unit_61054.cif
_audit_creation_date              2012-12-10T18:44:29-0500
_audit_creation_method            fapswitch 2.2
_symmetry_space_group_name_H-M    P1
_symmetry_Int_Tables_number       1
_space_group_crystal_system       triclinic
_cell_length_a                    12.95233
_cell_length_b                    19.375479
_cell_length_c                    18.231404
_cell_angle_alpha                 90.757469
_cell_angle_beta                  97.13538
_cell_angle_gamma                 91.724058
_cell_volume                      4537.15711856

loop_
_atom_site_label
_atom_site_type_symbol
_atom_type_description
_atom_site_fract_x
_atom_site_fract_y
_atom_site_fract_z
_atom_type_partial_charge
C1    C     C_R   0.499673 0.367745 0.499547 0.857309
C2    C     C_R   0.500327 0.632255 0.500452 0.857310
C3    C     C_R   0.502416 0.852200 0.503150 0.036525
C4    C     C_R   0.497583 0.147800 0.496849 0.036526
C5    C     C_R   0.422459 0.814967 0.531360 -0.177056
C6    C     C_R   0.577539 0.185034 0.468637 -0.177056
C7    C     C_R   0.421401 0.742946 0.531067 0.131985
C8    C     C_R   0.578598 0.257054 0.468931 0.131985
C9    C     C_R   0.501015 0.707676 0.501570 -0.113395
C10   C     C_R   0.498985 0.292324 0.498430 -0.113396
C11   C     C_R   0.425113 0.959753 0.455381 -0.200718
C12   C     C_R   0.574887 0.040247 0.544618 -0.200717
C13   C     C_R   0.422110 0.031757 0.451905 0.176241
C14   C     C_R   0.577889 0.968243 0.548093 0.176240
C15   C     C_R   0.497722 0.072119 0.497302 0.054791
C16   C     C_R   0.502278 0.927881 0.502697 0.054792
C17   C     C_R   0.424822 0.461908 0.712762 0.094437
C18   C     C_R   0.575178 0.538092 0.287238 0.094436
C19   C     C_R   0.420367 0.460692 0.789711 -0.270292
C20   C     C_R   0.579633 0.539308 0.210289 -0.270293
C21   C     C_R   0.493313 0.499576 0.838428 0.066835
C22   C     C_R   0.506687 0.500424 0.161572 0.066835
C23   C     C_R   0.300486 0.502331 0.485738 0.860158
C24   C     C_R   0.699514 0.497669 0.514262 0.860158
C25   C     C_R   0.569701 0.537819 0.807599 -0.242634
C26   C     C_R   0.430299 0.462181 0.192401 -0.242633
C27   C     C_R   0.573067 0.537914 0.730786 0.382232
C28   C     C_R   0.426933 0.462086 0.269214 0.382233
C29   C     C_R   0.521097 0.560684 0.963718 -0.168327
C30   C     C_R   0.478903 0.439316 0.036282 -0.168327
C31   C     C_R   0.527711 0.560655 0.041286 -0.157864
C32   C     C_R   0.472289 0.439345 0.958714 -0.157864
C33   C     C_R   0.506406 0.500021 0.078920 0.122742
C34   C     C_R   0.493594 0.499979 0.921080 0.122742
C35   C     C_R   0.812317 0.492876 0.522694 -0.089452
C36   C     C_R   0.187683 0.507123 0.477305 -0.089452
C37   C     C_R   0.026133 0.553386 0.420090 -0.180675
C38   C     C_R   0.973867 0.446614 0.579910 -0.180676
C39   C     C_R   0.133513 0.547769 0.422398 0.145592
C40   C     C_R   0.866487 0.452231 0.577602 0.145591
C41   C     C_R   0.133983 0.473882 0.529580 -0.233254
C42   C     C_R   0.866017 0.526118 0.470420 -0.233252
C43   C     C_R   0.027147 0.480037 0.527610 0.128254
C44   C     C_R   0.972853 0.519962 0.472390 0.128254
C45   C     C_R   0.581235 0.745492 0.472914 0.108847
C46   C     C_R   0.418766 0.254507 0.527087 0.108849
C47   C     C_R   0.581088 0.817385 0.473615 -0.154022
C48   C     C_R   0.418913 0.182615 0.526385 -0.154023
Cu1   Cu    Cu3+1 0.499970 0.500000 0.573360 0.992680
Cu2   Cu    Cu3+1 0.500030 0.500000 0.426640 0.992680
H1    H     H_    0.824236 0.556456 0.427543 0.172617
H2    H     H_    0.175764 0.443544 0.572457 0.172617
H3    H     H_    0.367570 0.432023 0.676361 0.152299
H4    H     H_    0.632429 0.567977 0.323639 0.152298
H5    H     H_    0.359458 0.430172 0.810713 0.148382
H6    H     H_    0.640542 0.569828 0.189287 0.148382
H7    H     H_    0.629330 0.566249 0.843812 0.137902
H8    H     H_    0.370670 0.433751 0.156188 0.137902
H9    H     H_    0.536662 0.608784 0.936986 0.137431
H10   H     H_    0.463338 0.391216 0.063014 0.137431
H11   H     H_    0.547219 0.608617 0.071686 0.140626
H12   H     H_    0.452781 0.391383 0.928314 0.140626
H13   H     H_    0.984635 0.584983 0.378293 0.168546
H14   H     H_    0.015365 0.415017 0.621707 0.168546
H15   H     H_    0.642490 0.846273 0.451158 0.167493
H16   H     H_    0.357512 0.153727 0.548844 0.167493
H17   H     H_    0.360915 0.842034 0.553539 0.167444
H18   H     H_    0.639082 0.157966 0.446456 0.167444
H19   H     H_    0.367812 0.928052 0.420586 0.161178
H20   H     H_    0.632188 0.071948 0.579412 0.161179
N1    N     N_R   0.499990 0.500020 0.683620 -0.168432
N2    N     N_R   0.500010 0.499980 0.316380 -0.168432
O1    O     O_R   0.499960 0.400180 0.561970 -0.550131
O2    O     O_R   0.500040 0.599820 0.438030 -0.550131
O3    O     O_R   0.500010 0.400190 0.438070 -0.580915
O4    O     O_R   0.499990 0.599810 0.561930 -0.580916
O5    O     O_R   0.348980 0.499990 0.551890 -0.579352
O6    O     O_R   0.651020 0.500010 0.448110 -0.579352
O7    O     O_R   0.349030 0.499990 0.427990 -0.575304
O8    O     O_R   0.650970 0.500010 0.572010 -0.575304
C49   C     C_3   0.662055 0.578409 0.704313 -0.752441
H21   H     H_    0.636711 0.610496 0.656513 0.251679
H22   H     H_    0.699601 0.614980 0.747751 0.185102
H23   H     H_    0.723309 0.543019 0.691828 0.248729
C50   C     C_3   0.337945 0.421590 0.295687 -0.752442
H24   H     H_    0.363289 0.389503 0.343487 0.251678
H25   H     H_    0.276691 0.456981 0.308172 0.248729
H26   H     H_    0.300399 0.385020 0.252249 0.185102
I1    I     I_    0.792755 0.391498 0.653675 -0.332208
I2    I     I_    0.207245 0.608502 0.346325 -0.332208
I3    I     I_    0.708435 0.698296 0.431527 -0.429268
I4    I     I_    0.291568 0.301704 0.568477 -0.429268
I5    I     I_    0.294599 0.691173 0.572824 -0.328795
I6    I     I_    0.705399 0.308827 0.427173 -0.328796
C51   C     C_3   0.340230 0.064449 0.398572 -0.825426
H27   H     H_    0.287829 0.094792 0.429313 0.238499
H28   H     H_    0.378021 0.099055 0.361038 0.241426
H29   H     H_    0.291690 0.025054 0.364066 0.231982
C52   C     C_3   0.659770 0.935551 0.601426 -0.825426
H30   H     H_    0.621979 0.900943 0.638959 0.241427
H31   H     H_    0.712172 0.905210 0.570684 0.238499
H32   H     H_    0.708309 0.974946 0.635933 0.231982

loop_
_geom_bond_atom_site_label_1
_geom_bond_atom_site_label_2
_ccdc_geom_bond_type
C38   C40   A    
C9    C45   A    
C31   H11   S    
C51   H27   S    
C5    H17   S    
Cu2   O7    S    
C49   H21   S    
C51   H29   S    
C27   N1    A    
C14   C52   S    
C50   H24   S    
C42   C44   A    
C13   C51   S    
C19   C21   A    
Cu2   O2    S    
C8    C10   A    
C46   I4    S    
C45   C47   A    
Cu1   Cu2   S    
C35   C42   A    
Cu2   N2    S    
C12   H20   S    
C37   H13   S    
C24   O8    A    
C29   H9    S    
C30   H10   S    
C10   C46   A    
C31   C33   A    
C40   I1    S    
C39   I2    S    
C18   C20   A    
C2    O2    A    
C20   H6    S    
C42   H1    S    
C6    H18   S    
C41   C43   A    
C36   C41   A    
C28   N2    A    
C25   H7    S    
Cu2   O6    S    
C49   H22   S    
C38   H14   S    
C50   H25   S    
C18   N2    A    
C7    I5    S    
C46   C48   A    
C24   C35   S    
C1    O3    A    
C27   C49   S    
C8    I6    S    
C4    C6    A    
C5    C7    A    
C6    C8    A    
C21   C34   S    
C29   C34   A    
C32   C34   A    
C43   C44   A    
C11   C16   A    
C52   H30   S    
C12   C15   A    
C51   H28   S    
Cu1   O4    S    
C23   O5    A    
C26   H8    S    
C24   O6    A    
C52   H31   S    
C12   C14   A    
C17   N1    A    
C13   C15   A    
Cu1   N1    S    
C14   C16   A    
C17   H3    S    
C49   H23   S    
C2    O4    A    
C4    C48   A    
C50   H26   S    
C19   H5    S    
C7    C9    A    
C22   C33   S    
C21   C25   A    
C41   H2    S    
C30   C33   A    
C36   C39   A    
C1    C10   S    
C20   C22   A    
C3    C5    A    
C11   H19   S    
C25   C27   A    
C26   C28   A    
Cu1   O8    S    
C1    O1    A    
C37   C44   A    
C35   C40   A    
C32   H12   S    
C38   C43   A    
C29   C31   A    
Cu2   O3    S    
C30   C32   A    
C11   C13   A    
C4    C15   S    
C3    C47   A    
C17   C19   A    
Cu1   O5    S    
Cu1   O1    S    
C45   I3    S    
C18   H4    S    
C52   H32   S    
C37   C39   A    
C23   C36   S    
C22   C26   A    
C28   C50   S    
C48   H16   S    
C23   O7    A    
C2    C9    S    
C47   H15   S    
C3    C16   S    
