data_mof_unit_65924.cif
_audit_creation_date              2012-12-10T18:48:19-0500
_audit_creation_method            fapswitch 2.2
_symmetry_space_group_name_H-M    P1
_symmetry_Int_Tables_number       1
_space_group_crystal_system       triclinic
_cell_length_a                    13.89508
_cell_length_b                    18.149272
_cell_length_c                    19.459608
_cell_angle_alpha                 90.08746
_cell_angle_beta                  90.324798
_cell_angle_gamma                 84.957194
_cell_volume                      4888.3563324

loop_
_atom_site_label
_atom_site_type_symbol
_atom_type_description
_atom_site_fract_x
_atom_site_fract_y
_atom_site_fract_z
_atom_type_partial_charge
C1    C     C_R   0.500179 0.500011 0.632481 0.794149
C2    C     C_R   0.499821 0.499989 0.367519 0.794150
C3    C     C_R   0.499257 0.433139 0.255573 -0.140705
C4    C     C_R   0.500744 0.566861 0.744426 -0.140706
C5    C     C_R   0.499582 0.499937 0.292028 -0.047062
C6    C     C_R   0.500418 0.500063 0.707972 -0.047062
C7    C     C_R   0.559654 0.447135 0.036024 -0.158363
C8    C     C_R   0.440346 0.552865 0.963976 -0.158363
C9    C     C_R   0.559981 0.447217 0.964467 -0.156763
C10   C     C_R   0.440019 0.552782 0.035533 -0.156762
C11   C     C_R   0.500327 0.500082 0.927898 0.091934
C12   C     C_R   0.499672 0.499918 0.072102 0.091934
C13   C     C_R   0.560403 0.275396 0.543558 -0.160162
C14   C     C_R   0.439596 0.724603 0.456442 -0.160162
C15   C     C_R   0.562067 0.197826 0.544950 0.620851
C16   C     C_R   0.437933 0.802174 0.455050 0.620850
C17   C     C_R   0.500936 0.161341 0.500892 0.054115
C18   C     C_R   0.499064 0.838659 0.499108 0.054114
C19   C     C_R   0.439270 0.204932 0.456695 -0.336199
C20   C     C_R   0.560731 0.795068 0.543304 -0.336199
C21   C     C_R   0.439888 0.282287 0.456903 0.769311
C22   C     C_R   0.560113 0.717713 0.543096 0.769311
C23   C     C_R   0.683190 0.488167 0.500046 0.827463
C24   C     C_R   0.316810 0.511833 0.499954 0.827464
C25   C     C_R   0.413714 0.044877 0.508427 0.468776
C26   C     C_R   0.586286 0.955122 0.491573 0.468777
C27   C     C_R   0.413103 0.967400 0.507842 0.565906
C28   C     C_R   0.586898 0.032599 0.492158 0.565907
C29   C     C_R   0.499356 0.921404 0.499224 -0.274657
C30   C     C_R   0.500644 0.078596 0.500776 -0.274659
C31   C     C_1   0.213751 0.518946 0.499887 -0.125072
C32   C     C_1   0.786249 0.481054 0.500113 -0.125072
C33   C     C_2   0.023434 0.530509 0.499771 -0.142731
C34   C     C_2   0.976566 0.469490 0.500228 -0.142732
C35   C     C_1   0.873018 0.475307 0.500170 0.040728
C36   C     C_1   0.126982 0.524693 0.499830 0.040728
C37   C     C_R   0.499690 0.566728 0.255724 -0.166059
C38   C     C_R   0.500309 0.433271 0.744276 -0.166058
C39   C     C_R   0.499614 0.566695 0.184170 -0.148000
C40   C     C_R   0.500385 0.433305 0.815830 -0.148001
C41   C     C_R   0.499465 0.499916 0.147766 0.095421
C42   C     C_R   0.500535 0.500084 0.852234 0.095421
C43   C     C_R   0.499250 0.433148 0.184006 -0.156796
C44   C     C_R   0.500750 0.566852 0.815994 -0.156796
Cu1   Cu    Cu3+1 0.500030 0.426640 0.500000 1.020210
Cu2   Cu    Cu3+1 0.499970 0.573360 0.500000 1.020210
H1    H     H_    0.015656 0.414932 0.500646 0.180793
H2    H     H_    0.984344 0.585068 0.499354 0.180793
H3    H     H_    0.391459 0.179176 0.421668 0.226920
H4    H     H_    0.608542 0.820824 0.578330 0.226922
H5    H     H_    0.500114 0.619045 0.282529 0.166351
H6    H     H_    0.499885 0.380955 0.717471 0.166351
H7    H     H_    0.500930 0.618793 0.157271 0.143293
H8    H     H_    0.499069 0.381207 0.842729 0.143294
H9    H     H_    0.497938 0.381044 0.156959 0.143595
H10   H     H_    0.502064 0.618956 0.843041 0.143594
H11   H     H_    0.498825 0.380848 0.282266 0.183642
H12   H     H_    0.501177 0.619152 0.717734 0.183642
H13   H     H_    0.607316 0.406511 0.063187 0.141557
H14   H     H_    0.392685 0.593489 0.936813 0.141557
H15   H     H_    0.607864 0.406637 0.937702 0.142655
H16   H     H_    0.392136 0.593362 0.062297 0.142655
H17   H     H_    0.607322 0.302965 0.577777 0.187089
H18   H     H_    0.392676 0.697035 0.422224 0.187089
N1    N     N_R   0.500010 0.316380 0.499980 -0.258839
N2    N     N_R   0.499990 0.683620 0.500020 -0.258840
O1    O     O_R   0.500040 0.438020 0.599820 -0.597963
O2    O     O_R   0.499960 0.561980 0.400180 -0.597963
O3    O     O_R   0.500000 0.561930 0.599810 -0.537425
O4    O     O_R   0.500000 0.438070 0.400190 -0.537425
O5    O     O_R   0.637870 0.429290 0.499990 -0.584425
O6    O     O_R   0.362130 0.570710 0.500010 -0.584425
O7    O     O_R   0.637830 0.553200 0.499980 -0.519449
O8    O     O_R   0.362170 0.446800 0.500020 -0.519450
F1    F     F_    0.380062 0.323091 0.413579 -0.638503
F2    F     F_    0.619939 0.676909 0.586420 -0.638502
F3    F     F_    0.329270 0.087041 0.518252 -0.572955
F4    F     F_    0.670730 0.912959 0.481749 -0.572958
F5    F     F_    0.328226 0.937280 0.517720 -0.542589
F6    F     F_    0.671774 0.062720 0.482281 -0.542589
F7    F     F_    0.621259 0.159031 0.590261 -0.600041
F8    F     F_    0.378740 0.840969 0.409740 -0.600040

loop_
_geom_bond_atom_site_label_1
_geom_bond_atom_site_label_2
_ccdc_geom_bond_type
C5    C37   A    
C27   C29   A    
C22   F2    S    
C39   C41   A    
C13   N1    A    
Cu1   Cu2   S    
C3    C43   A    
C26   F4    S    
C25   F3    S    
C19   C21   A    
Cu2   N2    S    
C2    O2    A    
C37   H5    S    
C38   H6    S    
C33   C36   S    
C11   C42   S    
C15   C17   A    
C34   C35   S    
C44   H10   S    
C22   N2    A    
Cu2   O3    S    
C20   H4    S    
C1    O1    A    
Cu1   O1    S    
C6    C38   A    
Cu2   O6    S    
C40   C42   A    
C17   C30   S    
C41   C43   A    
C10   H16   S    
C42   C44   A    
C23   O7    A    
C7    H13   S    
C7    C12   A    
C15   F7    S    
C1    C6    S    
C32   C35   T    
C23   O5    A    
C4    C6    A    
C4    C44   A    
C1    O3    A    
Cu1   O8    S    
Cu2   O2    S    
C12   C41   S    
C9    H15   S    
C19   H3    S    
C13   H17   S    
C14   H18   S    
C16   F8    S    
C33   C34   D    
C14   N2    A    
C18   C29   S    
C9    C11   A    
C10   C12   A    
C3    H11   S    
C43   H9    S    
C20   C22   A    
C40   H8    S    
C13   C15   A    
Cu1   N1    S    
C14   C16   A    
C2    C5    S    
C27   F5    S    
Cu1   O5    S    
C24   O6    A    
C25   C30   A    
C7    C9    A    
C21   N1    A    
Cu1   O4    S    
C16   C18   A    
C3    C5    A    
C25   C27   A    
C21   F1    S    
C26   C28   A    
C23   C32   S    
C28   C30   A    
C24   C31   S    
C37   C39   A    
C8    H14   S    
C38   C40   A    
C24   O8    A    
C39   H7    S    
C8    C11   A    
C17   C19   A    
C18   C20   A    
C28   F6    S    
C26   C29   A    
C8    C10   A    
C4    H12   S    
C33   H2    S    
C31   C36   T    
C34   H1    S    
C2    O4    A    
Cu2   O7    S    
