data_mof_unit_12765.cif
_audit_creation_date              2013-03-05T16:41:04-0500
_audit_creation_method            fapswitch 2.2
_symmetry_space_group_name_H-M    P1
_symmetry_Int_Tables_number       1
_space_group_crystal_system       triclinic
_cell_length_a                    8.554856
_cell_length_b                    10.630247
_cell_length_c                    9.930647
_cell_angle_alpha                 90.682827
_cell_angle_beta                  97.711636
_cell_angle_gamma                 90.206246
_cell_volume                      894.851854016

loop_
_atom_site_label
_atom_site_type_symbol
_atom_site_description
_atom_site_fract_x
_atom_site_fract_y
_atom_site_fract_z
_atom_type_partial_charge
O1    O     O_R   0.500020 0.316790 0.614690 -0.627321
O2    O     O_R   0.500000 0.316760 0.385350 -0.607780
C1    C     C_R   0.499836 0.260606 0.498801 0.953479
O3    O     O_R   0.271760 0.500010 0.587850 -0.638622
O4    O     O_R   0.271740 0.499970 0.358500 -0.547304
C2    C     C_R   0.202435 0.507675 0.465472 0.840548
Zn1   Zn    Zn3+2 0.500010 0.500020 0.653130 1.020792
Zn2   Zn    Zn3+2 0.499990 0.499980 0.346870 1.002372
O5    O     O_R   0.500000 0.683240 0.614650 -0.545351
O6    O     O_R   0.499980 0.683210 0.385310 -0.642780
O7    O     O_R   0.728260 0.500030 0.641500 -0.575727
O8    O     O_R   0.728240 0.499990 0.412150 -0.570640
C3    C     C_R   0.500959 0.739365 0.500843 0.881695
C4    C     C_R   0.798001 0.499505 0.534121 1.003732
C5    C     C_2   0.039897 0.534818 0.451742 0.329810
C6    C     C_2   0.961469 0.486611 0.546241 -0.403292
H1    H     H_    0.015937 0.425678 0.625345 0.219042
C7    C     C_R   0.373337 0.064178 0.537874 -0.023981
C8    C     C_R   0.497169 0.128589 0.492358 -0.199850
C9    C     C_R   0.607418 0.064080 0.424314 0.534563
C10   C     C_R   0.609996 0.933244 0.430542 -0.288732
H2    H     H_    0.700581 0.880993 0.387796 0.160915
C11   C     C_R   0.501308 0.871157 0.500177 -0.066441
C12   C     C_R   0.377727 0.936562 0.545196 -0.055155
C13   C     C_3   0.302217 0.935539 0.673016 0.164101
C14   C     C_3   0.293166 0.078445 0.661445 0.164965
H3    H     H_    0.186144 0.886499 0.660205 0.131131
H4    H     H_    0.364333 0.131934 0.745152 0.150584
C15   C     C_R   0.419060 0.410069 0.060186 0.031971
N1    N     N_R   0.498950 0.499140 0.142680 -0.095003
C16   C     C_R   0.595172 0.579374 0.084556 -0.269298
H5    H     H_    0.667374 0.643030 0.152121 0.177789
C17   C     C_R   0.597759 0.579596 0.938716 0.602804
N2    N     N_R   0.498950 0.499180 0.857030 -0.135465
C18   C     C_R   0.414909 0.413740 0.918797 -0.120199
C19   C     C_3   0.240887 0.386756 0.896439 0.295057
C20   C     C_3   0.249144 0.370299 0.050040 0.290049
H6    H     H_    0.213469 0.296820 0.840771 0.110489
H7    H     H_    0.240188 0.270575 0.082478 0.029258
O9    O     O_3   0.968167 0.609011 0.346625 -0.602893
C21   C     C_3   0.034807 0.730892 0.357428 -0.312777
H8    H     H_    0.156648 0.730749 0.330359 0.185724
H9    H     H_    0.033269 0.772309 0.460744 0.152873
H10   H     H_    0.962803 0.792507 0.284234 0.179991
O10   O     O_3   0.692241 0.659342 0.872812 -0.538956
C22   C     C_3   0.789214 0.741618 0.960130 -0.271648
H11   H     H_    0.856440 0.801600 0.897317 0.200889
H12   H     H_    0.876471 0.688496 0.030398 0.161659
H13   H     H_    0.717796 0.806067 0.016170 0.180086
O11   O     O_3   0.135346 0.483892 0.843807 -0.592734
C23   C     C_3   0.187952 0.609240 0.871121 -0.094832
H14   H     H_    0.263329 0.640028 0.795308 0.195175
H15   H     H_    0.249332 0.624638 0.975623 0.180671
H16   H     H_    0.083640 0.671391 0.859057 0.157526
O12   O     O_3   0.152203 0.455759 0.109791 -0.543989
C24   C     C_3   0.002558 0.399780 0.111613 -0.163300
H17   H     H_    0.008690 0.328200 0.192815 0.153012
H18   H     H_    0.954384 0.356967 0.011616 0.148586
H19   H     H_    0.918166 0.473148 0.134203 0.213423
O13   O     O_3   0.723719 0.129335 0.369290 -0.575406
C25   C     C_3   0.704279 0.108681 0.227398 -0.240912
H20   H     H_    0.784317 0.173419 0.182314 0.172994
H21   H     H_    0.581704 0.129623 0.179946 0.156871
H22   H     H_    0.737289 0.011064 0.201775 0.146263
Cl1   Cl    Cl    0.432620 0.889657 0.819812 -0.674745
Cl2   Cl    Cl    0.095991 0.133314 0.617653 -0.655755

loop_
_geom_bond_atom_site_label_1
_geom_bond_atom_site_label_2
_geom_bond_distance
_ccdc_geom_bond_type
C25   H22   1.111937 S    
C23   H15   1.108410 S    
C11   C12   1.387695 A    
C16   C17   1.451450 A    
C1    C8    1.404036 S    
C15   N1    1.364300 A    
O4    Zn2   1.971468 S    
C17   O10   1.396610 S    
C21   H8    1.110825 S    
C15   C18   1.400779 A    
C14   H4    1.111491 S    
C8    C9    1.407493 A    
C7    C14   1.490450 S    
C24   H19   1.105981 S    
N1    C16   1.368368 A    
Zn2   O8    1.973159 S    
C23   H16   1.106636 S    
Zn2   N1    2.026477 S    
C9    C10   1.393054 A    
O12   C24   1.412199 S    
C19   H6    1.107076 S    
O2    C1    1.281448 A    
C2    C5    1.410056 S    
C13   Cl1   1.786592 S    
C20   H7    1.116968 S    
O1    Zn1   1.980369 S    
C10   H2    1.083978 S    
C24   H17   1.111553 S    
Zn1   O7    1.971468 S    
C21   H9    1.113352 S    
C22   H13   1.112451 S    
O4    C2    1.286088 A    
O3    Zn1   1.973160 S    
C7    C12   1.359782 A    
Zn2   O6    1.980368 S    
C19   C20   1.529656 S    
O7    C4    1.289850 A    
O8    C4    1.276516 A    
C17   N2    1.377528 A    
C22   H12   1.111618 S    
C10   C11   1.399058 A    
C25   H20   1.108647 S    
C21   H10   1.109442 S    
C4    C6    1.394814 S    
C5    O9    1.392650 S    
C9    O13   1.385514 S    
C5    C6    1.330935 D    
C23   H14   1.106527 S    
C14   Cl2   1.786303 S    
C19   O11   1.430918 S    
C12   C13   1.499660 S    
C3    C11   1.401077 S    
O3    C2    1.282412 A    
N2    C18   1.358307 A    
Zn1   N2    2.026221 S    
C15   C20   1.502370 S    
Zn1   O5    1.989269 S    
O5    C3    1.285242 A    
C22   H11   1.108835 S    
C7    C8    1.387818 A    
O9    C21   1.410725 S    
C18   C19   1.501537 S    
O11   C23   1.416305 S    
C13   C14   1.526288 S    
O10   C22   1.410220 S    
O6    C3    1.286004 A    
C25   H21   1.114791 S    
O2    Zn2   1.989268 S    
C16   H5    1.079145 S    
C6    H1    1.081592 S    
C24   H18   1.114062 S    
O13   C25   1.410976 S    
O1    C1    1.290071 A    
C13   H3    1.111195 S    
C20   O12   1.410600 S    
