data_mof_unit_12881.cif
_audit_creation_date              2013-03-05T15:54:36-0500
_audit_creation_method            fapswitch 2.2
_symmetry_space_group_name_H-M    P1
_symmetry_Int_Tables_number       1
_space_group_crystal_system       triclinic
_cell_length_a                    17.408078
_cell_length_b                    24.579206
_cell_length_c                    14.829769
_cell_angle_alpha                 89.719347
_cell_angle_beta                  125.628675
_cell_angle_gamma                 90.512134
_cell_volume                      5157.32327455

loop_
_atom_site_label
_atom_site_type_symbol
_atom_site_description
_atom_site_fract_x
_atom_site_fract_y
_atom_site_fract_z
_atom_type_partial_charge
C1    C     C_R   0.854402 0.653012 0.908358 0.428214
C2    C     C_R   0.176952 0.639935 0.091776 0.434400
C3    C     C_R   0.353909 0.152796 0.908347 0.431053
C4    C     C_R   0.686181 0.130827 0.090820 0.450387
N1    N     N_R   0.892620 0.603790 0.941770 -0.097529
N2    N     N_R   0.107380 0.603790 0.058230 -0.086924
N3    N     N_R   0.392620 0.103790 0.941770 -0.095618
N4    N     N_R   0.607380 0.103790 0.058230 -0.092361
C5    C     C_R   0.953677 0.348287 0.094295 0.302812
C6    C     C_R   0.081905 0.362556 0.906204 0.381949
C7    C     C_R   0.451526 0.847023 0.091822 0.303133
C8    C     C_R   0.585378 0.864810 0.906675 0.372287
N5    N     N_R   0.952270 0.397640 0.058010 -0.097024
N6    N     N_R   0.047730 0.397640 0.941990 -0.091742
N7    N     N_R   0.452270 0.897640 0.058010 -0.082960
N8    N     N_R   0.547730 0.897640 0.941990 -0.091137
C9    C     C_R   0.979133 0.547036 0.245310 -0.100199
C10   C     C_R   0.950046 0.547391 0.695953 -0.101118
C11   C     C_R   0.478702 0.046565 0.245358 -0.114989
C12   C     C_R   0.448778 0.046892 0.694867 -0.107512
H1    H     H_    0.963713 0.589067 0.247203 0.107880
H2    H     H_    0.929223 0.588903 0.669000 0.133886
H3    H     H_    0.462587 0.088454 0.246948 0.111998
H4    H     H_    0.427161 0.088233 0.667219 0.134465
N9    N     N_R   0.026310 0.529110 0.206760 -0.041997
N10   N     N_R   0.973690 0.529110 0.793240 -0.050043
N11   N     N_R   0.526310 0.029110 0.206760 -0.048502
N12   N     N_R   0.473690 0.029110 0.793240 -0.047899
C13   C     C_R   0.732494 0.454083 0.754094 -0.052231
C14   C     C_R   0.262865 0.454381 0.294716 -0.044434
C15   C     C_R   0.231990 0.954192 0.752920 -0.045304
C16   C     C_R   0.756870 0.953552 0.301385 -0.057958
H5    H     H_    0.710377 0.411988 0.736351 0.150557
H6    H     H_    0.277021 0.412860 0.324109 0.163443
H7    H     H_    0.209721 0.912093 0.736339 0.153483
H8    H     H_    0.767875 0.911535 0.327471 0.171858
N13   N     N_R   0.818570 0.472310 0.793020 -0.056401
N14   N     N_R   0.181430 0.472310 0.206980 -0.064207
N15   N     N_R   0.318570 0.972310 0.793020 -0.059955
N16   N     N_R   0.681430 0.972310 0.206980 -0.066545
C17   C     C_R   0.980602 0.456013 0.250481 -0.054761
C18   C     C_R   0.946427 0.457224 0.691294 -0.016866
C19   C     C_R   0.480752 0.955559 0.250152 -0.048556
C20   C     C_R   0.446336 0.956742 0.691734 -0.021733
H9    H     H_    0.968133 0.414266 0.261236 0.162101
H10   H     H_    0.920170 0.417404 0.656808 0.151533
H11   H     H_    0.467959 0.913707 0.259895 0.141169
H12   H     H_    0.420240 0.916726 0.658454 0.151024
N17   N     N_R   0.026930 0.472300 0.207330 -0.043541
N18   N     N_R   0.973070 0.472300 0.792670 -0.061035
N19   N     N_R   0.526930 0.972300 0.207330 -0.043039
N20   N     N_R   0.473070 0.972300 0.792670 -0.060521
C21   C     C_R   0.731264 0.545193 0.755082 -0.046370
C22   C     C_R   0.265048 0.545414 0.297121 -0.089349
C23   C     C_R   0.230771 0.045314 0.753297 -0.046728
C24   C     C_R   0.755982 0.043351 0.309571 -0.010892
H13   H     H_    0.706812 0.586598 0.739011 0.168645
H14   H     H_    0.282446 0.585783 0.331516 0.188566
H15   H     H_    0.206562 0.086749 0.738199 0.169716
H16   H     H_    0.764988 0.081917 0.349112 0.177888
N21   N     N_R   0.817960 0.529130 0.792460 -0.043015
N22   N     N_R   0.182040 0.529130 0.207540 -0.061449
N23   N     N_R   0.317960 0.029130 0.792460 -0.046759
N24   N     N_R   0.682040 0.029130 0.207540 -0.062797
C25   C     C_R   0.855471 0.348169 0.910627 -0.158083
C26   C     C_R   0.178210 0.365401 0.092489 -0.087786
C27   C     C_R   0.354887 0.848589 0.908515 -0.136654
C28   C     C_R   0.682784 0.869897 0.092627 -0.073763
H17   H     H_    0.810674 0.334641 0.825341 0.177331
H18   H     H_    0.232192 0.355247 0.178017 0.170681
H19   H     H_    0.313997 0.837251 0.822503 0.182803
H20   H     H_    0.739198 0.862072 0.178435 0.175116
N25   N     N_R   0.894850 0.397640 0.943830 -0.077806
N26   N     N_R   0.105150 0.397640 0.056170 -0.067655
N27   N     N_R   0.394850 0.897640 0.943830 -0.076617
N28   N     N_R   0.605150 0.897640 0.056170 -0.064015
C29   C     C_R   0.947047 0.652277 0.092018 -0.208142
C30   C     C_R   0.088319 0.635105 0.906311 -0.141227
C31   C     C_R   0.445704 0.152026 0.092024 -0.236168
C32   C     C_R   0.591836 0.130080 0.904750 -0.163272
H21   H     H_    0.990231 0.665324 0.177772 0.164080
H22   H     H_    0.057943 0.641525 0.819633 0.132788
H23   H     H_    0.487726 0.165006 0.177801 0.154826
H24   H     H_    0.560921 0.138432 0.818395 0.145262
N29   N     N_R   0.950040 0.603780 0.055950 -0.073090
N30   N     N_R   0.049960 0.603780 0.944050 -0.066774
N31   N     N_R   0.450040 0.103780 0.055950 -0.069678
N32   N     N_R   0.549960 0.103780 0.944050 -0.065381
C33   C     C_R   0.887725 0.683739 0.001527 0.027397
C34   C     C_R   0.170822 0.657250 0.998013 -0.011461
C35   C     C_R   0.386325 0.183321 0.001313 0.017467
C36   C     C_R   0.677766 0.147082 0.995685 -0.013895
C37   C     C_R   0.893678 0.316530 0.004056 0.049384
C38   C     C_R   0.164908 0.344047 0.999162 -0.013186
C39   C     C_R   0.391290 0.814510 0.999025 0.005703
C40   C     C_R   0.671250 0.848885 0.000037 -0.018457
C41   C     C_R   0.949891 0.502555 0.274792 0.046419
C42   C     C_R   0.932415 0.503377 0.629641 0.058757
C43   C     C_R   0.449674 0.001634 0.274630 0.050146
C44   C     C_R   0.431318 0.002500 0.628992 0.056419
C45   C     C_R   0.676725 0.498950 0.730369 0.124169
C46   C     C_R   0.316776 0.499420 0.349379 0.156423
C47   C     C_R   0.176269 0.999132 0.729367 0.129105
C48   C     C_R   0.805346 0.997438 0.365796 0.139600
Ni1   Ni    Ni4+2 0.934160 0.565860 0.869070 0.277287
Ni2   Ni    Ni4+2 0.065840 0.565860 0.130930 0.261761
Ni3   Ni    Ni4+2 0.434160 0.065860 0.869070 0.275433
Ni4   Ni    Ni4+2 0.565840 0.065860 0.130930 0.241969
Ni5   Ni    Ni4+2 0.067260 0.435560 0.132230 0.282046
Ni6   Ni    Ni4+2 0.932740 0.435560 0.867770 0.259578
Ni7   Ni    Ni4+2 0.567260 0.935560 0.132230 0.279364
Ni8   Ni    Ni4+2 0.432740 0.935560 0.867770 0.260958
C49   C     C_3   0.505066 0.452218 0.603022 0.210782
C50   C     C_3   0.482779 0.455266 0.486186 0.201642
C51   C     C_3   0.003552 0.952947 0.619960 0.218700
C52   C     C_3   0.972385 0.952210 0.499090 0.197608
C53   C     C_3   0.429303 0.495567 0.570169 0.504602
C54   C     C_3   0.554955 0.501316 0.523511 0.492774
C55   C     C_3   0.929306 0.997098 0.589707 0.502165
C56   C     C_3   0.043339 0.997543 0.525459 0.485824
C57   C     C_3   0.408109 0.498465 0.454577 -0.199146
C58   C     C_3   0.577527 0.498336 0.640274 -0.191448
C59   C     C_3   0.899007 0.996194 0.469892 -0.198886
C60   C     C_3   0.074873 0.998252 0.645988 -0.195832
C61   C     C_3   0.480444 0.544794 0.491465 -0.258253
C62   C     C_3   0.503080 0.541962 0.609227 -0.252022
C63   C     C_3   0.970655 0.041735 0.496113 -0.231375
C64   C     C_3   0.002222 0.042687 0.617772 -0.266170
H25   H     H_    0.469682 0.582366 0.443622 0.198718
H26   H     H_    0.512850 0.576968 0.662068 0.207733
H27   H     H_    0.956998 0.077977 0.443855 0.234314
H28   H     H_    0.015888 0.079440 0.668451 0.211106
C65   C     C_R   0.836929 0.263141 0.088483 0.143178
C66   C     C_R   0.257940 0.310801 0.940374 0.099370
C67   C     C_R   0.395965 0.732203 0.095279 -0.004844
C68   C     C_R   0.757013 0.811519 0.933702 0.098915
C69   C     C_R   0.859258 0.265374 0.012316 -0.100348
C70   C     C_R   0.218426 0.302132 0.998163 -0.110498
C71   C     C_R   0.372901 0.755430 0.996059 0.049769
C72   C     C_R   0.726657 0.806846 0.001975 -0.109255
C73   C     C_R   0.831767 0.222311 0.936094 0.388405
C74   C     C_R   0.224624 0.251496 0.045601 0.410865
C75   C     C_R   0.296936 0.731943 0.896003 0.341682
C76   C     C_R   0.742871 0.759170 0.063056 0.408748
C77   C     C_R   0.228522 0.701915 0.895919 -0.237043
C78   C     C_R   0.799501 0.719929 0.064857 -0.264361
C79   C     C_R   0.771660 0.181463 0.929223 -0.249952
C80   C     C_R   0.283147 0.213021 0.048655 -0.277086
H29   H     H_    0.167959 0.686975 0.817537 0.170789
H30   H     H_    0.812301 0.682971 0.111805 0.172888
H31   H     H_    0.749280 0.147941 0.871649 0.184785
H32   H     H_    0.289935 0.173798 0.086388 0.173440
C81   C     C_R   0.240647 0.689910 0.996288 0.039934
C82   C     C_R   0.838736 0.727911 0.005842 -0.015362
C83   C     C_R   0.737656 0.186236 0.994395 -0.000703
C84   C     C_R   0.333291 0.225281 0.003722 -0.013822
C85   C     C_R   0.328633 0.700913 0.095568 0.182090
C86   C     C_R   0.812427 0.771877 0.934813 0.203825
C87   C     C_R   0.770961 0.227194 0.071538 0.225427
C88   C     C_R   0.314869 0.272166 0.942236 0.221700
C89   C     C_3   0.397512 0.657934 0.168212 -0.567240
C90   C     C_3   0.874022 0.812443 0.929343 -0.476492
C91   C     C_3   0.720073 0.266288 0.095382 -0.527344
C92   C     C_3   0.382675 0.313662 0.952224 -0.516128
C93   C     C_3   0.799218 0.305605 0.125940 0.141562
C94   C     C_3   0.319251 0.356558 0.949984 0.181578
C95   C     C_3   0.468984 0.688759 0.161878 0.282759
C96   C     C_3   0.812459 0.856326 0.927964 0.178254
H33   H     H_    0.378471 0.617114 0.128339 0.231091
H34   H     H_    0.868160 0.808998 0.850836 0.272267
H35   H     H_    0.717425 0.254119 0.165683 0.272750
H36   H     H_    0.383985 0.313941 0.878178 0.268378
H37   H     H_    0.414005 0.658266 0.252752 0.231762
H38   H     H_    0.947682 0.812834 0.005913 0.190344
H39   H     H_    0.650819 0.278396 0.018944 0.185818
H40   H     H_    0.453410 0.311357 0.033064 0.183858
H41   H     H_    0.775370 0.343697 0.076150 0.094543
H42   H     H_    0.352865 0.379708 0.028849 0.120966
H43   H     H_    0.529809 0.703394 0.244266 0.173102
H44   H     H_    0.850023 0.882685 0.002989 0.119761
C97   C     C_R   0.897322 0.555630 0.466584 0.190049
C98   C     C_R   0.902141 0.555642 0.377026 0.161132
C99   C     C_R   0.389605 0.053166 0.460884 0.195247
C100  C     C_R   0.394684 0.053074 0.371429 0.163570
C101  C     C_R   0.894040 0.506400 0.512070 0.040371
C102  C     C_R   0.902675 0.506344 0.329993 0.016546
C103  C     C_R   0.392284 0.004143 0.510942 0.041852
C104  C     C_R   0.401668 0.003825 0.329138 0.022891
C105  C     C_R   0.868606 0.459081 0.446998 -0.083808
C106  C     C_R   0.872136 0.459387 0.355002 -0.140104
C107  C     C_R   0.372985 0.955754 0.450262 -0.102098
C108  C     C_R   0.377487 0.955647 0.359002 -0.149213
H45   H     H_    0.857418 0.420634 0.473578 0.166120
H46   H     H_    0.862466 0.421776 0.312839 0.179811
H47   H     H_    0.366746 0.917016 0.480341 0.159323
H48   H     H_    0.374481 0.916962 0.322569 0.151413
C109  C     C_3   0.969302 0.603173 0.422063 -0.456580
C110  C     C_3   0.963507 0.603186 0.519468 -0.478090
C111  C     C_3   0.455267 0.103436 0.411792 -0.479901
C112  C     C_3   0.449106 0.103530 0.508909 -0.476486
H49   H     H_    0.937620 0.640031 0.369265 0.215563
H50   H     H_    0.032000 0.592914 0.598784 0.211986
H51   H     H_    0.418885 0.138641 0.355258 0.216015
H52   H     H_    0.518826 0.096511 0.589111 0.206047
H53   H     H_    0.041194 0.592799 0.446649 0.225527
H54   H     H_    0.928070 0.639879 0.522294 0.228040
H55   H     H_    0.528625 0.096281 0.438054 0.219648
H56   H     H_    0.408680 0.138572 0.507925 0.231229
Cl1   Cl    Cl    0.804977 0.679090 0.774732 -0.632486
Cl2   Cl    Cl    0.234159 0.675435 0.218041 -0.674653
Cl3   Cl    Cl    0.304856 0.179311 0.775148 -0.614990
Cl4   Cl    Cl    0.778734 0.148455 0.227919 -0.666707
Br1   Br    Br    0.520857 0.386514 0.685082 -0.414184
Br2   Br    Br    0.473969 0.393268 0.399783 -0.446708
Br3   Br    Br    0.026407 0.889918 0.711519 -0.397503
Br4   Br    Br    0.961130 0.886580 0.419504 -0.422593
Br5   Br    Br    0.871510 0.218865 0.839869 -0.401389
Br6   Br    Br    0.155862 0.233000 0.106320 -0.416865
Br7   Br    Br    0.288821 0.734057 0.761270 -0.414315
Br8   Br    Br    0.690166 0.744532 0.144127 -0.429909
Br9   Br    Br    0.883975 0.314282 0.286108 -0.423639
Br10  Br    Br    0.254569 0.400900 0.816747 -0.360336
Br11  Br    Br    0.505533 0.648814 0.079225 -0.374076
Br12  Br    Br    0.737476 0.895211 0.788055 -0.364343
Br13  Br    Br    0.058154 0.321644 0.234852 -0.393279
Br14  Br    Br    0.012126 0.326943 0.765012 -0.433679
Br15  Br    Br    0.552333 0.822305 0.236620 -0.512047
Br16  Br    Br    0.517111 0.827279 0.767489 -0.451705
Cl5   Cl    Cl    0.341581 0.492148 0.596222 -0.498334
Cl6   Cl    Cl    0.637659 0.505993 0.489205 -0.583275
Cl7   Cl    Cl    0.849755 0.996939 0.628348 -0.505039
Cl8   Cl    Cl    0.118165 0.999050 0.479577 -0.560617

loop_
_geom_bond_atom_site_label_1
_geom_bond_atom_site_label_2
_geom_bond_distance
_ccdc_geom_bond_type
N6    Ni6   1.882437 S    
C66   C88   1.367234 A    
C65   C69   1.393018 A    
C67   C85   1.398239 A    
C52   C59   1.537396 S    
C23   H15   1.077264 S    
C110  H54   1.111801 S    
C93   H41   1.112283 S    
C72   C76   1.403937 A    
C50   Br2   1.942542 S    
C95   H43   1.110672 S    
C10   N10   1.325876 A    
C49   Br1   1.939961 S    
C4    N4    1.330939 A    
C91   H39   1.112608 S    
C94   Br10  1.941298 S    
N26   Ni5   1.861215 S    
C31   N31   1.324006 A    
C56   C63   1.532508 S    
C93   Br9   1.944364 S    
N25   Ni6   1.849741 S    
C48   C59   1.452731 S    
N1    Ni1   1.866720 S    
C97   C98   1.378682 A    
C30   C34   1.387848 A    
C67   C71   1.399924 A    
C29   C33   1.361920 A    
N27   Ni8   1.849741 S    
C28   C40   1.369769 A    
C1    N1    1.332773 A    
N6    N26   1.376362 A    
C91   C93   1.513464 S    
C19   C43   1.396700 A    
C82   C86   1.386643 A    
C42   C101  1.460943 S    
C3    N3    1.330480 A    
N15   N23   1.396671 A    
N10   N18   1.396319 A    
C98   C102  1.403854 A    
C25   H17   1.081071 S    
C8    Br16  1.914406 S    
C27   H19   1.073987 S    
C97   C101  1.399319 A    
C6    C38   1.371164 A    
N12   Ni3   1.864588 S    
C51   C52   1.541026 S    
C26   N26   1.323378 A    
C23   C47   1.380951 A    
N18   Ni6   1.854325 S    
C25   N25   1.337391 A    
C14   N14   1.324150 A    
C3    C35   1.370495 A    
C54   C58   1.537741 S    
C85   C89   1.490251 S    
C53   Cl5   1.781315 S    
C2    C34   1.395749 A    
C5    N5    1.319262 A    
C74   Br6   1.921560 S    
C17   C41   1.401419 A    
N5    Ni5   1.870015 S    
C73   Br5   1.916925 S    
C78   H30   1.084539 S    
C50   C57   1.531900 S    
C21   N21   1.332178 A    
C68   C72   1.392368 A    
C108  H48   1.081663 S    
N3    N31   1.376365 A    
C49   C58   1.532953 S    
C8    N8    1.329828 A    
C13   H5    1.079599 S    
C21   C45   1.380947 A    
C55   Cl7   1.780611 S    
C31   H23   1.081989 S    
C23   N23   1.334441 A    
C110  H50   1.112411 S    
C1    C33   1.372774 A    
C24   N24   1.340346 A    
C109  H49   1.112149 S    
C94   H42   1.112315 S    
C54   C61   1.533617 S    
C46   C57   1.439696 S    
N21   Ni1   1.870163 S    
C53   C62   1.548870 S    
C103  C107  1.410094 A    
C52   Br4   1.943492 S    
C26   C38   1.369715 A    
C68   C86   1.370524 A    
C55   C64   1.550371 S    
C20   N20   1.339493 A    
C25   C37   1.375472 A    
C16   C48   1.357495 A    
C29   N29   1.322715 A    
C111  C112  1.505240 S    
C112  H56   1.111778 S    
C111  H55   1.112331 S    
C10   H2    1.079841 S    
C45   C58   1.441887 S    
C27   C39   1.382875 A    
C56   Cl8   1.786752 S    
C2    N2    1.336675 A    
C98   C109  1.500446 S    
C71   C75   1.411522 A    
C111  H51   1.112140 S    
C67   C95   1.510878 S    
C97   C110  1.497007 S    
N4    Ni4   1.854952 S    
N10   Ni1   1.864588 S    
C17   N17   1.346526 A    
C43   C104  1.463877 S    
N11   N19   1.396429 A    
N9    Ni2   1.853260 S    
N24   Ni4   1.882206 S    
N16   Ni7   1.845458 S    
C63   H27   1.110397 S    
C89   H33   1.112503 S    
C3    Cl3   1.757261 S    
C41   C102  1.463023 S    
C70   C74   1.400352 A    
C2    Cl2   1.757050 S    
C14   H6    1.080399 S    
C83   C87   1.373506 A    
C32   H24   1.080840 S    
N7    Ni7   1.870015 S    
C84   C88   1.384884 A    
C44   C103  1.463564 S    
C102  C106  1.402437 A    
C24   C48   1.371310 A    
C76   C78   1.374380 A    
C109  H53   1.112377 S    
C6    N6    1.326908 A    
C62   H26   1.109952 S    
N32   Ni3   1.879857 S    
C86   C90   1.493954 S    
C4    C36   1.387894 A    
N12   N20   1.396319 A    
C22   N22   1.330959 A    
C51   Br3   1.939849 S    
C96   H44   1.112248 S    
C5    C37   1.363177 A    
C1    Cl1   1.757565 S    
C47   C60   1.449745 S    
C9    H1    1.074301 S    
C52   C56   1.528758 S    
C100  C104  1.404394 A    
C65   C87   1.345511 A    
C15   C47   1.379741 A    
C58   C62   1.538250 S    
C11   H3    1.073504 S    
C99   C100  1.379987 A    
C57   C61   1.536062 S    
C65   C93   1.507212 S    
C112  H52   1.112357 S    
C89   H37   1.111290 S    
C30   H22   1.079082 S    
C59   C63   1.540815 S    
C109  C110  1.505499 S    
C90   H34   1.111493 S    
C29   H21   1.082171 S    
C28   H20   1.079693 S    
C100  C111  1.500429 S    
C14   C46   1.366473 A    
C66   C94   1.492381 S    
N2    Ni2   1.854952 S    
C13   C45   1.378344 A    
C89   C95   1.499829 S    
C34   C81   1.463266 S    
C101  C105  1.408552 A    
C32   C36   1.369288 A    
C74   C80   1.377428 A    
C95   Br11  1.950063 S    
N13   Ni6   1.857494 S    
C50   C54   1.528594 S    
C18   N18   1.342614 A    
C90   C96   1.518980 S    
C68   C96   1.492510 S    
N15   Ni8   1.857494 S    
N5    N25   1.376363 A    
C7    N7    1.341866 A    
C61   H25   1.110470 S    
C18   H10   1.073753 S    
C61   C62   1.551623 S    
C78   C82   1.401154 A    
C87   C91   1.488807 S    
C39   C71   1.479515 S    
C92   H36   1.111517 S    
N30   Ni1   1.879857 S    
C27   N27   1.333608 A    
N23   Ni3   1.870163 S    
N29   Ni2   1.892281 S    
C12   N12   1.329426 A    
C88   C92   1.493901 S    
C91   H35   1.109583 S    
N8    Ni8   1.882437 S    
N17   Ni5   1.865716 S    
C49   C50   1.540871 S    
C22   H14   1.075192 S    
C49   C53   1.543858 S    
C7    C39   1.395205 A    
C107  C108  1.400474 A    
C75   C77   1.394881 A    
C69   C73   1.414036 A    
C64   H28   1.109951 S    
N19   Ni7   1.865717 S    
C51   C60   1.533512 S    
C107  H47   1.080641 S    
N8    N28   1.376362 A    
C31   C35   1.361541 A    
C22   C46   1.373350 A    
C80   H32   1.084545 S    
C4    Cl4   1.759833 S    
N14   Ni5   1.845458 S    
C21   H13   1.077444 S    
C40   C72   1.408552 S    
N13   N21   1.396671 A    
C16   H8    1.079918 S    
C76   Br8   1.921357 S    
N22   Ni2   1.882206 S    
C55   C59   1.531048 S    
C66   C70   1.391194 A    
C28   N28   1.321118 A    
C96   Br12  1.941577 S    
C51   C55   1.547309 S    
C99   C112  1.496250 S    
N2    N30   1.376363 A    
C60   C64   1.539827 S    
C104  C108  1.406682 A    
C9    N9    1.323389 A    
C18   C42   1.384664 A    
N1    N29   1.376365 A    
C35   C84   1.404668 S    
C32   N32   1.331105 A    
C20   H12   1.073731 S    
C17   H9    1.077124 S    
N7    N27   1.376363 A    
C20   C44   1.382246 A    
C19   N19   1.343528 A    
C33   C82   1.411014 S    
C26   H18   1.080077 S    
C19   H11   1.077318 S    
N11   Ni4   1.853260 S    
C54   Cl6   1.787361 S    
N28   Ni7   1.861215 S    
C38   C70   1.401062 S    
C79   H31   1.083172 S    
C15   H7    1.079678 S    
C92   C94   1.519727 S    
C106  H46   1.074306 S    
C77   C81   1.406369 A    
C15   N15   1.330393 A    
C92   H40   1.112380 S    
C36   C83   1.420785 S    
N3    Ni3   1.866720 S    
C16   N16   1.326539 A    
C79   C83   1.402540 A    
C81   C85   1.398580 A    
C105  C106  1.400941 A    
C10   C42   1.372754 A    
N9    N17   1.396431 A    
C37   C69   1.423209 S    
C56   C60   1.534109 S    
C73   C79   1.404006 A    
C75   Br7   1.919676 S    
C105  H45   1.081124 S    
C24   H16   1.078264 S    
N31   Ni4   1.892281 S    
C7    Br15  1.917209 S    
C30   N30   1.331879 A    
C13   N13   1.327402 A    
C6    Br14  1.913531 S    
C90   H38   1.112303 S    
N20   Ni8   1.854325 S    
C8    C40   1.377901 A    
N16   N24   1.396562 A    
C5    Br13  1.916418 S    
C53   C57   1.530399 S    
C80   C84   1.402783 A    
N4    N32   1.376363 A    
C9    C41   1.374878 A    
C12   H4    1.079468 S    
C77   H29   1.080276 S    
C99   C103  1.398959 A    
C63   C64   1.550068 S    
C11   C43   1.379969 A    
C11   N11   1.326652 A    
N14   N22   1.396562 A    
C12   C44   1.376903 A    
