data_mof_unit_64716.cif
_audit_creation_date              2012-10-26T21:24:01-0400
_audit_creation_method            fapswitch 2.2
_symmetry_space_group_name_H-M    P1
_symmetry_Int_Tables_number       1
_space_group_crystal_system       triclinic
_cell_length_a                    17.755608
_cell_length_b                    16.448918
_cell_length_c                    14.362943
_cell_angle_alpha                 89.999986
_cell_angle_beta                  90.141212
_cell_angle_gamma                 90.0
_cell_volume                      4194.8361486

loop_
_atom_site_label
_atom_site_type_symbol
_atom_type_description
_atom_site_fract_x
_atom_site_fract_y
_atom_site_fract_z
_atom_type_partial_charge
Br1   Br    Br    0.631972 0.881983 0.620628 -0.449319
Br2   Br    Br    0.368755 0.118003 0.378182 -0.446060
Br3   Br    Br    0.368028 0.881983 0.379372 -0.449310
Br4   Br    Br    0.631245 0.118003 0.621818 -0.446052
C1    C     C_R   0.355231 0.500004 0.499766 0.549158
C2    C     C_R   0.447020 0.257119 0.450193 0.058646
C3    C     C_R   0.446751 0.742882 0.450634 0.059237
C4    C     C_R   0.552980 0.257119 0.549807 0.058646
C5    C     C_R   0.500000 0.873056 0.500000 0.041731
C6    C     C_R   0.500000 0.126945 0.500000 0.041016
C7    C     C_1   0.500000 0.962748 0.500000 0.135519
C8    C     C_1   0.500000 0.037252 0.500000 0.135208
C9    C     C_R   0.499960 0.500000 0.330685 0.552062
C10   C     C_R   0.500040 0.500000 0.669314 0.552062
C11   C     C_1   0.499955 0.500000 0.228484 -0.023972
C12   C     C_R   0.644769 0.500004 0.500234 0.549158
C13   C     C_1   0.500045 0.500000 0.771516 -0.023973
C14   C     C_1   0.499964 0.500000 0.143178 -0.019805
C15   C     C_1   0.500035 0.499999 0.856821 -0.019805
C16   C     C_1   0.499988 0.500000 0.042653 0.021864
C17   C     C_1   0.500012 0.499999 0.957347 0.021864
C18   C     C_R   0.846330 0.575026 0.505324 0.140669
C19   C     C_R   0.153571 0.425309 0.502762 0.140965
C20   C     C_R   0.153670 0.575026 0.494695 0.140668
C21   C     C_R   0.846429 0.425311 0.497214 0.140968
C22   C     C_R   0.767178 0.573680 0.504109 -0.106443
C23   C     C_1   0.966244 0.500224 0.500328 -0.011970
C24   C     C_R   0.232716 0.426473 0.501988 -0.107101
C25   C     C_R   0.232821 0.573680 0.495909 -0.106446
C26   C     C_R   0.767284 0.426474 0.497990 -0.107100
C27   C     C_R   0.727683 0.500045 0.500743 -0.050902
C28   C     C_R   0.272317 0.500044 0.499256 -0.050901
C29   C     C_R   0.885401 0.500202 0.501020 0.059505
C30   C     C_R   0.114599 0.500201 0.498976 0.059509
C31   C     C_3   0.848397 0.726911 0.516349 -0.279647
C32   C     C_3   0.151079 0.273197 0.508166 -0.281184
C33   C     C_3   0.151601 0.726914 0.483747 -0.279660
C34   C     C_1   0.033756 0.500224 0.499667 -0.011963
C35   C     C_3   0.848921 0.273199 0.491767 -0.281191
C36   C     C_R   0.554609 0.828619 0.550222 0.111266
C37   C     C_R   0.445679 0.171381 0.449304 0.110955
C38   C     C_R   0.445391 0.828619 0.449778 0.111265
C39   C     C_R   0.554321 0.171381 0.550696 0.110954
C40   C     C_R   0.553249 0.742882 0.549366 0.059239
Cu1   Cu    Cu3+1 0.500000 0.580420 0.500000 0.949904
Cu2   Cu    Cu3+1 0.500000 0.419580 0.500000 0.949190
H1    H     H_    0.735543 0.629742 0.506879 0.137798
H2    H     H_    0.889895 0.777432 0.516330 0.161498
H3    H     H_    0.815613 0.729825 0.582057 0.168127
H4    H     H_    0.810806 0.735382 0.455196 0.169391
H5    H     H_    0.063848 0.351660 0.546584 0.264358
H6    H     H_    0.109327 0.222948 0.506318 0.161302
H7    H     H_    0.184952 0.267450 0.572968 0.155251
H8    H     H_    0.187613 0.267095 0.445886 0.179891
H9    H     H_    0.062843 0.648092 0.452416 0.264093
H10   H     H_    0.110101 0.777433 0.483789 0.161499
H11   H     H_    0.184394 0.729861 0.418049 0.168136
H12   H     H_    0.264238 0.370324 0.504823 0.138418
H13   H     H_    0.189182 0.735356 0.544914 0.169382
H14   H     H_    0.936152 0.351671 0.453370 0.264358
H15   H     H_    0.890674 0.222950 0.493599 0.161300
H16   H     H_    0.815047 0.267467 0.426964 0.155246
H17   H     H_    0.812389 0.267083 0.554046 0.179892
H18   H     H_    0.264456 0.629743 0.493154 0.137800
H19   H     H_    0.735762 0.370325 0.495141 0.138419
H20   H     H_    0.595162 0.709468 0.588515 0.152395
H21   H     H_    0.405316 0.290541 0.410712 0.153967
H22   H     H_    0.404838 0.709468 0.411485 0.152399
H23   H     H_    0.594684 0.290541 0.589288 0.153971
H24   H     H_    0.937166 0.648079 0.547602 0.264094
N1    N     N_R   0.500000 0.701220 0.500000 -0.258337
N2    N     N_R   0.500000 0.298780 0.500000 -0.259013
N3    N     N_2   0.887738 0.650003 0.509840 -0.523614
N4    N     N_2   0.112002 0.350455 0.506627 -0.522881
N5    N     N_2   0.112261 0.650003 0.490199 -0.523622
N6    N     N_2   0.887998 0.350457 0.493328 -0.522880
O1    O     O_R   0.391260 0.567930 0.500000 -0.502671
O2    O     O_R   0.608740 0.432070 0.500000 -0.502668
O3    O     O_R   0.608740 0.567930 0.500000 -0.502669
O4    O     O_R   0.391260 0.432070 0.500000 -0.502668
O5    O     O_R   0.500000 0.567920 0.376050 -0.474967
O6    O     O_R   0.500000 0.432080 0.623950 -0.475225
O7    O     O_R   0.500000 0.567920 0.623950 -0.474970
O8    O     O_R   0.500000 0.432080 0.376050 -0.475227

loop_
_geom_bond_atom_site_label_1
_geom_bond_atom_site_label_2
_ccdc_geom_bond_type
C11   C14   T    
Br3   C38   S    
Cu1   N1    S    
C40   H20   S    
C4    C39   A    
Cu1   Cu2   S    
C23   C29   S    
C12   C27   S    
C2    N2    A    
C9    O8    A    
C5    C38   A    
C15   C17   S    
C25   C28   A    
C3    N1    A    
C26   C27   A    
Br2   C37   S    
C9    O5    A    
C40   N1    A    
C3    C38   A    
C35   H16   S    
C20   C25   A    
C32   H7    S    
Br1   C36   S    
C3    H22   S    
Cu2   O6    S    
C33   H10   S    
C2    C37   A    
C31   H3    S    
H5    N4    S    
C12   O2    A    
C32   H6    S    
C1    C28   S    
H9    N5    S    
C33   N5    S    
C25   H18   S    
C22   C27   A    
C6    C37   A    
C10   C13   S    
Cu1   O7    S    
C10   O7    A    
C31   H4    S    
C31   H2    S    
C35   H15   S    
C4    N2    A    
C24   C28   A    
Cu2   O2    S    
C19   C24   A    
H14   N6    S    
C5    C36   A    
C20   C30   A    
C19   C30   A    
H24   N3    S    
C4    H23   S    
Cu1   O3    S    
C35   N6    S    
C1    O4    A    
C5    C7    S    
C33   H13   S    
C6    C8    S    
C22   H1    S    
Cu2   O8    S    
C2    H21   S    
C9    C11   S    
C10   O6    A    
C19   N4    S    
C1    O1    A    
C21   C26   A    
C18   C29   A    
C31   N3    S    
C6    C39   A    
C30   C34   S    
Cu2   N2    S    
Cu1   O5    S    
C7    C8    T    
C20   N5    S    
Br4   C39   S    
C24   H12   S    
C35   H17   S    
C12   O3    A    
C21   N6    S    
Cu2   O4    S    
C13   C15   T    
C14   C16   S    
C26   H19   S    
C32   H8    S    
C36   C40   A    
C16   C17   T    
C18   C22   A    
Cu1   O1    S    
C23   C34   T    
C18   N3    S    
C32   N4    S    
C33   H11   S    
C21   C29   A    
