data_mof_unit_16564.cif
_audit_creation_date              2012-12-10T18:00:17-0500
_audit_creation_method            fapswitch 2.2
_symmetry_space_group_name_H-M    P1
_symmetry_Int_Tables_number       1
_space_group_crystal_system       triclinic
_cell_length_a                    10.825356
_cell_length_b                    9.587031
_cell_length_c                    10.649638
_cell_angle_alpha                 88.567432
_cell_angle_beta                  90.765584
_cell_angle_gamma                 89.836967
_cell_volume                      1104.80195111

loop_
_atom_site_label
_atom_site_type_symbol
_atom_type_description
_atom_site_fract_x
_atom_site_fract_y
_atom_site_fract_z
_atom_type_partial_charge
C1    C     C_R   0.871672 0.499862 0.500093 -0.018852
C2    C     C_R   0.128329 0.500132 0.500033 -0.017833
C3    C     C_R   0.262278 0.500113 0.499990 0.767683
C4    C     C_R   0.737722 0.499887 0.500076 0.770980
C5    C     C_R   0.493852 0.501880 0.259823 0.801378
C6    C     C_R   0.505414 0.498424 0.740503 0.810094
C7    C     C_3   0.456340 0.628097 0.032867 0.141333
C8    C     C_3   0.543026 0.374877 0.969179 0.138566
C9    C     C_3   0.576180 0.602631 0.958644 0.124301
C10   C     C_3   0.422861 0.400137 0.042118 0.133031
C11   C     C_3   0.385598 0.522024 0.951372 0.125404
C12   C     C_3   0.612937 0.481279 0.050259 0.091913
C13   C     C_3   0.505834 0.496195 0.877748 -0.224972
C14   C     C_3   0.493411 0.505817 0.122998 -0.240824
C15   C     C_R   0.405206 0.075922 0.445452 -0.028514
C16   C     C_R   0.596468 0.924300 0.551010 -0.044219
C17   C     C_R   0.595653 0.072397 0.552781 -0.031850
C18   C     C_R   0.404981 0.927646 0.445877 -0.035194
C19   C     C_R   0.064062 0.374619 0.486270 -0.189853
C20   C     C_R   0.935939 0.625370 0.513888 -0.190760
C21   C     C_R   0.936244 0.374491 0.486287 -0.191622
C22   C     C_R   0.063757 0.625500 0.513857 -0.192790
Cu1   Cu    Cu3+1 0.500000 0.640660 0.500000 0.921097
Cu2   Cu    Cu3+1 0.500000 0.359340 0.500000 0.920091
H1    H     H_    0.329185 0.132477 0.401012 0.111834
H2    H     H_    0.674500 0.867915 0.591453 0.126379
H3    H     H_    0.672274 0.125979 0.596167 0.114602
H4    H     H_    0.328738 0.873983 0.401889 0.113863
H5    H     H_    0.112256 0.276645 0.474990 0.142309
H6    H     H_    0.887747 0.723341 0.525184 0.142119
H7    H     H_    0.888273 0.276491 0.475028 0.144395
H8    H     H_    0.111729 0.723500 0.525108 0.144570
N1    N     N_R   0.500000 0.852070 0.500000 -0.156284
N2    N     N_R   0.500000 0.147930 0.500000 -0.154521
O1    O     O_R   0.319640 0.618740 0.499990 -0.595740
O2    O     O_R   0.680360 0.381260 0.500010 -0.594998
O3    O     O_R   0.680360 0.618740 0.500010 -0.589190
O4    O     O_R   0.319640 0.381260 0.499990 -0.592529
O5    O     O_R   0.499970 0.618770 0.316850 -0.584263
O6    O     O_R   0.500030 0.381230 0.683150 -0.585581
O7    O     O_R   0.500030 0.618770 0.683150 -0.575831
O8    O     O_R   0.499970 0.381230 0.316850 -0.584456
C23   C     C_3   0.260931 0.540692 0.881591 -0.338044
C24   C     C_3   0.153131 0.568062 0.968839 -0.854852
H9    H     H_    0.148667 0.489191 0.046038 0.250030
H10   H     H_    0.160424 0.671296 0.011547 0.257219
H11   H     H_    0.065507 0.565657 0.913690 0.240420
H12   H     H_    0.266928 0.627789 0.811515 0.198793
H13   H     H_    0.241767 0.445506 0.827549 0.194953
C25   C     C_3   0.738049 0.471422 0.121538 -0.367489
C26   C     C_3   0.844898 0.425746 0.039968 -0.866650
H14   H     H_    0.837507 0.313940 0.017723 0.264559
H15   H     H_    0.848431 0.488336 0.951304 0.242042
H16   H     H_    0.932806 0.439707 0.092781 0.246371
H17   H     H_    0.759605 0.575213 0.160183 0.190772
H18   H     H_    0.731461 0.398833 0.203841 0.203543
C27   C     C_3   0.405673 0.765988 0.081808 -0.330801
C28   C     C_3   0.349580 0.861554 0.978412 -0.869406
H19   H     H_    0.394195 0.964748 0.980042 0.243993
H20   H     H_    0.361467 0.820055 0.883375 0.269077
H21   H     H_    0.249771 0.878611 0.994035 0.236031
H22   H     H_    0.333765 0.742073 0.152571 0.192520
H23   H     H_    0.481706 0.821125 0.130829 0.202586
C29   C     C_3   0.596594 0.234323 0.931244 -0.342188
C30   C     C_3   0.631449 0.141646 0.045761 -0.867125
H24   H     H_    0.662588 0.201916 0.126979 0.269870
H25   H     H_    0.551425 0.079104 0.077041 0.239863
H26   H     H_    0.708238 0.070678 0.021747 0.237700
H27   H     H_    0.529112 0.178885 0.871268 0.206100
H28   H     H_    0.679851 0.254319 0.873871 0.193770
C31   C     C_3   0.676387 0.702071 0.907591 -0.371790
C32   C     C_3   0.627101 0.841877 0.860025 -0.846800
H29   H     H_    0.552609 0.830291 0.789495 0.284684
H30   H     H_    0.591133 0.898707 0.939683 0.270914
H31   H     H_    0.703232 0.904087 0.818239 0.222318
H32   H     H_    0.745060 0.723027 0.982965 0.202939
H33   H     H_    0.725464 0.650903 0.830134 0.193511
C33   C     C_3   0.337511 0.289240 0.101083 -0.345763
C34   C     C_3   0.260618 0.211381 0.004378 -0.878314
H34   H     H_    0.180548 0.274043 0.970407 0.260504
H35   H     H_    0.316925 0.183147 0.922625 0.257361
H36   H     H_    0.222606 0.115649 0.049579 0.240371
H37   H     H_    0.394498 0.212755 0.156096 0.217619
H38   H     H_    0.274647 0.339349 0.168172 0.183524

loop_
_geom_bond_atom_site_label_1
_geom_bond_atom_site_label_2
_ccdc_geom_bond_type
C15   C18   A    
C5    O8    A    
C4    O2    A    
C1    C21   A    
C8    C13   S    
Cu2   O8    S    
C10   C33   S    
C27   H22   S    
C20   H6    S    
C7    C11   S    
C21   H7    S    
Cu2   O2    S    
C22   H8    S    
C19   C21   A    
C31   H32   S    
C15   H1    S    
C28   H20   S    
C9    C13   S    
C33   H37   S    
C7    C14   S    
C3    O4    A    
C16   C17   A    
Cu1   N1    S    
C6    O7    A    
C2    C22   A    
Cu2   O4    S    
Cu1   Cu2   S    
C11   C23   S    
C29   H28   S    
C23   H12   S    
C15   N2    A    
C24   H11   S    
C28   H21   S    
C32   H31   S    
C18   N1    A    
C24   H10   S    
C27   H23   S    
C16   H2    S    
C26   H14   S    
C17   H3    S    
C18   H4    S    
C32   H30   S    
C10   C14   S    
C34   H35   S    
C33   C34   S    
C23   H13   S    
C30   H25   S    
C28   H19   S    
Cu1   O3    S    
C25   H18   S    
C26   H15   S    
C23   C24   S    
C16   N1    A    
C3    O1    A    
C8    C12   S    
C30   H26   S    
C25   C26   S    
C29   H27   S    
C5    C14   S    
C8    C29   S    
C20   C22   A    
Cu1   O1    S    
C5    O5    A    
C6    O6    A    
C17   N2    A    
C19   H5    S    
C31   H33   S    
C24   H9    S    
C7    C9    S    
C1    C20   A    
C2    C19   A    
C9    C31   S    
C12   C14   S    
C32   H29   S    
C34   H36   S    
C12   C25   S    
C25   H17   S    
Cu1   O7    S    
C26   H16   S    
C29   C30   S    
C1    C4    S    
C2    C3    S    
C31   C32   S    
C6    C13   S    
C11   C13   S    
C27   C28   S    
Cu1   O5    S    
Cu2   O6    S    
C9    C12   S    
Cu2   N2    S    
C10   C11   S    
C34   H34   S    
C33   H38   S    
C4    O3    A    
C8    C10   S    
C30   H24   S    
C7    C27   S    
