data_mof_unit_24134.cif
_audit_creation_date              2013-03-05T15:42:55-0500
_audit_creation_method            fapswitch 2.2
_symmetry_space_group_name_H-M    P1
_symmetry_Int_Tables_number       1
_space_group_crystal_system       triclinic
_cell_length_a                    15.04462
_cell_length_b                    10.970069
_cell_length_c                    9.743247
_cell_angle_alpha                 88.80161
_cell_angle_beta                  89.122615
_cell_angle_gamma                 91.089194
_cell_volume                      1607.18980952

loop_
_atom_site_label
_atom_site_type_symbol
_atom_site_description
_atom_site_fract_x
_atom_site_fract_y
_atom_site_fract_z
_atom_type_partial_charge
O1    O     O_R   0.500020 0.321960 0.617040 -0.536091
O2    O     O_R   0.499980 0.321920 0.382900 -0.599746
C1    C     C_R   0.497627 0.265729 0.501329 0.871598
O3    O     O_R   0.370270 0.499990 0.617090 -0.551464
O4    O     O_R   0.370240 0.499950 0.382940 -0.579598
C2    C     C_R   0.328980 0.496064 0.500800 0.871616
Cu1   Cu    Cu3+1 0.500020 0.500020 0.638630 1.111949
Cu2   Cu    Cu3+1 0.499980 0.499980 0.361370 1.118658
O5    O     O_R   0.500020 0.678080 0.617100 -0.554151
O6    O     O_R   0.499980 0.678040 0.382960 -0.544276
O7    O     O_R   0.629760 0.500050 0.617060 -0.554015
O8    O     O_R   0.629730 0.500010 0.382910 -0.518218
C3    C     C_R   0.500575 0.734686 0.498578 0.820423
C4    C     C_R   0.670772 0.502119 0.498804 0.848624
C5    C     C_R   0.815038 0.614305 0.469607 0.312760
C6    C     C_R   0.767095 0.504623 0.494500 -0.125362
C7    C     C_R   0.810290 0.395146 0.513035 -0.219175
C8    C     C_R   0.902490 0.392692 0.510614 0.076529
C9    C     C_R   0.952783 0.500892 0.484513 0.049549
C10   C     C_R   0.909297 0.612408 0.456136 -0.084140
C11   C     C_R   0.944421 0.281662 0.528910 -0.213098
C12   C     C_R   0.036678 0.275184 0.525254 0.324847
C13   C     C_R   0.089286 0.384091 0.514185 -0.085535
C14   C     C_R   0.046370 0.496648 0.486688 -0.020450
C15   C     C_R   0.097019 0.604568 0.460375 0.017135
C16   C     C_R   0.054865 0.714025 0.423714 0.268210
C17   C     C_R   0.961519 0.716993 0.415305 -0.144991
C18   C     C_R   0.183012 0.384720 0.528519 0.297588
C19   C     C_R   0.232119 0.492924 0.500370 -0.173439
C20   C     C_R   0.189677 0.599796 0.464037 -0.191366
H1    H     H_    0.771536 0.311647 0.530923 0.169841
H2    H     H_    0.905032 0.198082 0.540167 0.201650
H3    H     H_    0.230457 0.679615 0.439790 0.229701
C21   C     C_2   0.473806 0.937477 0.396360 -0.137158
C22   C     C_2   0.513389 0.866865 0.494000 0.135864
C23   C     C_2   0.489194 0.069851 0.391026 -0.118615
C24   C     C_2   0.486547 0.134542 0.505767 -0.161638
H4    H     H_    0.496832 0.114986 0.291062 0.220796
H5    H     H_    0.472959 0.090601 0.605064 0.209917
C25   C     C_2   0.465442 0.412007 0.926622 0.414280
N1    N     N_2   0.499020 0.498660 0.846910 -0.309500
H6    H     H_    0.508273 0.582931 0.889224 0.227653
C26   C     C_2   0.453177 0.424854 0.079127 -0.041522
N2    N     N_2   0.499000 0.498630 0.153040 -0.094923
H7    H     H_    0.402808 0.367335 0.130264 0.159794
N3    N     N_R   0.768407 0.727000 0.474736 0.102766
O9    O     O_R   0.706022 0.750446 0.387619 -0.287542
O10   O     O_R   0.784023 0.802294 0.573300 -0.261924
N4    N     N_R   0.579663 0.916862 0.583816 0.143265
O11   O     O_R   0.581952 0.881449 0.712016 -0.260548
O12   O     O_R   0.644434 0.985452 0.533804 -0.275875
N5    N     N_R   0.433763 0.300727 0.870246 0.140878
O13   O     O_R   0.462430 0.197652 0.918930 -0.298283
O14   O     O_R   0.360652 0.301060 0.801406 -0.274558
N6    N     N_R   0.580378 0.540890 0.098740 0.220438
O15   O     O_R   0.606644 0.651721 0.123590 -0.246046
O16   O     O_R   0.638602 0.463897 0.054587 -0.311906
N7    N     N_R   0.074501 0.156624 0.518482 0.181203
O17   O     O_R   0.122125 0.128599 0.411522 -0.229054
O18   O     O_R   0.047694 0.070658 0.604299 -0.224734
N8    N     N_R   0.227994 0.279007 0.578661 0.159679
O19   O     O_R   0.292474 0.232937 0.507436 -0.338159
O20   O     O_R   0.203810 0.227818 0.695387 -0.235095
N9    N     N_R   0.107209 0.821636 0.389618 0.149644
O21   O     O_R   0.154594 0.873873 0.483113 -0.234275
O22   O     O_R   0.110295 0.864566 0.264115 -0.278882
C27   C     C_2   0.921549 0.826685 0.351707 1.028072
O23   O     O_2   0.875808 0.816494 0.249762 -0.502926
O24   O     O_R   0.937932 0.941555 0.406295 -0.651826
H8    H     H_    0.907617 0.009120 0.353324 0.349917
C28   C     C_2   0.409084 0.890277 0.295147 0.941513
O25   O     O_2   0.355854 0.808799 0.327651 -0.594306
O26   O     O_R   0.406361 0.944080 0.163844 -0.683362
H9    H     H_    0.358908 0.905899 0.104726 0.371416

loop_
_geom_bond_atom_site_label_1
_geom_bond_atom_site_label_2
_geom_bond_distance
_ccdc_geom_bond_type
C7    C8    1.387745 A    
C12   N7    1.431895 S    
O4    Cu2   1.959961 S    
C26   N2    1.291222 D    
N4    O11   1.301482 A    
C14   C15   1.412438 A    
C22   N4    1.444567 S    
C19   C20   1.387654 A    
C10   C17   1.424400 A    
C8    C11   1.391699 A    
O26   H9    1.014004 S    
C9    C10   1.422259 A    
C20   H3    1.079535 S    
Cu2   O8    1.966476 S    
C18   N8    1.434489 S    
N8    O19   1.300286 A    
N6    O15   1.299999 A    
C23   H4    1.086846 S    
C9    C14   1.410114 A    
N7    O17   1.301087 A    
Cu1   Cu2   2.701432 S    
C24   H5    1.086673 S    
N3    O9    1.300746 A    
C11   C12   1.391089 A    
N9    O21   1.301000 A    
C27   O23   1.222829 D    
Cu1   O7    1.959963 S    
C26   H7    1.085231 S    
N2    N6    1.393582 S    
C18   C19   1.406002 A    
C16   C17   1.408947 A    
O24   H8    1.013801 S    
O3    Cu1   1.966475 S    
O4    C2    1.296505 A    
C3    C22   1.458802 S    
O3    C2    1.301575 A    
C23   C24   1.337118 D    
C11   H2    1.084901 S    
N5    O14   1.297059 A    
O2    C1    1.296477 A    
C21   C23   1.465859 S    
N6    O16   1.302880 A    
C5    C10   1.422733 A    
C7    H1    1.085929 S    
O7    C4    1.298218 A    
C4    C6    1.448826 S    
C17   C27   1.483674 S    
C13   C18   1.419010 A    
C13   C14   1.426545 A    
N7    O18   1.301292 A    
C5    C6    1.405787 A    
N3    O10   1.300914 A    
Cu1   O5    1.960194 S    
C28   O25   1.222179 D    
C2    C19   1.457060 S    
O5    C3    1.299514 A    
N5    O13   1.300752 A    
C1    C24   1.445273 S    
Cu2   O6    1.968994 S    
C21   C22   1.365197 D    
N1    H6    1.028003 S    
N4    O12   1.302071 A    
C28   O26   1.399153 S    
C15   C20   1.396957 A    
N8    O20   1.301542 A    
C16   N9    1.436782 S    
C12   C13   1.421770 A    
C8    C9    1.411873 A    
O1    Cu1   1.968994 S    
C25   N1    1.304161 D    
C5    N3    1.434416 S    
C27   O24   1.397065 S    
C15   C16   1.410516 A    
C25   N5    1.425847 S    
C21   C28   1.490060 S    
C25   C26   1.504380 S    
O2    Cu2   1.960194 S    
Cu2   N2    2.030452 S    
Cu1   N1    2.028889 S    
O8    C4    1.295675 A    
C6    C7    1.386159 A    
O1    C1    1.297045 A    
O6    C3    1.297921 A    
N9    O22   1.300985 A    
