data_mof_unit_11312.cif
_audit_creation_date              2012-12-10T20:25:47-0500
_audit_creation_method            fapswitch 2.2
_symmetry_space_group_name_H-M    P1
_symmetry_Int_Tables_number       1
_space_group_crystal_system       triclinic
_cell_length_a                    8.58468
_cell_length_b                    10.689183
_cell_length_c                    9.896795
_cell_angle_alpha                 89.481422
_cell_angle_beta                  98.863075
_cell_angle_gamma                 90.663874
_cell_volume                      897.233209927

loop_
_atom_site_label
_atom_site_type_symbol
_atom_type_description
_atom_site_fract_x
_atom_site_fract_y
_atom_site_fract_z
_atom_type_partial_charge
C1    C     C_R   0.506277 0.259935 0.501042 0.883944
C2    C     C_R   0.534742 0.936705 0.377770 -0.211824
C3    C     C_R   0.534508 0.871338 0.501190 -0.104460
C4    C     C_R   0.567951 0.934828 0.624614 0.078961
C5    C     C_3   0.494462 0.924845 0.751546 -0.505326
C6    C     C_3   0.497016 0.066718 0.753322 0.092161
C7    C     C_R   0.433056 0.402913 0.062195 0.222449
C8    C     C_R   0.578596 0.589866 0.081601 -0.134328
C9    C     C_R   0.578425 0.589935 0.937759 -0.125524
C10   C     C_R   0.436611 0.401810 0.920889 0.260821
C11   C     C_3   0.273634 0.351602 0.887699 -0.497724
C12   C     C_R   0.201201 0.501302 0.464040 0.965278
C13   C     C_3   0.265468 0.353677 0.040209 -0.095509
C14   C     C_R   0.506010 0.739990 0.500070 0.880004
C15   C     C_R   0.798708 0.501910 0.535887 0.969237
C16   C     C_2   0.035722 0.503039 0.444871 -0.387333
C17   C     C_2   0.963942 0.506603 0.554769 -0.369997
C18   C     C_R   0.569522 0.062801 0.625620 0.143128
C19   C     C_R   0.534966 0.128729 0.502681 -0.152918
C20   C     C_R   0.534727 0.065923 0.378466 -0.191323
H1    H     H_    0.973016 0.499635 0.340821 0.179515
H2    H     H_    0.639991 0.663492 0.891287 0.147830
H3    H     H_    0.194788 0.418196 0.824770 0.213885
H4    H     H_    0.269209 0.255568 0.846617 0.190189
H5    H     H_    0.255935 0.258036 0.083727 0.182586
H6    H     H_    0.025767 0.512896 0.658648 0.169116
H7    H     H_    0.521405 0.115081 0.281197 0.191296
H8    H     H_    0.521615 0.889305 0.280299 0.178527
H9    H     H_    0.373180 0.884359 0.732696 0.188851
H10   H     H_    0.574589 0.881001 0.837289 0.226562
H11   H     H_    0.377580 0.107741 0.736409 0.120675
H12   H     H_    0.639775 0.663729 0.143087 0.152321
N1    N     N_R   0.498950 0.499140 0.142680 -0.113936
N2    N     N_R   0.498950 0.499180 0.857030 -0.108304
O1    O     O_R   0.500020 0.316790 0.614690 -0.598317
O2    O     O_R   0.500000 0.316760 0.385350 -0.622929
O3    O     O_R   0.271760 0.500010 0.587850 -0.619210
O4    O     O_R   0.271740 0.499970 0.358500 -0.623247
O5    O     O_R   0.500000 0.683240 0.614650 -0.623914
O6    O     O_R   0.499980 0.683210 0.385310 -0.631414
O7    O     O_R   0.728260 0.500030 0.641500 -0.615033
O8    O     O_R   0.728240 0.499990 0.412150 -0.613703
Zn1   Zn    Zn3+2 0.500010 0.500020 0.653130 0.963517
Zn2   Zn    Zn3+2 0.499990 0.499980 0.346870 0.949445
C21   C     C_3   0.137833 0.442635 0.073288 -0.770971
H13   H     H_    0.098223 0.411432 0.169256 0.245505
H14   H     H_    0.180283 0.541256 0.081354 0.246184
H15   H     H_    0.031733 0.437417 0.993453 0.239664
Br1   Br    Br    0.643732 0.133765 0.905161 -0.564408

loop_
_geom_bond_atom_site_label_1
_geom_bond_atom_site_label_2
_ccdc_geom_bond_type
O3    Zn1   S    
C7    C10   A    
O5    Zn1   S    
O4    Zn2   S    
C16   H1    S    
C20   H7    S    
C11   C13   S    
C15   O8    A    
C19   C20   A    
O6    Zn2   S    
C4    C18   A    
C2    C3    A    
C10   N2    A    
C21   H13   S    
C13   C21   S    
O7    Zn1   S    
C13   H5    S    
C5    C6    S    
C3    C14   S    
O8    Zn2   S    
C17   H6    S    
C11   H3    S    
C6    H11   S    
C5    H9    S    
C8    N1    A    
C21   H14   S    
C6    Br1   S    
C12   O4    A    
C9    N2    A    
C6    C18   S    
C9    H2    S    
O2    Zn2   S    
C1    C19   S    
C10   C11   S    
C7    N1    A    
C14   O6    A    
C3    C4    A    
C8    H12   S    
C16   C17   D    
C11   H4    S    
C7    C13   S    
O1    Zn1   S    
C15   O7    A    
C18   C19   A    
C5    H10   S    
C21   H15   S    
C12   O3    A    
C15   C17   S    
C1    O1    A    
C8    C9    A    
C2    H8    S    
C14   O5    A    
N1    Zn2   S    
C2    C20   A    
N2    Zn1   S    
C12   C16   S    
C1    O2    A    
C4    C5    S    
