data_mof_unit_23952.cif
_audit_creation_date              2012-12-11T15:46:48-0500
_audit_creation_method            fapswitch 2.2
_symmetry_space_group_name_H-M    P1
_symmetry_Int_Tables_number       1
_space_group_crystal_system       triclinic
_cell_length_a                    11.545998
_cell_length_b                    11.526694
_cell_length_c                    19.601846
_cell_angle_alpha                 90.4769
_cell_angle_beta                  90.104588
_cell_angle_gamma                 59.619065
_cell_volume                      2250.43902297

loop_
_atom_site_label
_atom_site_type_symbol
_atom_type_description
_atom_site_fract_x
_atom_site_fract_y
_atom_site_fract_z
_atom_type_partial_charge
C1    C     C_R   0.620320 0.091800 0.606704 0.552417
C2    C     C_1   0.641379 0.704197 0.668134 0.002852
C3    C     C_1   0.126374 0.198671 0.859164 0.007103
C4    C     C_1   0.171713 0.170421 0.727752 -0.029984
C5    C     C_1   0.149982 0.182295 0.798894 -0.029275
C6    C     C_1   0.195676 0.161079 0.667520 0.003608
C7    C     C_1   0.700120 0.206638 0.855276 0.009352
C8    C     C_1   0.654805 0.157904 0.730822 -0.028907
C9    C     C_1   0.676797 0.186118 0.798024 -0.026569
C10   C     C_1   0.638615 0.129929 0.673700 0.005944
C11   C     C_R   0.677456 0.636577 0.199007 -0.020841
C12   C     C_R   0.612529 0.746189 0.598767 0.542234
C13   C     C_R   0.567689 0.646357 0.232984 -0.004439
C14   C     C_R   0.557622 0.655667 0.302086 -0.033945
C15   C     C_R   0.778900 0.629386 0.308743 -0.137492
C16   C     C_R   0.790279 0.614036 0.237851 0.327307
C17   C     C_3   0.421615 0.736106 0.220307 0.268857
C18   C     C_3   0.406901 0.747106 0.297396 -0.090198
C19   C     C_R   0.656476 0.663779 0.340107 -0.059262
C20   C     C_R   0.127119 0.202345 0.194968 0.003577
C21   C     C_R   0.171451 0.278970 0.227715 0.136280
C22   C     C_R   0.200173 0.262164 0.295666 -0.074164
C23   C     C_R   0.241286 0.145336 0.598342 0.542137
C24   C     C_R   0.116369 0.108405 0.305181 -0.048200
C25   C     C_R   0.091097 0.123042 0.234568 -0.152451
C26   C     C_3   0.289030 0.294624 0.211884 0.710169
C27   C     C_3   0.321338 0.276069 0.287173 -0.166683
C28   C     C_R   0.181837 0.171482 0.334883 0.009212
C29   C     C_R   0.683001 0.192880 0.197655 0.050803
C30   C     C_R   0.773833 0.070767 0.227593 0.020176
C31   C     C_R   0.767810 0.050208 0.295591 -0.011281
C32   C     C_R   0.594944 0.281188 0.311172 -0.173286
C33   C     C_R   0.599245 0.302068 0.240847 -0.117055
C34   C     C_R   0.645981 0.113187 0.403221 0.548282
C35   C     C_3   0.810926 0.929834 0.208936 -0.136092
C36   C     C_3   0.801440 0.907968 0.284671 -0.218527
C37   C     C_R   0.673633 0.151367 0.337875 0.005038
C38   C     C_R   0.081583 0.231085 0.928463 0.546208
C39   C     C_R   0.683874 0.604115 0.929358 0.532558
C40   C     C_R   0.735171 0.227199 0.922484 0.545235
C41   C     C_R   0.080773 0.236369 0.125780 0.586119
C42   C     C_R   0.685905 0.605944 0.127381 0.555439
C43   C     C_R   0.709357 0.212328 0.127729 0.578540
C44   C     C_R   0.618065 0.735337 0.403969 0.548384
C45   C     C_R   0.242538 0.141853 0.401978 0.548192
C46   C     C_1   0.670159 0.646101 0.859998 0.007896
C47   C     C_1   0.654763 0.683822 0.728487 -0.031394
C48   C     C_1   0.663260 0.666470 0.799656 -0.029370
Cr1   Cr    Cr6+3 0.404720 0.198220 0.499960 1.023457
Cr2   Cr    Cr6+3 0.698290 0.897110 0.500380 1.020654
Cr3   Cr    Cr6+3 0.396970 0.904720 0.499610 1.009917
Cr4   Cr    Cr6+3 0.926290 0.152010 0.028150 1.034615
Cr5   Cr    Cr6+3 0.921440 0.451830 0.027490 1.111267
Cr6   Cr    Cr6+3 0.626370 0.446880 0.028730 1.114283
H1    H     H_    0.860261 0.626546 0.337721 0.150596
H2    H     H_    0.415834 0.181132 0.298846 0.125279
H3    H     H_    0.308685 0.368014 0.312996 0.134897
H4    H     H_    0.524784 0.362946 0.343608 0.120023
H5    H     H_    0.536523 0.401763 0.220406 0.211186
H6    H     H_    0.733493 0.924066 0.177607 0.175716
H7    H     H_    0.715250 0.894356 0.297227 0.139902
H8    H     H_    0.898202 0.834898 0.308978 0.151615
H9    H     H_    0.396982 0.831720 0.194802 0.115913
H10   H     H_    0.371220 0.851152 0.315975 0.133661
H11   H     H_    0.041052 0.075040 0.210961 0.152567
O1    O     O_R   0.267750 0.231960 0.575440 -0.508922
O2    O     O_R   0.685950 0.784660 0.430010 -0.508945
O3    O     O_R   0.502510 0.767000 0.423980 -0.520122
O4    O     O_R   0.288320 0.026340 0.429250 -0.512156
O5    O     O_3   0.499990 0.000020 0.499980 -0.266235
O6    O     O_R   0.821590 0.119350 0.952850 -0.496557
O7    O     O_R   0.037230 0.162540 0.957390 -0.507707
O8    O     O_R   0.056530 0.344750 0.951370 -0.494520
O9    O     O_R   0.798000 0.560370 0.957490 -0.502558
O10   O     O_R   0.596230 0.579400 0.952760 -0.506238
O11   O     O_R   0.639160 0.321170 0.958690 -0.478098
O12   O     O_R   0.527290 0.186640 0.570530 -0.489573
O13   O     O_R   0.821370 0.124220 0.104400 -0.532271
O14   O     O_R   0.037020 0.167050 0.097880 -0.523520
O15   O     O_R   0.056310 0.349620 0.102920 -0.416555
O16   O     O_R   0.797790 0.564880 0.097980 -0.442525
O17   O     O_R   0.596000 0.584270 0.104310 -0.469567
O18   O     O_R   0.638950 0.325690 0.099180 -0.461384
O19   O     O_3   0.824700 0.350240 0.028120 -0.306521
O20   O     O_R   0.728110 0.003450 0.576380 -0.500918
O21   O     O_R   0.682980 0.789190 0.570500 -0.505409
O22   O     O_R   0.499300 0.771880 0.575540 -0.502163
O23   O     O_R   0.285350 0.030870 0.569740 -0.493625
O24   O     O_R   0.270960 0.227070 0.423890 -0.517184
O25   O     O_R   0.530270 0.182120 0.430040 -0.506704
O26   O     O_R   0.731320 0.998570 0.424830 -0.514628
F1    F     F_    0.384816 0.191944 0.171350 -0.637200
C49   C     C_3   0.953910 0.847072 0.180241 -0.334112
H12   H     H_    0.955647 0.872140 0.125916 0.173688
H13   H     H_    0.025607 0.865942 0.209231 0.144258
H14   H     H_    0.988645 0.738415 0.183009 0.245065
F2    F     F_    0.908767 0.581719 0.207992 -0.621184
F3    F     F_    0.365221 0.667841 0.189283 -0.597339
C50   C     C_3   0.329205 0.683627 0.327153 -0.327625
H15   H     H_    0.222656 0.741731 0.311002 0.147645
H16   H     H_    0.371139 0.578491 0.309087 0.179388
H17   H     H_    0.333443 0.684368 0.383695 0.128899
C51   C     C_3   0.069055 0.031508 0.347193 -0.384567
H18   H     H_    0.153133 0.947855 0.374554 0.150688
H19   H     H_    0.993271 0.100316 0.384923 0.147623
H20   H     H_    0.022969 0.986788 0.314773 0.124325
F4    F     F_    0.252059 0.421915 0.188849 -0.555001

loop_
_geom_bond_atom_site_label_1
_geom_bond_atom_site_label_2
_ccdc_geom_bond_type
C21   C26   S    
C49   H12   S    
C40   O6    A    
C34   C37   S    
C43   O18   A    
C14   C18   S    
C35   C36   S    
C42   O17   A    
C32   H4    S    
Cr1   O25   S    
C2    C12   S    
C41   O15   A    
Cr6   O19   S    
C20   C41   S    
C43   O13   A    
C15   C19   A    
C26   C27   S    
C30   C35   S    
Cr5   O19   S    
C23   O1    A    
C30   C31   A    
C36   H8    S    
C16   F2    S    
C20   C25   A    
C26   F1    S    
C15   C16   A    
C29   C33   A    
C1    O12   A    
C11   C42   S    
Cr5   O16   S    
C39   O9    A    
Cr4   O19   S    
C34   O26   A    
Cr2   O20   S    
Cr5   O9    S    
C3    C38   S    
C8    C9    S    
C7    C40   S    
Cr3   O5    S    
C39   O10   A    
Cr4   O14   S    
C45   O24   A    
Cr2   O2    S    
C33   H5    S    
C22   C28   A    
C21   C22   A    
C29   C43   S    
C42   O16   A    
Cr4   O13   S    
Cr6   O18   S    
C46   C48   T    
C35   C49   S    
C1    O20   A    
C38   O7    A    
C28   C45   S    
Cr1   O1    S    
C45   O4    A    
Cr5   O15   S    
C25   H11   S    
C24   C25   A    
C4    C6    T    
C27   H3    S    
Cr3   O22   S    
C27   H2    S    
C31   C37   A    
C35   H6    S    
C15   H1    S    
C26   F4    S    
C34   O25   A    
C29   C30   A    
Cr4   O7    S    
C11   C16   A    
C47   C48   S    
C17   C18   S    
C51   H19   S    
C32   C37   A    
C39   C46   S    
Cr6   O11   S    
C50   H16   S    
C49   H14   S    
C23   O23   A    
C22   C27   S    
C44   O3    A    
C18   C50   S    
C36   H7    S    
Cr6   O17   S    
C19   C44   S    
C17   F3    S    
C7    C9    T    
C12   O22   A    
C14   C19   A    
Cr5   O8    S    
C1    C10   S    
C24   C28   A    
Cr1   O24   S    
C4    C5    S    
C3    C5    T    
Cr3   O23   S    
C41   O14   A    
C12   O21   A    
C2    C47   T    
C50   H15   S    
C13   C17   S    
Cr1   O5    S    
C24   C51   S    
C32   C33   A    
Cr2   O5    S    
Cr4   O6    S    
C17   H9    S    
C11   C13   A    
C18   H10   S    
C49   H13   S    
C6    C23   S    
Cr1   O12   S    
C51   H20   S    
Cr3   O3    S    
Cr2   O21   S    
Cr6   O10   S    
C40   O11   A    
Cr2   O26   S    
C50   H17   S    
C20   C21   A    
C8    C10   T    
C51   H18   S    
C31   C36   S    
C44   O2    A    
Cr3   O4    S    
C13   C14   A    
C38   O8    A    
