data_mof_unit_13854.cif
_audit_creation_date              2012-12-11T16:53:32-0500
_audit_creation_method            fapswitch 2.2
_symmetry_space_group_name_H-M    P1
_symmetry_Int_Tables_number       1
_space_group_crystal_system       triclinic
_cell_length_a                    15.032956
_cell_length_b                    14.828139
_cell_length_c                    16.943771
_cell_angle_alpha                 108.614028
_cell_angle_beta                  106.279238
_cell_angle_gamma                 108.08023
_cell_volume                      3086.22020178

loop_
_atom_site_label
_atom_site_type_symbol
_atom_type_description
_atom_site_fract_x
_atom_site_fract_y
_atom_site_fract_z
_atom_type_partial_charge
C1    C     C_R   0.091978 0.275298 0.028298 0.503144
C2    C     C_R   0.030523 0.466186 0.726231 0.043181
C3    C     C_R   0.710858 0.198003 0.723797 0.061869
C4    C     C_R   0.361848 0.573880 0.065491 -0.133299
C5    C     C_R   0.273378 0.685186 0.250658 -0.135278
C6    C     C_R   0.741547 0.557198 0.967606 -0.183954
C7    C     C_R   0.896307 0.387750 0.173174 0.591033
C8    C     C_R   0.081505 0.808411 0.033129 -0.112333
C9    C     C_R   0.911828 0.725427 0.950321 -0.169337
C10   C     C_R   0.065813 0.483700 0.254744 -0.149520
C11   C     C_R   0.280552 0.781101 0.173429 -0.116307
C12   C     C_R   0.938754 0.457192 0.734659 -0.145937
C13   C     C_R   0.738244 0.463947 0.047928 0.530007
C14   C     C_R   0.337092 0.773703 0.248988 0.077743
C15   C     C_R   0.705512 0.534584 0.028369 -0.127304
C16   C     C_R   0.977735 0.416520 0.254900 -0.117652
C17   C     C_R   0.995336 0.825727 0.001128 0.160542
C18   C     C_R   0.541504 0.657892 0.090310 -0.044658
C19   C     C_R   0.452435 0.567256 0.061539 0.034705
C20   C     C_R   0.442099 0.466834 0.009390 -0.160044
C21   C     C_R   0.525643 0.456873 0.996765 -0.210453
C22   C     C_R   0.619180 0.547286 0.037160 0.082755
C23   C     C_R   0.745483 0.202694 0.811053 -0.123213
C24   C     C_R   0.625498 0.647795 0.078638 0.092546
C25   C     C_3   0.700808 0.736522 0.171057 -0.603146
C26   C     C_3   0.608211 0.748090 0.184371 0.409866
C27   C     C_R   0.971537 0.379422 0.325359 0.073687
C28   C     C_R   0.041926 0.417864 0.640946 -0.066207
C29   C     C_R   0.146381 0.436169 0.555653 -0.193238
C30   C     C_R   0.138965 0.455371 0.638909 -0.186754
C31   C     C_R   0.954154 0.347231 0.557513 0.452058
C32   C     C_R   0.959254 0.346579 0.476465 0.055427
C33   C     C_R   0.056334 0.388162 0.474104 -0.083201
C34   C     C_R   0.301448 0.599584 0.007849 0.512981
C35   C     C_R   0.060457 0.391278 0.392829 0.489507
C36   C     C_R   0.876156 0.340292 0.330122 -0.352253
C37   C     C_R   0.869169 0.316218 0.401275 -0.096978
C38   C     C_R   0.660754 0.102381 0.635377 -0.004300
C39   C     C_R   0.445256 0.841608 0.311916 0.087512
C40   C     C_R   0.581502 0.019268 0.383474 0.544178
C41   C     C_R   0.500385 0.931701 0.304922 -0.271459
C42   C     C_R   0.486573 0.828910 0.390190 -0.246750
C43   C     C_R   0.559530 0.917672 0.470541 0.068824
C44   C     C_R   0.598816 0.016422 0.468862 -0.097473
C45   C     C_R   0.748454 0.301681 0.736840 -0.101317
C46   C     C_R   0.644757 0.109261 0.551354 0.492368
C47   C     C_R   0.633188 0.002657 0.635244 -0.253243
C48   C     C_R   0.582040 0.911000 0.553438 -0.166270
C49   C     C_R   0.097475 0.051606 0.951479 0.153347
C50   C     C_R   0.013791 0.074697 0.922408 0.021268
C51   C     C_R   0.935737 0.001632 0.832624 -0.214164
C52   C     C_R   0.944442 0.913131 0.776892 -0.199468
C53   C     C_R   0.031977 0.895814 0.807905 0.066199
C54   C     C_R   0.105754 0.967554 0.896065 0.084410
C55   C     C_3   0.210023 0.994460 0.961000 -0.657563
C56   C     C_R   0.297682 0.508076 0.087439 -0.117948
C57   C     C_3   0.201124 0.087745 0.026207 0.358784
C58   C     C_R   0.110052 0.534036 0.812837 -0.092360
C59   C     C_R   0.920987 0.190985 0.963062 0.464129
C60   C     C_R   0.009672 0.174225 0.974778 -0.247438
H1    H     H_    0.160281 0.868040 0.074237 0.123495
H2    H     H_    0.145004 0.514698 0.302130 0.194917
H3    H     H_    0.309559 0.832685 0.144516 0.114821
H4    H     H_    0.369891 0.396377 0.979384 0.141459
H5    H     H_    0.518556 0.378871 0.958527 0.152599
H6    H     H_    0.753137 0.804380 0.166189 0.217548
H7    H     H_    0.794377 0.287264 0.402800 0.219723
H8    H     H_    0.209134 0.505258 0.701214 0.139175
H9    H     H_    0.719624 0.138511 0.827967 0.181175
H10   H     H_    0.554592 0.835038 0.554953 0.135051
H11   H     H_    0.476021 0.937759 0.241185 0.138767
H12   H     H_    0.451132 0.755630 0.393748 0.125514
H13   H     H_    0.869672 0.014659 0.803564 0.153380
H14   H     H_    0.884306 0.859651 0.708489 0.139914
H15   H     H_    0.212025 0.932807 0.983802 0.223294
H16   H     H_    0.269023 0.020126 0.935244 0.188391
H17   H     H_    0.725464 0.334074 0.690760 0.165941
H18   H     H_    0.322532 0.482301 0.139068 0.181206
H19   H     H_    0.191194 0.558003 0.831651 0.148431
N1    N     N_R   0.055640 0.348550 0.045600 -0.110597
N2    N     N_R   0.798340 0.505430 0.954400 -0.072933
N3    N     N_R   0.931580 0.439470 0.128350 -0.085123
N4    N     N_R   0.051950 0.704140 0.002340 -0.049637
N5    N     N_R   0.944360 0.651450 0.954400 -0.042279
N6    N     N_R   0.039170 0.492150 0.176290 -0.093426
N7    N     N_R   0.188710 0.696600 0.128350 -0.047149
N8    N     N_R   0.794820 0.447010 0.002340 -0.068463
N9    N     N_R   0.960830 0.507850 0.823710 -0.050639
N10   N     N_R   0.811290 0.303400 0.871650 -0.042868
N11   N     N_R   0.205180 0.552990 0.997660 -0.083713
N12   N     N_R   0.814810 0.361830 0.823710 -0.064494
N13   N     N_R   0.201660 0.494570 0.045600 -0.064201
N14   N     N_R   0.068420 0.560530 0.871650 -0.037492
N15   N     N_R   0.948050 0.295860 0.997660 -0.099512
N16   N     N_R   0.185190 0.638170 0.176290 -0.045400
Ni1   Ni    Ni4+2 0.119330 0.493420 0.109950 0.215942
Ni2   Ni    Ni4+2 0.880670 0.506580 0.890050 0.197023
Ni3   Ni    Ni4+2 0.872590 0.372590 0.000000 0.304746
Ni4   Ni    Ni4+2 0.127410 0.627410 0.000000 0.243783
O1    O     O_3   0.193405 0.300022 0.047621 -0.782929
H20   H     H_    0.194968 0.258003 0.989792 0.284422
H21   H     H_    0.719690 0.599426 0.930361 0.131428
O2    O     O_3   0.807017 0.294258 0.126346 -0.695667
H22   H     H_    0.817886 0.244273 0.150802 0.313787
H23   H     H_    0.834568 0.709405 0.908943 0.104341
O3    O     O_3   0.710328 0.410706 0.096705 -0.727771
H24   H     H_    0.673445 0.442775 0.127952 0.307084
H25   H     H_    0.740345 0.709134 0.217809 0.179426
H26   H     H_    0.862904 0.418575 0.679895 0.167158
H27   H     H_    0.594438 0.730151 0.239993 0.098150
O4    O     O_3   0.606768 0.844423 0.190111 -0.737603
H28   H     H_    0.612176 0.852362 0.135352 0.324257
O5    O     O_3   0.149629 0.409388 0.379521 -0.786065
H29   H     H_    0.190603 0.382494 0.414090 0.317477
H30   H     H_    0.806642 0.332357 0.281225 0.194438
H31   H     H_    0.222235 0.471664 0.557787 0.147978
O6    O     O_3   0.862494 0.283369 0.553581 -0.706591
H32   H     H_    0.879182 0.266056 0.606188 0.324562
O7    O     O_3   0.665036 0.205231 0.549283 -0.727051
H33   H     H_    0.601385 0.197504 0.503828 0.328404
H34   H     H_    0.646789 0.994038 0.697893 0.148188
O8    O     O_3   0.638825 0.108976 0.378892 -0.715962
H35   H     H_    0.616401 0.095912 0.313751 0.314083
O9    O     O_3   0.190989 0.074857 0.102084 -0.723358
H36   H     H_    0.261403 0.093746 0.145179 0.318777
O10   O     O_3   0.334040 0.680273 0.983785 -0.790587
H37   H     H_    0.410031 0.711350 0.007543 0.322733
H38   H     H_    0.262056 0.165890 0.044487 0.094323
O11   O     O_3   0.824404 0.116576 0.939868 -0.765644
H39   H     H_    0.828691 0.049598 0.934080 0.320887
H40   H     H_    0.294695 0.646738 0.292161 0.097698

loop_
_geom_bond_atom_site_label_1
_geom_bond_atom_site_label_2
_ccdc_geom_bond_type
C10   N6    A    
O10   H37   S    
C8    N4    A    
C23   H9    S    
C3    C23   A    
N16   Ni1   S    
C18   C26   S    
C2    C12   A    
C57   H38   S    
C56   H18   S    
C39   C41   A    
C53   C54   A    
N4    N5    A    
C18   C24   A    
N5    Ni2   S    
C36   C37   A    
C58   N14   A    
O11   H39   S    
C52   H14   S    
C11   C14   A    
C47   H34   S    
O3    H24   S    
N15   Ni3   S    
C11   N7    A    
C9    H23   S    
C49   C54   A    
C29   C33   A    
N13   Ni1   S    
C49   C57   S    
C18   C19   A    
C5    H40   S    
C31   O6    S    
C33   C35   A    
C14   C39   S    
C54   C55   S    
C4    C19   S    
C15   C22   S    
C59   O11   S    
C31   C32   A    
C3    C38   S    
C23   N10   A    
C59   N15   A    
N10   N12   A    
C43   C48   A    
N14   Ni4   S    
N9    Ni2   S    
C8    H1    S    
C41   H11   S    
N8    Ni3   S    
C55   H15   S    
C16   C27   S    
C6    C15   A    
C59   C60   A    
C6    N2    A    
C7    O2    S    
C21   C22   A    
C4    C56   A    
N3    Ni3   S    
C10   H2    S    
C1    O1    S    
C12   H26   S    
C5    N16   A    
C44   C46   A    
C39   C42   A    
C4    C34   A    
C12   N9    A    
C51   C52   A    
C24   C25   S    
C1    C60   A    
C27   C35   A    
C25   C26   S    
C3    C45   A    
N4    Ni4   S    
C20   H4    S    
C43   C44   A    
C34   N11   A    
C29   C30   A    
N11   N13   A    
C47   C48   A    
C56   N13   A    
C34   O10   S    
C13   N8    A    
C42   H12   S    
C50   C51   A    
C5    C14   A    
C32   C37   A    
N12   Ni2   S    
N7    Ni4   S    
C38   C47   A    
N2    N8    A    
C58   H19   S    
C55   H16   S    
C9    C17   A    
C40   C41   A    
C29   H31   S    
C55   C57   S    
C22   C24   A    
N1    Ni1   S    
C42   C43   A    
N1    N15   A    
N11   Ni4   S    
C52   C53   A    
O5    H29   S    
C26   H27   S    
N9    N14   A    
C7    C16   A    
O4    H28   S    
C21   H5    S    
C28   C31   A    
C25   H6    S    
C51   H13   S    
C48   H10   S    
C13   O3    S    
C45   H17   S    
O7    H33   S    
C2    C58   A    
C27   C36   A    
N3    N6    A    
C40   O8    S    
C11   H3    S    
C8    C17   A    
N10   Ni3   S    
C50   C60   S    
C32   C33   A    
C19   C20   A    
C13   C15   A    
C10   C16   A    
O6    H32   S    
C57   O9    S    
N2    Ni2   S    
C37   H7    S    
C28   C30   A    
O1    H20   S    
N6    Ni1   S    
C46   O7    S    
C35   O5    S    
C6    H21   S    
C45   N12   A    
C38   C46   A    
N7    N16   A    
C9    N5    A    
C40   C44   A    
C7    N3    A    
C20   C21   A    
C49   C50   A    
O2    H22   S    
C1    N1    A    
C2    C28   S    
O8    H35   S    
C36   H30   S    
C26   O4    S    
C30   H8    S    
C25   H25   S    
O9    H36   S    
