data_mof_unit_65954.cif
_audit_creation_date              2012-12-11T14:19:32-0500
_audit_creation_method            fapswitch 2.2
_symmetry_space_group_name_H-M    P1
_symmetry_Int_Tables_number       1
_space_group_crystal_system       triclinic
_cell_length_a                    8.177323
_cell_length_b                    12.674203
_cell_length_c                    15.051186
_cell_angle_alpha                 95.627706
_cell_angle_beta                  99.066647
_cell_angle_gamma                 97.463916
_cell_volume                      1516.14479427

loop_
_atom_site_label
_atom_site_type_symbol
_atom_type_description
_atom_site_fract_x
_atom_site_fract_y
_atom_site_fract_z
_atom_type_partial_charge
Ba1   Ba    Ba6+2 0.153570 0.551840 0.456200 1.633389
Ba2   Ba    Ba6+2 0.656590 0.448150 0.543720 1.640025
C1    C     C_3   0.328381 0.811895 0.114369 -0.366215
C2    C     C_R   0.725156 0.819091 0.474162 -0.286104
C3    C     C_R   0.693701 0.996363 0.434479 -0.089560
C4    C     C_3   0.886721 0.835194 0.249954 0.338611
C5    C     C_R   0.626746 0.888787 0.434033 0.004210
C6    C     C_R   0.885662 0.855078 0.522730 0.045654
C7    C     C_R   0.950679 0.968280 0.532324 -0.037606
C8    C     C_R   0.855312 0.038717 0.483194 -0.061968
C9    C     C_R   0.922497 0.150128 0.487325 0.064142
C10   C     C_R   0.180512 0.117846 0.578387 0.008786
C11   C     C_R   0.105243 0.014995 0.589054 -0.002276
C12   C     C_3   0.371105 0.782703 0.210079 0.348024
C13   C     C_R   0.237889 0.452818 0.766243 -0.272021
C14   C     C_R   0.139644 0.413463 0.826625 0.003396
C15   C     C_R   0.203685 0.426332 0.919679 -0.136785
C16   C     C_3   0.831516 0.928671 0.202896 -0.402939
C17   C     C_R   0.365854 0.484054 0.954187 0.015996
C18   C     C_R   0.455344 0.531318 0.891200 -0.117232
C19   C     C_R   0.391870 0.515538 0.798704 0.034132
C20   C     C_R   0.605185 0.551014 0.085987 -0.136961
C21   C     C_R   0.671288 0.568450 0.178187 0.014848
C22   C     C_R   0.414971 0.478726 0.212387 0.068010
C23   C     C_3   0.583410 0.777320 0.675520 0.289023
C24   C     C_R   0.345815 0.462380 0.119877 -0.119588
C25   C     C_R   0.438377 0.500160 0.054246 0.001842
C26   C     C_R   0.574652 0.535565 0.241352 -0.291233
C27   C     C_3   0.722389 0.308049 0.269782 0.310847
C28   C     C_3   0.674502 0.274055 0.168156 -0.400168
C29   C     C_3   0.077067 0.672378 0.725163 0.308325
C30   C     C_3   0.121880 0.699243 0.827769 -0.403756
C31   C     C_3   0.230681 0.226163 0.346726 0.278268
C32   C     C_3   0.224473 0.105625 0.328519 -0.341172
C33   C     C_3   0.160906 0.975901 0.678021 -0.339419
C34   C     C_3   0.642918 0.895966 0.705024 -0.385777
C35   C     C_3   0.939852 0.161870 0.787779 0.333072
C36   C     C_3   0.020658 0.122767 0.874313 -0.416314
C37   C     C_3   0.449030 0.224640 0.795087 0.390074
C38   C     C_3   0.483358 0.192989 0.890503 -0.373091
C39   C     C_R   0.085662 0.185746 0.532621 -0.289040
H1    H     H_    0.286802 0.708297 0.215145 0.097338
H2    H     H_    0.106632 0.243975 0.358200 0.007090
H3    H     H_    0.326274 0.255381 0.408147 0.072429
H4    H     H_    0.194977 0.823504 0.099801 0.151939
H5    H     H_    0.136157 0.074219 0.265123 0.117769
H6    H     H_    0.182603 0.065987 0.385139 0.075687
H7    H     H_    0.350633 0.086660 0.320982 0.140794
H8    H     H_    0.502964 0.767526 0.221443 -0.058436
H9    H     H_    0.349723 0.746449 0.064726 0.073391
H10   H     H_    0.688100 0.741515 0.651694 0.024478
H11   H     H_    0.475691 0.768411 0.618970 0.058232
H12   H     H_    0.562366 0.211332 0.153797 0.128257
H13   H     H_    0.758053 0.906342 0.757104 0.108734
H14   H     H_    0.670676 0.936786 0.646035 0.078597
H15   H     H_    0.544957 0.933430 0.734334 0.151440
H16   H     H_    0.408201 0.887132 0.106751 0.109720
H17   H     H_    0.712318 0.901457 0.155071 0.115707
H18   H     H_    0.857410 0.093424 0.744862 0.063831
H19   H     H_    0.036580 0.189226 0.747548 -0.056047
H20   H     H_    0.088116 0.054952 0.858056 0.078545
H21   H     H_    0.110552 0.188835 0.916371 0.104534
H22   H     H_    0.922938 0.094889 0.913814 0.129900
H23   H     H_    0.645910 0.343322 0.132310 0.065435
H24   H     H_    0.315501 0.235215 0.780135 -0.093750
H25   H     H_    0.527994 0.302207 0.793144 0.098709
H26   H     H_    0.452294 0.255418 0.939580 0.069347
H27   H     H_    0.617225 0.184560 0.909747 0.153207
H28   H     H_    0.999023 0.864958 0.302490 0.084373
H29   H     H_    0.405579 0.115454 0.894106 0.105231
H30   H     H_    0.616893 0.046004 0.397510 0.099941
H31   H     H_    0.141124 0.267624 0.530909 0.061538
H32   H     H_    0.673643 0.735264 0.469584 0.066920
H33   H     H_    0.689384 0.575559 0.041216 0.079917
H34   H     H_    0.779795 0.241646 0.141861 0.125104
H35   H     H_    0.122203 0.393821 0.963052 0.066791
H36   H     H_    0.221595 0.417911 0.101368 0.080050
H37   H     H_    0.571616 0.584716 0.911643 0.072747
H38   H     H_    0.627825 0.547895 0.312764 0.072604
H39   H     H_    0.783107 0.802769 0.283967 -0.050739
H40   H     H_    0.187742 0.443603 0.694493 0.061190
H41   H     H_    0.812368 0.993409 0.253825 0.090675
H42   H     H_    0.927527 0.960483 0.163952 0.129299
H43   H     H_    0.614353 0.335777 0.295688 0.012657
H44   H     H_    0.829512 0.374126 0.282199 0.062401
H45   H     H_    0.182425 0.643611 0.697686 0.007097
H46   H     H_    0.222796 0.041631 0.730410 0.087204
H47   H     H_    0.048924 0.946595 0.706246 0.113673
H48   H     H_    0.249804 0.917971 0.671577 0.152694
H49   H     H_    0.966671 0.609094 0.708912 0.092249
H50   H     H_    0.243476 0.753283 0.846201 0.123902
H51   H     H_    0.130857 0.625925 0.861119 0.073307
H52   H     H_    0.023278 0.739798 0.853719 0.131890
O1    O     O_2   0.168170 0.764170 0.543850 -0.461390
O2    O     O_2   0.809041 0.440505 0.822625 -0.489714
O3    O     O_3   0.839378 0.238865 0.810502 -0.578546
O4    O     O_3   0.898670 0.629780 0.545890 -0.493090
O5    O     O_3   0.409490 0.443300 0.392340 -0.494105
O6    O     O_2   0.674250 0.555830 0.719690 -0.457849
O7    O     O_3   0.534848 0.729690 0.749454 -0.640858
O8    O     O_2   0.517376 0.116339 0.562718 -0.473156
O9    O     O_3   0.487007 0.144667 0.733114 -0.591614
O10   O     O_3   0.365980 0.695510 0.380810 -0.490290
O11   O     O_2   0.285519 0.884252 0.437281 -0.481745
O12   O     O_3   0.269879 0.272001 0.270487 -0.635152
O13   O     O_3   0.042368 0.765983 0.689548 -0.651840
O14   O     O_3   0.347949 0.867108 0.272572 -0.608810
O15   O     O_2   0.136040 0.444100 0.280280 -0.465552
O16   O     O_3   0.934510 0.640480 0.335500 -0.485294
O17   O     O_2   0.012422 0.567232 0.177065 -0.491183
O18   O     O_3   0.927920 0.759504 0.185372 -0.598095
O19   O     O_2   0.642110 0.235770 0.456130 -0.467709
O20   O     O_3   0.911620 0.370210 0.454030 -0.498228
O21   O     O_3   0.444310 0.304480 0.619110 -0.483189
O22   O     O_3   0.765661 0.219340 0.311208 -0.644092
O23   O     O_3   0.400800 0.556680 0.607590 -0.482981
O24   O     O_3   0.875770 0.359510 0.664420 -0.469219
P1    P     P_3+3 0.998660 0.747790 0.570900 0.972635
P2    P     P_3+3 0.306970 0.411860 0.294270 0.980569
P3    P     P_3+3 0.887689 0.631219 0.217926 0.955422
P4    P     P_3+3 0.811620 0.252200 0.429030 0.972202
P5    P     P_3+3 0.917945 0.363714 0.782408 0.963235
P6    P     P_3+3 0.407786 0.834945 0.382469 0.946329
P7    P     P_3+3 0.497607 0.590554 0.720949 0.945896
P8    P     P_3+3 0.405325 0.167610 0.623011 0.966371

loop_
_geom_bond_atom_site_label_1
_geom_bond_atom_site_label_2
_ccdc_geom_bond_type
C4    H28   S    
O22   P4    S    
C28   H23   S    
O1    P1    D    
C4    O18   S    
C17   C18   A    
O14   P6    S    
C2    C6    A    
O9    P8    S    
O10   P6    S    
C6    P1    S    
O5    P2    S    
C13   H40   S    
O11   P6    D    
Ba2   O19   S    
C24   C25   A    
C10   C39   A    
C38   H29   S    
C22   C24   A    
C11   C33   S    
Ba2   O20   S    
C30   H50   S    
C13   C14   A    
Ba1   Ba2   S    
Ba1   P2    S    
O4    P1    S    
C26   H38   S    
C7    C11   A    
C14   P5    S    
C29   O13   S    
C15   C17   A    
Ba2   O23   S    
C1    H9    S    
Ba2   O4    S    
C14   C15   A    
C38   H26   S    
C15   H35   S    
O8    P8    D    
C32   H5    S    
Ba1   O23   S    
C27   C28   S    
C17   C25   S    
C7    C8    A    
Ba1   O10   S    
C27   H44   S    
C12   H1    S    
C36   H20   S    
Ba1   O16   S    
C30   H52   S    
C27   O22   S    
C29   H45   S    
O13   P1    S    
C37   H24   S    
O15   P2    D    
C9    P4    S    
C33   H46   S    
C2    C5    A    
Ba2   O24   S    
C16   H17   S    
C16   H42   S    
C4    C16   S    
C28   H12   S    
C24   H36   S    
C31   H2    S    
C31   O12   S    
C27   H43   S    
Ba1   O4    S    
C37   C38   S    
C3    C5    A    
O21   P8    S    
C6    C7    A    
C10   P8    S    
Ba1   O15   S    
C1    H4    S    
C35   O3    S    
O18   P3    S    
O7    P7    S    
O24   P5    S    
C23   H10   S    
C35   C36   S    
C34   H15   S    
C33   H47   S    
C23   O7    S    
C4    H39   S    
C29   C30   S    
C13   C19   A    
C29   H49   S    
C31   C32   S    
C21   C26   A    
C10   C11   A    
C2    H32   S    
C35   H18   S    
C1    C12   S    
C39   H31   S    
C1    H16   S    
O2    P5    D    
C12   O14   S    
Ba2   O6    S    
C20   C25   A    
C37   H25   S    
C32   H7    S    
C20   H33   S    
O17   P3    D    
C33   H48   S    
C21   P3    S    
C37   O9    S    
C36   H22   S    
Ba2   P4    S    
C22   P2    S    
O23   P7    S    
C31   H3    S    
C22   C26   A    
C5    P6    S    
Ba1   O5    S    
Ba1   O1    S    
O3    P5    S    
C18   H37   S    
C19   P7    S    
C23   H11   S    
O19   P4    D    
C3    H30   S    
C34   H14   S    
C28   H34   S    
Ba2   O21   S    
C30   H51   S    
C16   H41   S    
C9    C39   A    
Ba1   P1    S    
Ba1   O20   S    
C35   H19   S    
C34   H13   S    
C8    C9    A    
C23   C34   S    
C12   H8    S    
C3    C8    A    
O20   P4    S    
C18   C19   A    
Ba2   O5    S    
C38   H27   S    
C20   C21   A    
O12   P2    S    
C32   H6    S    
O16   P3    S    
O6    P7    D    
C36   H21   S    
