data_mof_unit_48315.cif
_audit_creation_date              2012-12-10T19:43:05-0500
_audit_creation_method            fapswitch 2.2
_symmetry_space_group_name_H-M    P1
_symmetry_Int_Tables_number       1
_space_group_crystal_system       triclinic
_cell_length_a                    18.411616
_cell_length_b                    18.344549
_cell_length_c                    18.285031
_cell_angle_alpha                 119.876635
_cell_angle_beta                  89.842235
_cell_angle_gamma                 59.910858
_cell_volume                      4363.16720383

loop_
_atom_site_label
_atom_site_type_symbol
_atom_type_description
_atom_site_fract_x
_atom_site_fract_y
_atom_site_fract_z
_atom_type_partial_charge
C1    C     C_R   0.860020 0.779988 0.639927 0.855916
C2    C     C_R   0.101971 0.598226 0.960144 -0.252766
C3    C     C_R   0.041187 0.616222 0.915601 0.342076
C4    C     C_R   0.137665 0.219737 0.359534 0.828111
C5    C     C_R   0.065731 0.606849 0.836553 0.315975
C6    C     C_R   0.225878 0.053003 0.339810 0.001997
C7    C     C_R   0.184008 0.108031 0.303236 -0.187034
C8    C     C_R   0.186012 0.051716 0.213378 0.358719
C9    C     C_R   0.243876 0.943430 0.160298 -0.257651
C10   C     C_R   0.295158 0.891090 0.196288 -0.107720
C11   C     C_R   0.278280 0.947086 0.288162 0.122580
C12   C     C_R   0.438362 0.396655 0.655196 0.441220
C13   C     C_3   0.340180 0.940807 0.340969 -0.483143
C14   C     C_3   0.282574 0.058583 0.398448 -0.198774
C15   C     C_R   0.243581 0.537466 0.336070 0.068225
C16   C     C_R   0.860073 0.499512 0.639643 0.866733
C17   C     C_R   0.186348 0.509774 0.304464 -0.250246
C18   C     C_R   0.175592 0.494838 0.222140 0.375584
C19   C     C_R   0.233064 0.491969 0.168364 -0.297817
C20   C     C_R   0.298252 0.506635 0.196640 -0.127508
C21   C     C_R   0.299013 0.534805 0.282459 0.091164
C22   C     C_3   0.375468 0.488536 0.310868 -0.415402
C23   C     C_R   0.345845 0.448729 0.704450 -0.063284
C24   C     C_3   0.314413 0.493269 0.371461 0.244314
C25   C     C_R   0.838711 0.947399 0.735078 0.122033
C26   C     C_R   0.804732 0.891532 0.689026 -0.128477
C27   C     C_R   0.719832 0.943831 0.683299 -0.193650
C28   C     C_R   0.137860 0.501889 0.359758 0.837048
C29   C     C_R   0.665588 0.052130 0.732227 -0.081665
C30   C     C_R   0.696433 0.108227 0.791373 -0.155708
C31   C     C_R   0.785404 0.053480 0.785703 0.126524
C32   C     C_3   0.825324 0.062745 0.858105 -0.481422
C33   C     C_3   0.883753 0.945689 0.802561 -0.360667
C34   C     C_R   0.286309 0.449846 0.654426 0.058107
C35   C     C_R   0.711845 0.557053 0.341258 -0.051936
C36   C     C_R   0.804585 0.495872 0.304690 -0.048169
C37   C     C_R   0.843169 0.432116 0.210570 -0.095037
C38   C     C_R   0.789126 0.433465 0.156738 -0.181330
C39   C     C_R   0.695412 0.499882 0.195964 -0.029607
C40   C     C_R   0.860090 0.498804 0.360163 0.873188
C41   C     C_R   0.659762 0.561063 0.289132 -0.034277
C42   C     C_3   0.574711 0.646456 0.367055 0.108754
C43   C     C_3   0.633976 0.637284 0.427394 0.578954
C44   C     C_R   0.711785 0.556390 0.714621 0.090765
C45   C     C_R   0.309662 0.494708 0.798022 -0.108315
C46   C     C_R   0.804588 0.493232 0.689373 -0.070354
C47   C     C_R   0.843109 0.420076 0.709477 -0.160939
C48   C     C_R   0.789109 0.420179 0.763359 -0.192320
C49   C     C_R   0.696018 0.493324 0.797565 -0.087690
C50   C     C_R   0.658523 0.555857 0.767094 0.157063
C51   C     C_3   0.587930 0.669089 0.816609 -0.482832
C52   C     C_R   0.137139 0.502707 0.642523 0.896688
C53   C     C_3   0.646607 0.670016 0.758338 -0.255078
C54   C     C_R   0.359800 0.500252 0.140165 0.829775
C55   C     C_R   0.640038 0.499688 0.859605 0.864858
C56   C     C_R   0.219215 0.537027 0.837730 0.043615
C57   C     C_R   0.359253 0.779989 0.140121 0.812623
C58   C     C_R   0.639957 0.219944 0.857152 0.868650
C59   C     C_R   0.639787 0.500711 0.140176 0.832146
C60   C     C_R   0.364067 0.496178 0.855984 0.909393
C61   C     C_R   0.319366 0.396678 0.560332 -0.091496
C62   C     C_R   0.408126 0.342809 0.515054 -0.205693
C63   C     C_R   0.466610 0.342726 0.561578 -0.105194
C64   C     C_2   0.331433 0.102267 0.392488 0.966393
C65   C     C_2   0.579444 0.101710 0.717938 0.977311
C66   C     C_2   0.681163 0.733153 0.809225 0.987411
C67   C     C_R   0.158919 0.550372 0.790034 -0.089806
C68   C     C_R   0.194298 0.503094 0.697514 -0.079228
C69   C     C_R   0.187169 0.566854 0.925371 -0.234427
H1    H     H_    0.250159 0.900001 0.090441 0.217902
H2    H     H_    0.696141 0.900292 0.640247 0.253602
H3    H     H_    0.863409 0.095757 0.863387 0.230100
H4    H     H_    0.776810 0.099387 0.922413 0.208646
H5    H     H_    0.955618 0.911167 0.776325 0.245099
H6    H     H_    0.868559 0.914729 0.834612 0.229584
H7    H     H_    0.914844 0.382006 0.178344 0.223720
H8    H     H_    0.820942 0.383467 0.084698 0.185929
H9    H     H_    0.544596 0.718640 0.370907 0.110974
H10   H     H_    0.431604 0.302024 0.442993 0.172455
H11   H     H_    0.914770 0.365956 0.687139 0.179635
H12   H     H_    0.335589 0.909307 0.377908 0.203192
H13   H     H_    0.820586 0.366134 0.781215 0.185309
H14   H     H_    0.524994 0.684972 0.802272 0.248592
H15   H     H_    0.579514 0.712340 0.889089 0.219700
H16   H     H_    0.616902 0.686593 0.711073 0.222978
H17   H     H_    0.534893 0.301892 0.522704 0.216215
H18   H     H_    0.228225 0.561328 0.966998 0.162653
H19   H     H_    0.082647 0.610900 0.023622 0.225098
H20   H     H_    0.992467 0.503015 0.946892 0.354451
H21   H     H_    0.372781 0.192116 0.458494 0.340325
H22   H     H_    0.182386 0.313545 0.096210 0.354482
H23   H     H_    0.409247 0.902361 0.300426 0.218460
H24   H     H_    0.242709 0.744111 0.572272 0.398842
H25   H     H_    0.475208 0.097402 0.689689 0.366383
H26   H     H_    0.386446 0.748961 0.375878 0.343721
H27   H     H_    0.612307 0.787551 0.631263 0.394118
H28   H     H_    0.616004 0.462631 0.459694 0.398446
H29   H     H_    0.702702 0.837734 0.827795 0.340856
H30   H     H_    0.656944 0.352562 0.648775 0.375578
H31   H     H_    0.843362 0.824391 0.891016 0.369095
H32   H     H_    0.994630 0.175413 0.254413 0.340058
H33   H     H_    0.246326 0.093730 0.468336 0.174612
H34   H     H_    0.227972 0.476869 0.103975 0.201865
H35   H     H_    0.431418 0.408591 0.255539 0.167341
H36   H     H_    0.394061 0.541964 0.347634 0.319036
H37   H     H_    0.335208 0.416442 0.353443 0.059787
H38   H     H_    0.277392 0.393854 0.519226 0.122941
O1    O     O_3   1.000000 0.500000 0.500000 -0.546107
O2    O     O_R   0.676550 0.268320 0.884150 -0.633385
O3    O     O_R   0.555150 0.560600 0.176460 -0.580763
O4    O     O_R   0.944950 0.731580 0.615800 -0.606705
O5    O     O_R   0.384220 0.439220 0.884170 -0.624233
O6    O     O_R   0.676580 0.439170 0.055020 -0.663055
O7    O     O_R   0.384230 0.560650 0.884170 -0.575799
O8    O     O_R   0.384260 0.731500 0.055040 -0.648743
O9    O     O_R   0.555100 0.268330 0.884160 -0.611995
O10   O     O_R   0.384250 0.560620 0.176470 -0.575073
O11   O     O_R   0.676570 0.439190 0.884150 -0.645717
O12   O     O_R   0.944910 0.439280 0.615800 -0.636830
O13   O     O_R   0.115780 0.268410 0.444920 -0.664885
O14   O     O_R   0.823470 0.560720 0.615800 -0.591233
O15   O     O_R   0.115800 0.439290 0.323490 -0.577657
O16   O     O_R   0.823460 0.560740 0.444930 -0.569881
O17   O     O_R   0.115830 0.560690 0.615790 -0.552540
O18   O     O_R   0.944900 0.439310 0.323490 -0.588027
O19   O     O_R   0.115810 0.439260 0.615790 -0.632054
O20   O     O_2   0.876556 0.758234 0.036282 -0.171740
O21   O     O_2   0.893903 0.622934 0.889660 -0.221054
O22   O     O_3   0.951966 0.575787 0.999437 -0.484609
O23   O     O_R   0.115820 0.560710 0.444920 -0.610422
O24   O     O_2   0.368959 0.076030 0.319836 -0.618261
O25   O     O_R   0.334722 0.171913 0.470998 -0.791036
O26   O     O_2   0.005679 0.556394 0.260396 -0.257385
O27   O     O_2   0.078974 0.497225 0.111489 -0.276241
O28   O     O_3   0.123296 0.359888 0.142996 -0.466356
O29   O     O_2   0.224888 0.592019 0.544954 -0.262596
O30   O     O_2   0.375803 0.547249 0.508816 -0.239138
O31   O     O_3   0.248658 0.700456 0.509008 -0.504551
O32   O     O_2   0.551755 0.177810 0.717934 -0.571980
O33   O     O_R   0.531984 0.057992 0.699897 -0.748414
O34   O     O_R   0.823500 0.731590 0.615800 -0.578594
O35   O     O_2   0.542708 0.501105 0.302692 -0.263305
O36   O     O_2   0.449478 0.653657 0.457126 -0.190243
O37   O     O_3   0.417759 0.674141 0.329338 -0.500126
O38   O     O_2   0.681724 0.761752 0.444989 -0.294342
O39   O     O_2   0.531618 0.845787 0.537316 -0.291291
O40   O     O_3   0.664741 0.755927 0.582539 -0.467905
O41   O     O_2   0.706206 0.553708 0.518799 -0.306673
O42   O     O_2   0.544322 0.664071 0.566703 -0.255468
O43   O     O_3   0.630447 0.478247 0.419400 -0.484665
O44   O     O_2   0.713790 0.724879 0.865176 -0.551938
O45   O     O_R   0.115770 0.268420 0.323490 -0.559875
O46   O     O_R   0.676389 0.800595 0.790968 -0.770328
O47   O     O_2   0.489606 0.516374 0.751280 -0.283960
O48   O     O_2   0.540812 0.368013 0.758962 -0.326769
O49   O     O_3   0.618294 0.334805 0.617988 -0.563300
O50   O     O_2   0.017939 0.730466 0.780958 -0.308210
O51   O     O_2   0.948084 0.638367 0.748623 -0.351421
O52   O     O_3   0.894531 0.796573 0.910731 -0.477414
O53   O     O_2   0.157760 0.153111 0.138563 -0.199860
O54   O     O_2   0.115593 0.033109 0.080955 -0.274961
O55   O     O_3   0.014254 0.207296 0.236543 -0.532616
O56   O     O_3   0.500040 0.499910 0.999960 -0.513084
O57   O     O_R   0.384230 0.439200 0.055040 -0.660833
O58   O     O_R   0.555130 0.560630 0.884160 -0.582775
O59   O     O_R   0.384270 0.731490 0.176470 -0.633791
S1    S     S_3+6 0.936971 0.645987 0.959923 0.116208
S2    S     S_3+6 0.092387 0.479841 0.183927 0.071579
S3    S     S_3+6 0.290809 0.583875 0.487604 0.074715
S4    S     S_3+6 0.495933 0.615869 0.365620 0.084732
S5    S     S_3+6 0.627076 0.754036 0.498352 0.058879
S6    S     S_3+6 0.628251 0.584101 0.486579 0.085825
S7    S     S_3+6 0.521574 0.405613 0.700087 0.019236
S8    S     S_3+6 0.981046 0.692696 0.815789 0.038344
S9    S     S_3+6 0.118778 0.110584 0.163915 0.071404
Zn1   Zn    Zn3+2 0.043370 0.413240 0.543370 1.027937
Zn2   Zn    Zn3+2 0.869870 0.586760 0.543380 1.131723
Zn3   Zn    Zn3+2 0.043360 0.413260 0.369880 1.115649
Zn4   Zn    Zn3+2 0.043390 0.586740 0.543370 1.107851
Zn5   Zn    Zn3+2 0.456670 0.586670 0.956580 1.075725
Zn6   Zn    Zn3+2 0.456680 0.586650 0.130080 1.036853
Zn7   Zn    Zn3+2 0.630180 0.413150 0.956570 1.022050
Zn8   Zn    Zn3+2 0.456650 0.413170 0.956580 1.044473

loop_
_geom_bond_atom_site_label_1
_geom_bond_atom_site_label_2
_ccdc_geom_bond_type
O2    Zn7   S    
C25   C31   A    
O4    Zn4   S    
O38   S5    D    
C45   C60   S    
C23   C45   A    
O37   S4    S    
O56   Zn6   S    
O42   S6    D    
H25   O33   S    
C5    S8    S    
C60   O7    A    
C35   C36   A    
O16   Zn2   S    
C52   O17   A    
C8    S9    S    
C3    S1    S    
C7    C8    A    
C57   O8    A    
C12   C23   A    
C26   C27   A    
C37   C38   A    
O34   Zn2   S    
C22   C24   S    
C21   C22   S    
H32   O55   S    
C30   C31   A    
O54   S9    D    
O10   Zn6   S    
C14   H33   S    
C27   C29   A    
C58   O2    A    
O9    Zn8   S    
C13   H12   S    
C59   O3    A    
H20   O22   S    
O15   Zn3   S    
C18   C19   A    
C41   C42   S    
H27   O40   S    
O17   Zn4   S    
H24   O31   S    
C42   S4    S    
C52   C68   S    
C65   O33   S    
C19   H34   S    
C44   C53   S    
O13   Zn1   S    
O43   S6    S    
C64   O25   S    
C45   C56   A    
O40   S5    S    
C8    C9    A    
O56   Zn5   S    
O52   S8    S    
O21   S1    D    
H28   O43   S    
C2    H19   S    
C2    C69   A    
C35   C43   S    
C9    C10   A    
O30   S3    D    
O8    Zn5   S    
C69   H18   S    
C5    C67   A    
O50   S8    D    
O35   S4    D    
H21   O25   S    
O48   S7    D    
H29   O46   S    
C14   C64   S    
H26   O37   S    
C13   C14   S    
O31   S3    S    
C58   O9    A    
O59   Zn6   S    
C47   H11   S    
C4    C7    S    
C35   C41   A    
C44   C46   A    
C50   C51   S    
O5    Zn8   S    
O11   Zn7   S    
C4    O45   A    
O49   S7    S    
O22   S1    S    
O56   Zn8   S    
C67   C68   A    
C62   H10   S    
C36   C40   S    
C10   C57   S    
C9    H1    S    
O3    Zn6   S    
C39   C41   A    
C10   C11   A    
C16   O12   A    
C34   C68   A    
C6    C11   A    
C56   C69   A    
C12   C63   A    
C43   S5    S    
O14   Zn2   S    
O55   S9    S    
C25   C26   A    
C49   C55   S    
C34   C61   A    
O1    Zn4   S    
C51   C53   S    
C16   O14   A    
C62   C63   A    
C60   O5    A    
O12   Zn1   S    
C6    C14   S    
C47   C48   A    
C64   O24   D    
C59   O6    A    
C23   C34   A    
C39   C59   S    
H30   O49   S    
C17   C18   A    
O1    Zn3   S    
O20   S1    D    
C20   C21   A    
C24   S3    S    
C29   C65   S    
C20   C54   S    
C15   C24   S    
C37   H7    S    
C42   H9    S    
O28   S2    S    
O7    Zn5   S    
C13   H23   S    
C1    C26   S    
O53   S9    D    
O27   S2    D    
O26   S2    D    
C24   H37   S    
C42   C43   S    
C55   O58   A    
C16   C46   S    
C22   H36   S    
O6    Zn7   S    
C51   H14   S    
C32   H4    S    
O19   Zn1   S    
C28   O15   A    
C44   C50   A    
C15   C17   A    
C40   O16   A    
C46   C47   A    
C48   C49   A    
C18   S2    S    
O47   S7    D    
C17   C28   S    
C31   C32   S    
O36   S4    D    
C3    C5    A    
O51   S8    D    
C66   O46   S    
C43   S6    S    
C6    C7    A    
C57   O59   A    
C38   H8    S    
C56   C67   A    
C32   C33   S    
C19   C20   A    
C2    C3    A    
C22   H35   S    
C66   O44   D    
C63   H17   S    
O57   Zn8   S    
C53   C66   S    
C1    O4    A    
C11   C13   S    
H31   O52   S    
C52   O19   A    
C38   C39   A    
C27   H2    S    
C40   O18   A    
C30   C58   S    
O41   S6    D    
C48   H13   S    
O1    Zn2   S    
C28   O23   A    
O45   Zn3   S    
C61   C62   A    
C61   H38   S    
C1    O34   A    
O23   Zn4   S    
C29   C30   A    
C65   O32   D    
C33   H5    S    
C15   C21   A    
H22   O28   S    
O29   S3    D    
C32   H3    S    
C36   C37   A    
C49   C50   A    
O1    Zn1   S    
C54   O10   A    
O18   Zn3   S    
O58   Zn5   S    
C33   H6    S    
C4    O13   A    
C53   H16   S    
C54   O57   A    
O39   S5    D    
C51   H15   S    
C25   C33   S    
C12   S7    S    
O56   Zn7   S    
C55   O11   A    
