data_mof_unit_33436.cif
_audit_creation_date              2013-03-05T15:52:43-0500
_audit_creation_method            fapswitch 2.2
_symmetry_space_group_name_H-M    P1
_symmetry_Int_Tables_number       1
_space_group_crystal_system       triclinic
_cell_length_a                    9.892007
_cell_length_b                    10.694608
_cell_length_c                    13.070657
_cell_angle_alpha                 91.189011
_cell_angle_beta                  71.675125
_cell_angle_gamma                 91.129092
_cell_volume                      1312.22943212

loop_
_atom_site_label
_atom_site_type_symbol
_atom_site_description
_atom_site_fract_x
_atom_site_fract_y
_atom_site_fract_z
_atom_type_partial_charge
O1    O     O_R   0.385310 0.683220 0.500000 -0.640405
O2    O     O_R   0.614640 0.683250 0.500010 -0.647732
C1    C     C_R   0.506604 0.738151 0.486538 0.853117
O3    O     O_R   0.328400 0.499950 0.653610 -0.647453
O4    O     O_R   0.557730 0.499970 0.653620 -0.594171
C2    C     C_R   0.423955 0.480489 0.701378 0.936496
Zn1   Zn    Zn3+2 0.346880 0.499980 0.499990 0.954574
Zn2   Zn    Zn3+2 0.653120 0.500020 0.500010 0.978233
O5    O     O_R   0.385360 0.316750 0.499990 -0.647131
O6    O     O_R   0.614690 0.316780 0.500000 -0.579823
O7    O     O_R   0.442270 0.500030 0.346380 -0.569368
O8    O     O_R   0.671600 0.500050 0.346390 -0.613317
C3    C     C_R   0.498838 0.258902 0.496261 0.877832
C4    C     C_R   0.577507 0.507432 0.296286 0.880439
C5    C     C_R   0.807556 0.478994 0.008750 -0.078557
H1    H     H_    0.849435 0.509312 0.158253 0.213648
H2    H     H_    0.851528 0.392124 0.808763 0.174677
H3    H     H_    0.919293 0.476404 0.962306 0.165357
C6    C     C_R   0.623247 0.510767 0.179050 -0.245240
C7    C     C_R   0.243181 0.405919 0.871453 -0.376926
C8    C     C_R   0.208504 0.370052 0.979647 0.261148
C9    C     C_R   0.312051 0.385689 0.032915 0.518985
C10   C     C_R   0.451642 0.426745 0.973605 -0.133925
C11   C     C_R   0.491874 0.417428 0.861558 -0.110180
C12   C     C_R   0.556949 0.461354 0.021024 -0.004416
C13   C     C_R   0.702885 0.452258 0.960191 0.022849
C14   C     C_R   0.741207 0.411102 0.853432 -0.268804
C15   C     C_R   0.636151 0.387481 0.805171 0.570259
C16   C     C_R   0.520472 0.511449 0.125463 0.352734
C17   C     C_R   0.767796 0.500812 0.119396 -0.169617
C18   C     C_R   0.385099 0.433636 0.812197 -0.145978
H4    H     H_    0.161367 0.406355 0.832508 0.201276
H5    H     H_    0.714632 0.893080 0.501007 0.179613
C19   C     C_R   0.329073 0.861366 0.375366 -0.178014
H6    H     H_    0.355591 0.767681 0.343771 0.219271
C20   C     C_R   0.209090 0.914561 0.361791 -0.233828
H7    H     H_    0.145023 0.857760 0.324843 0.173300
C21   C     C_R   0.170436 0.036583 0.400443 0.536653
C22   C     C_R   0.259782 0.104265 0.446602 -0.267118
H8    H     H_    0.218385 0.192853 0.480246 0.199320
C23   C     C_R   0.389946 0.055088 0.452597 0.035153
C24   C     C_R   0.413398 0.927542 0.428362 0.081061
C25   C     C_R   0.518721 0.868560 0.461261 -0.088050
C26   C     C_R   0.627206 0.937320 0.483060 -0.232807
H9    H     H_    0.708565 0.115301 0.502115 0.205377
C27   C     C_R   0.620281 0.064554 0.487983 -0.230769
C28   C     C_R   0.498460 0.124460 0.481980 -0.095247
H10   H     H_    0.921769 0.361360 0.378979 0.183814
C29   C     C_R   0.805654 0.664238 0.639706 -0.156241
H11   H     H_    0.697541 0.672744 0.643003 0.204487
C30   C     C_R   0.848522 0.742793 0.710144 -0.190491
H12   H     H_    0.773255 0.805974 0.763632 0.160674
C31   C     C_R   0.987507 0.740463 0.711905 -0.183355
H13   H     H_    0.020614 0.801628 0.766921 0.163956
C32   C     C_R   0.084642 0.660180 0.642709 -0.149188
H14   H     H_    0.189285 0.664394 0.648776 0.211907
C33   C     C_R   0.045092 0.579380 0.570011 0.143346
C34   C     C_R   0.900727 0.580346 0.569242 0.170460
N1    N     N_R   0.856860 0.501200 0.500990 -0.124939
C35   C     C_R   0.954390 0.423616 0.433424 -0.024786
H15   H     H_    0.173005 0.362722 0.377888 0.189958
C36   C     C_R   0.097650 0.424016 0.433181 -0.005378
N2    N     N_R   0.142450 0.501280 0.501020 -0.137204
O9    O     O_3   0.044330 0.093272 0.401123 -0.639153
C37   C     C_3   0.995161 0.051507 0.315814 -0.269723
H16   H     H_    0.939927 0.959413 0.334685 0.163713
H17   H     H_    0.082346 0.047776 0.237456 0.177741
H18   H     H_    0.915866 0.118959 0.307107 0.223194
N3    N     N_R   0.402151 0.595632 0.160593 0.198241
O10   O     O_R   0.284960 0.565410 0.235367 -0.365166
O11   O     O_R   0.405416 0.697103 0.106633 -0.429086
O12   O     O_3   0.281276 0.347335 0.138345 -0.553516
C38   C     C_3   0.336377 0.226630 0.138239 -0.278789
H19   H     H_    0.454509 0.226458 0.104110 0.150773
H20   H     H_    0.288671 0.158073 0.093778 0.169506
H21   H     H_    0.308718 0.195575 0.222720 0.196795
N4    N     N_R   0.072076 0.312856 0.032461 0.194801
O13   O     O_R   0.018321 0.314476 0.137043 -0.394922
O14   O     O_R   0.005813 0.249693 0.976078 -0.428166
O15   O     O_3   0.673299 0.316595 0.711099 -0.578574
C39   C     C_3   0.624321 0.192377 0.736323 -0.293877
H22   H     H_    0.515510 0.180389 0.729794 0.167470
H23   H     H_    0.624793 0.162463 0.817577 0.147966
H24   H     H_    0.696791 0.128051 0.677898 0.191253

loop_
_geom_bond_atom_site_label_1
_geom_bond_atom_site_label_2
_geom_bond_distance
_ccdc_geom_bond_type
C5    H3    1.081471 S    
C32   H14   1.062748 S    
C23   C24   1.401123 A    
C19   C24   1.412874 A    
C39   H22   1.110914 S    
C22   C23   1.425648 A    
N4    O13   1.301516 A    
Zn1   O7    1.931397 S    
C1    C25   1.433967 S    
C13   C14   1.390351 A    
C20   H7    1.081197 S    
Zn2   N1    2.019250 S    
O4    C2    1.288142 A    
O7    C4    1.292972 A    
H1    C17   1.082356 S    
C35   C36   1.416051 A    
C19   H6    1.080864 S    
C38   H19   1.112116 S    
N3    O11   1.300834 A    
O5    C3    1.279405 A    
C37   H17   1.112916 S    
C10   C11   1.393608 A    
C33   N2    1.375736 A    
C21   O9    1.395124 S    
N4    O14   1.301804 A    
C2    C18   1.472867 S    
N1    C35   1.365483 A    
C8    C9    1.413774 A    
C38   H20   1.113157 S    
H15   C36   1.080975 S    
O3    Zn1   1.958151 S    
C9    O12   1.383713 S    
C39   H23   1.116947 S    
C26   C27   1.362959 A    
H10   C35   1.081706 S    
C16   N3    1.441437 S    
C31   C32   1.390061 A    
C12   C16   1.395779 A    
C30   H12   1.082859 S    
H2    C14   1.084510 S    
O3    C2    1.307996 A    
C22   H8    1.069312 S    
C3    C28   1.446116 S    
O12   C38   1.410912 S    
C5    C13   1.396674 A    
C29   C30   1.390181 A    
C12   C13   1.416406 A    
C31   H13   1.082767 S    
C29   C34   1.411374 A    
C30   C31   1.382965 A    
C25   C26   1.387814 A    
C36   N2    1.366624 A    
Zn2   O8    1.958152 S    
C37   H18   1.109248 S    
C23   C28   1.437410 A    
Zn1   N2    2.018352 S    
O8    C4    1.299917 A    
C37   H16   1.110654 S    
C32   C33   1.410334 A    
C38   H21   1.107306 S    
C24   C25   1.409660 A    
C6    C16   1.404457 A    
C39   H24   1.106218 S    
C5    C17   1.390188 A    
C7    H4    1.083253 S    
Zn1   O5    2.003551 S    
C27   C28   1.400264 A    
O1    Zn1   1.988848 S    
H5    C26   1.084011 S    
C4    C6    1.455937 S    
O2    Zn2   2.003550 S    
C11   C15   1.424587 A    
O15   C39   1.414431 S    
O6    C3    1.305707 A    
O4    Zn2   1.931397 S    
O9    C37   1.411082 S    
C20   C21   1.405424 A    
O2    C1    1.290426 A    
C34   N1    1.377753 A    
C11   C18   1.415017 A    
C33   C34   1.431494 A    
C21   C22   1.400370 A    
C19   C20   1.388177 A    
C10   C12   1.409810 A    
N3    O10   1.299785 A    
C15   O15   1.381953 S    
H9    C27   1.081631 S    
C7    C8    1.406034 A    
Zn2   O6    1.988849 S    
C29   H11   1.062335 S    
C8    N4    1.439149 S    
C14   C15   1.391736 A    
C9    C10   1.420419 A    
O1    C1    1.288199 A    
C6    C17   1.401903 A    
C7    C18   1.402839 A    
