data_mof_unit_16933.cif
_audit_creation_date              2012-12-10T17:57:25-0500
_audit_creation_method            fapswitch 2.2
_symmetry_space_group_name_H-M    P1
_symmetry_Int_Tables_number       1
_space_group_crystal_system       triclinic
_cell_length_a                    9.575515
_cell_length_b                    10.885606
_cell_length_c                    13.374716
_cell_angle_alpha                 91.49968
_cell_angle_beta                  73.780706
_cell_angle_gamma                 89.250829
_cell_volume                      1337.87067292

loop_
_atom_site_label
_atom_site_type_symbol
_atom_type_description
_atom_site_fract_x
_atom_site_fract_y
_atom_site_fract_z
_atom_type_partial_charge
C1    C     C_R   0.500575 0.737313 0.495133 0.807588
C2    C     C_R   0.438628 0.468136 0.974491 0.043075
C3    C     C_R   0.488944 0.444437 0.865645 0.049036
C4    C     C_R   0.544964 0.494089 0.028085 0.108793
C5    C     C_R   0.687693 0.523192 0.971029 0.110834
C6    C     C_R   0.735847 0.489831 0.865921 -0.219576
C7    C     C_R   0.641335 0.431612 0.818784 0.002847
C8    C     C_R   0.519231 0.480319 0.135024 -0.145868
C9    C     C_R   0.746140 0.580819 0.131226 -0.059420
C10   C     C_R   0.386064 0.437505 0.807441 -0.117181
C11   C     C_R   0.620629 0.931168 0.505657 -0.103266
C12   C     C_R   0.425001 0.478130 0.697069 0.908112
C13   C     C_R   0.629908 0.057966 0.503224 -0.017346
C14   C     C_R   0.509786 0.127599 0.490575 -0.133663
C15   C     C_R   0.391522 0.067083 0.470750 -0.092121
C16   C     C_R   0.388302 0.939379 0.464474 -0.019041
C17   C     C_R   0.501441 0.870851 0.487837 -0.166102
C18   C     C_R   0.898650 0.575866 0.567484 0.416258
C19   C     C_R   0.047061 0.575582 0.567746 -0.030274
C20   C     C_R   0.099498 0.423488 0.431997 0.108208
C21   C     C_R   0.951009 0.426073 0.432407 -0.089434
C22   C     C_R   0.502886 0.262038 0.497130 0.826917
C23   C     C_R   0.576705 0.508259 0.300770 0.754522
C24   C     C_R   0.784454 0.572430 0.022015 -0.120562
C25   C     C_R   0.617525 0.522819 0.187587 -0.126535
C26   C     C_R   0.243963 0.399214 0.858854 -0.035623
C27   C     C_R   0.193979 0.410593 0.969114 -0.080355
C28   C     C_R   0.285759 0.464692 0.023982 -0.061101
Cu1   Cu    Cu3+1 0.359340 0.499980 0.500000 0.977111
Cu2   Cu    Cu3+1 0.640660 0.500020 0.500000 0.996580
H1    H     H_    0.303092 0.119814 0.455833 0.198278
H2    H     H_    0.913581 0.368644 0.378313 0.178023
H3    H     H_    0.849961 0.494841 0.824785 0.164962
H4    H     H_    0.889655 0.603450 0.976508 0.198040
H5    H     H_    0.424637 0.431711 0.177676 0.142293
H6    H     H_    0.710493 0.878799 0.518903 0.226243
N1    N     N_R   0.147940 0.499970 0.499970 -0.253221
N2    N     N_R   0.852060 0.500060 0.499990 -0.230419
O1    O     O_R   0.381250 0.680340 0.500010 -0.636155
O2    O     O_R   0.618820 0.680370 0.500010 -0.534050
O3    O     O_R   0.323240 0.499950 0.650980 -0.554689
O4    O     O_R   0.560810 0.499980 0.650980 -0.542913
O5    O     O_R   0.381180 0.319630 0.499990 -0.584410
O6    O     O_R   0.618750 0.319660 0.499990 -0.605649
O7    O     O_R   0.439190 0.500020 0.349020 -0.608981
O8    O     O_R   0.676760 0.500050 0.349020 -0.608750
C29   C     C_2   0.838483 0.652743 0.183186 0.360167
H7    H     H_    0.803714 0.673374 0.266157 0.107384
O9    O     O_2   0.953348 0.694837 0.132674 -0.497100
C30   C     C_2   0.769488 0.110588 0.509893 0.511530
H8    H     H_    0.818841 0.184381 0.460599 0.075227
O10   O     O_2   0.834650 0.067574 0.567901 -0.462178
C31   C     C_2   0.271008 0.882503 0.427024 0.388404
H9    H     H_    0.289321 0.795326 0.383898 0.112230
O11   O     O_2   0.152901 0.934502 0.441503 -0.489520
Cl1   Cl    Cl    0.775758 0.679198 0.653557 -0.553533
C32   C     C_2   0.091430 0.659359 0.641034 0.557441
H10   H     H_    0.147038 0.743232 0.614068 0.098604
O12   O     O_2   0.059608 0.637932 0.733676 -0.565100
C33   C     C_2   0.196914 0.334676 0.356810 0.331100
H11   H     H_    0.310402 0.324204 0.349925 0.134817
O13   O     O_2   0.149517 0.268440 0.299253 -0.570251
C34   C     C_2   0.149206 0.346448 0.798212 0.530646
H12   H     H_    0.032540 0.360307 0.824716 0.067600
O14   O     O_2   0.200722 0.282431 0.719877 -0.512587
C35   C     C_2   0.218969 0.526254 0.127301 0.408432
H13   H     H_    0.132036 0.484045 0.185204 0.065092
O15   O     O_2   0.259710 0.627227 0.147900 -0.482473
C36   C     C_2   0.047581 0.366996 0.027608 0.347422
H14   H     H_    0.984946 0.414166 0.098336 0.075597
O16   O     O_2   0.997459 0.273799 0.999827 -0.505392
C37   C     C_2   0.705382 0.340043 0.733716 0.480317
H15   H     H_    0.820178 0.342235 0.691974 0.062934
O17   O     O_2   0.631494 0.258182 0.712565 -0.517828

loop_
_geom_bond_atom_site_label_1
_geom_bond_atom_site_label_2
_ccdc_geom_bond_type
C28   C35   S    
C26   C34   S    
C34   O14   D    
C9    C24   A    
C15   H1    S    
C12   O3    A    
C8    C25   A    
C2    C3    A    
C20   C33   S    
C30   O10   D    
C22   O5    A    
C27   C36   S    
C6    H3    S    
C18   Cl1   S    
C4    C8    A    
C10   C26   A    
C31   O11   D    
C30   H8    S    
C32   H10   S    
C9    C25   A    
C29   O9    D    
C23   O8    A    
C13   C14   A    
Cu1   O5    S    
C20   N1    A    
C11   C13   A    
Cu2   O6    S    
C26   C27   A    
Cu1   Cu2   S    
C5    C24   A    
C10   C12   S    
Cu2   O4    S    
C23   O7    A    
C2    C4    A    
C19   C32   S    
C37   O17   D    
C11   H6    S    
C9    C29   S    
C6    C7    A    
C3    C7    A    
C36   H14   S    
C23   C25   S    
C18   N2    A    
C14   C22   S    
C21   H2    S    
C22   O6    A    
C3    C10   A    
C32   O12   D    
C36   O16   D    
C35   O15   D    
C1    O1    A    
C12   O4    A    
Cu2   O2    S    
C34   H12   S    
C7    C37   S    
C13   C30   S    
C35   H13   S    
C20   C21   A    
Cu2   N2    S    
C37   H15   S    
C33   O13   D    
C18   C19   A    
Cu1   N1    S    
Cu1   O1    S    
C5    C6    A    
C14   C15   A    
C33   H11   S    
C2    C28   A    
C19   N1    A    
C1    O2    A    
Cu1   O3    S    
C16   C31   S    
C4    C5    A    
C1    C17   S    
Cu2   O8    S    
C15   C16   A    
C24   H4    S    
C21   N2    A    
C29   H7    S    
C31   H9    S    
Cu1   O7    S    
C16   C17   A    
C27   C28   A    
C8    H5    S    
C11   C17   A    
