data_mof_unit_12763.cif
_audit_creation_date              2013-03-05T15:55:19-0500
_audit_creation_method            fapswitch 2.2
_symmetry_space_group_name_H-M    P1
_symmetry_Int_Tables_number       1
_space_group_crystal_system       triclinic
_cell_length_a                    14.728272
_cell_length_b                    14.738366
_cell_length_c                    33.285411
_cell_angle_alpha                 96.106383
_cell_angle_beta                  96.429475
_cell_angle_gamma                 61.126991
_cell_volume                      6275.96387338

loop_
_atom_site_label
_atom_site_type_symbol
_atom_site_description
_atom_site_fract_x
_atom_site_fract_y
_atom_site_fract_z
_atom_type_partial_charge
O1    O     O_R   0.679450 0.499830 0.463150 -0.502948
O2    O     O_R   0.480650 0.664000 0.464630 -0.539620
C1    C     C_R   0.390404 0.700582 0.446486 0.784463
O3    O     O_R   0.323930 0.675950 0.455370 -0.522875
O4    O     O_R   0.354700 0.475360 0.451930 -0.504835
C2    C     C_R   0.405419 0.386357 0.433917 0.930329
O5    O     O_R   0.494470 0.320860 0.448390 -0.515539
O6    O     O_R   0.662580 0.357570 0.460050 -0.552943
C3    C     C_R   0.701650 0.409311 0.447615 0.829458
O7    O     O_R   0.680900 0.502040 0.551870 -0.508807
O8    O     O_R   0.481990 0.666040 0.546870 -0.492899
C4    C     C_R   0.393417 0.701788 0.561228 0.963987
O9    O     O_R   0.325370 0.678160 0.544080 -0.510676
O10   O     O_R   0.356040 0.477400 0.534170 -0.544929
C5    C     C_R   0.407409 0.388414 0.549001 0.888837
O11   O     O_R   0.495910 0.323070 0.537100 -0.499272
O12   O     O_R   0.663920 0.359620 0.542290 -0.519257
C6    C     C_R   0.703211 0.412767 0.562128 0.889613
Cr1   Cr    Cr6+3 0.576280 0.580550 0.506370 1.054027
Cr2   Cr    Cr6+3 0.346780 0.572400 0.496520 1.042509
Cr3   Cr    Cr6+3 0.576960 0.347070 0.497150 1.008509
O13   O     O_3   0.500010 0.500010 0.500010 -0.364577
H1    H     H_    0.465494 0.192980 0.182597 0.200422
C7    C     C_R   0.368716 0.366740 0.392319 -0.493095
C8    C     C_R   0.286969 0.449422 0.371319 0.485829
C9    C     C_R   0.269443 0.438752 0.329489 0.554238
C10   C     C_R   0.331699 0.345555 0.308259 -0.363492
C11   C     C_R   0.406201 0.260014 0.329106 0.485819
C12   C     C_R   0.424862 0.270230 0.370962 0.498922
C13   C     C_R   0.397628 0.248779 0.165563 -0.303043
C14   C     C_R   0.387122 0.232114 0.123865 0.707919
C15   C     C_R   0.221324 0.392939 0.121074 -0.092301
C16   C     C_R   0.233170 0.406616 0.163557 0.651854
C17   C     C_R   0.318342 0.332179 0.185490 -0.160897
C18   C     C_1   0.322225 0.337841 0.228732 0.120747
C19   C     C_1   0.325513 0.340910 0.264979 0.230795
C20   C     C_R   0.295387 0.298807 0.101264 -0.291933
N1    N     N_R   0.749032 0.378021 0.220151 -0.268333
N2    N     N_R   0.737257 0.385916 0.259615 -0.244693
C21   C     C_R   0.758607 0.370300 0.410189 -0.277822
C22   C     C_R   0.766027 0.441155 0.387430 0.506871
C23   C     C_R   0.788665 0.416347 0.347166 0.528622
C24   C     C_R   0.796890 0.323807 0.327848 -0.223394
C25   C     C_R   0.795123 0.248550 0.350603 0.018729
C26   C     C_R   0.790216 0.267305 0.393414 0.046332
N3    N     N_R   0.885632 0.224711 0.267129 -0.262974
N4    N     N_R   0.897492 0.216863 0.227640 -0.252432
C27   C     C_R   0.829422 0.293417 0.203582 0.595096
C28   C     C_R   0.805744 0.309796 0.283824 0.607369
C29   C     C_R   0.913746 0.340726 0.155108 0.037406
C30   C     C_R   0.943124 0.333237 0.116086 -0.198797
C31   C     C_R   0.850658 0.236624 0.090656 0.011727
C32   C     C_R   0.821174 0.243900 0.130288 0.596955
C33   C     C_R   0.853822 0.293902 0.162309 -0.125918
C34   C     C_R   0.914876 0.279982 0.083944 -0.139952
H2    H     H_    0.993064 0.365603 0.111293 0.151602
N5    N     N_R   0.350376 0.738759 0.216399 -0.203208
N6    N     N_R   0.357150 0.724747 0.255659 -0.270354
C35   C     C_R   0.373007 0.749084 0.408158 -0.152364
C36   C     C_R   0.273803 0.823715 0.393108 0.038953
C37   C     C_R   0.258183 0.842559 0.351768 0.647698
C38   C     C_R   0.341095 0.792681 0.326408 -0.134733
C39   C     C_R   0.443242 0.730917 0.343144 0.027048
C40   C     C_R   0.456921 0.707336 0.383540 -0.187466
N7    N     N_R   0.269089 0.904508 0.269601 -0.212418
N8    N     N_R   0.261450 0.918389 0.230362 -0.284829
C41   C     C_R   0.305014 0.836073 0.203319 0.615820
C42   C     C_R   0.319950 0.807500 0.282973 0.580197
C43   C     C_R   0.281565 0.800680 0.129524 0.627412
C44   C     C_R   0.275526 0.824411 0.089179 -0.052760
C45   C     C_R   0.336951 0.949045 0.113165 0.595125
C46   C     C_R   0.345908 0.923217 0.153064 -0.075986
C47   C     C_R   0.311636 0.853069 0.161440 -0.231190
C48   C     C_R   0.295881 0.905406 0.081506 -0.288106
H3    H     H_    0.533727 0.652226 0.395361 0.197391
N9    N     N_R   0.257244 0.438780 0.768013 -0.185811
N10   N     N_R   0.263111 0.441814 0.728580 -0.203120
C49   C     C_R   0.375862 0.368698 0.586412 -0.293636
C50   C     C_R   0.270837 0.402113 0.593397 -0.069042
C51   C     C_R   0.246550 0.397657 0.632539 0.627610
C52   C     C_R   0.325089 0.352677 0.663231 -0.220696
C53   C     C_R   0.431106 0.310291 0.655713 -0.057956
C54   C     C_R   0.454816 0.321884 0.617387 0.659500
N11   N     N_R   0.320801 0.263161 0.719921 -0.314142
N12   N     N_R   0.315750 0.259961 0.759299 -0.205343
C55   C     C_R   0.286003 0.347189 0.784136 0.678517
C56   C     C_R   0.296207 0.353760 0.704037 0.575476
C57   C     C_R   0.206618 0.409731 0.850528 0.513734
C58   C     C_R   0.204073 0.391034 0.890538 0.473773
C59   C     C_R   0.375518 0.240800 0.887052 0.584764
C60   C     C_R   0.376762 0.258616 0.846923 0.548285
C61   C     C_R   0.290337 0.340120 0.827920 -0.421094
C62   C     C_R   0.286040 0.302455 0.908448 -0.496227
C63   C     C_R   0.744681 0.387698 0.604081 -0.257171
C64   C     C_R   0.849969 0.317470 0.615013 0.029358
C65   C     C_R   0.881637 0.298080 0.656858 0.085477
C66   C     C_R   0.807216 0.351237 0.686176 -0.178931
C67   C     C_R   0.704722 0.421386 0.674436 0.496160
C68   C     C_R   0.673557 0.438322 0.633917 0.610055
C69   C     C_R   0.885081 0.222498 0.822953 0.617182
C70   C     C_R   0.894548 0.210548 0.864674 -0.026470
C71   C     C_R   0.842771 0.395431 0.877741 0.126103
C72   C     C_R   0.825660 0.408069 0.835060 0.057051
C73   C     C_R   0.854497 0.318848 0.808205 -0.098849
C74   C     C_1   0.844998 0.325584 0.764842 0.099755
C75   C     C_1   0.831745 0.334790 0.728833 0.101606
C76   C     C_R   0.892826 0.292678 0.891894 -0.204967
C77   C     C_R   0.377106 0.753848 0.602329 -0.411511
C78   C     C_R   0.278793 0.797091 0.618015 0.476778
C79   C     C_R   0.268484 0.821512 0.659391 0.584840
C80   C     C_R   0.355732 0.803283 0.685690 -0.236095
C81   C     C_R   0.453503 0.768073 0.670325 -0.013188
C82   C     C_R   0.463097 0.745070 0.628445 0.612748
C83   C     C_R   0.344495 0.934100 0.825211 0.511355
C84   C     C_R   0.326585 0.964664 0.865628 0.540198
C85   C     C_R   0.276534 0.830582 0.870985 -0.076017
C86   C     C_R   0.294535 0.801152 0.829643 0.594487
C87   C     C_R   0.326203 0.854476 0.806970 -0.291109
C88   C     C_1   0.335951 0.832112 0.764324 0.223269
C89   C     C_1   0.344290 0.818328 0.728469 0.176047
C90   C     C_R   0.289984 0.915813 0.888768 -0.353735
O14   O     O_R   0.170070 0.978950 0.027680 -0.563089
O15   O     O_R   0.001760 0.175230 0.026640 -0.538271
C91   C     C_R   0.963860 0.264154 0.045707 0.803473
O16   O     O_R   0.984760 0.333570 0.037150 -0.556537
O17   O     O_R   0.183410 0.309240 0.041890 -0.559118
C92   C     C_R   0.273551 0.260831 0.059883 0.868331
O18   O     O_R   0.340240 0.172500 0.045430 -0.468111
O19   O     O_R   0.309670 0.000990 0.032050 -0.490283
C93   C     C_R   0.260186 0.958209 0.043334 0.840424
O20   O     O_R   0.168330 0.982130 0.939200 -0.565977
O21   O     O_R   0.000140 0.178170 0.944610 -0.548687
C94   C     C_R   0.957992 0.269425 0.931428 0.810982
O22   O     O_R   0.983010 0.336750 0.948660 -0.526366
O23   O     O_R   0.181800 0.312190 0.959860 -0.510441
C95   C     C_R   0.270515 0.264321 0.945140 0.975657
O24   O     O_R   0.338500 0.175680 0.956950 -0.480411
O25   O     O_R   0.308050 0.003930 0.950020 -0.499132
C96   C     C_R   0.256554 0.964164 0.929265 0.884532
Cr4   Cr    Cr6+3 0.087320 0.083240 0.984860 0.915734
Cr5   Cr    Cr6+3 0.087720 0.316210 0.996740 0.973272
Cr6   Cr    Cr6+3 0.317350 0.090340 0.995890 1.101551
O26   O     O_3   0.164130 0.163270 0.992500 -0.353371
F1    F     F_    0.465039 0.146695 0.106258 -0.592206
C97   C     C_3   0.823934 0.178124 0.420942 -0.253960
C98   C     C_3   0.895516 0.181377 0.457559 -0.767054
H4    H     H_    0.955900 0.197607 0.448051 0.232276
H5    H     H_    0.851924 0.241060 0.481185 0.220824
H6    H     H_    0.934203 0.105216 0.471479 0.221514
H7    H     H_    0.755294 0.176571 0.430914 0.219569
H8    H     H_    0.871472 0.102460 0.404777 0.185045
F2    F     F_    0.796509 0.486137 0.326151 -0.635799
C99   C     C_3   0.785494 0.156566 0.328803 -0.317664
C100  C     C_3   0.680619 0.192028 0.304526 -0.602138
H9    H     H_    0.616303 0.241539 0.324320 0.233117
H10   H     H_    0.674006 0.235993 0.278381 0.216653
H11   H     H_    0.671878 0.123178 0.292569 0.263170
H12   H     H_    0.850062 0.111220 0.308763 0.232118
H13   H     H_    0.789232 0.101371 0.349732 0.198003
C101  C     C_3   0.952150 0.395030 0.188459 -0.292511
C102  C     C_3   0.063850 0.322754 0.203469 -0.659972
H14   H     H_    0.068524 0.254058 0.216369 0.238423
H15   H     H_    0.115906 0.296408 0.178210 0.203302
H16   H     H_    0.090888 0.364468 0.227413 0.257929
H17   H     H_    0.948604 0.464771 0.176846 0.210837
H18   H     H_    0.902454 0.423518 0.214481 0.213966
C103  C     C_3   0.812135 0.184057 0.056506 -0.289301
C104  C     C_3   0.736262 0.261471 0.026113 -0.726868
H19   H     H_    0.774964 0.295370 0.010754 0.201660
H20   H     H_    0.706301 0.221238 0.002654 0.232830
H21   H     H_    0.669501 0.324926 0.041720 0.242998
H22   H     H_    0.878275 0.120198 0.040902 0.189142
H23   H     H_    0.771219 0.146959 0.068298 0.252371
F3    F     F_    0.761469 0.201466 0.138084 -0.661176
C105  C     C_3   0.185563 0.887228 0.420400 -0.275285
C106  C     C_3   0.166768 0.998937 0.426646 -0.730381
H24   H     H_    0.240979 0.000386 0.435841 0.228146
H25   H     H_    0.131326 0.040825 0.398512 0.276580
H26   H     H_    0.113597 0.039678 0.451194 0.210992
H27   H     H_    0.113502 0.886057 0.407018 0.235242
H28   H     H_    0.202062 0.856635 0.450829 0.185314
C107  C     C_3   0.248427 0.761683 0.055462 -0.267314
C108  C     C_3   0.337724 0.651032 0.050730 -0.726541
H29   H     H_    0.408359 0.652414 0.042841 0.221765
H30   H     H_    0.355849 0.610142 0.079038 0.271895
H31   H     H_    0.315744 0.606957 0.026009 0.210094
H32   H     H_    0.177144 0.759685 0.062111 0.218014
H33   H     H_    0.232418 0.795273 0.025649 0.177032
F4    F     F_    0.161251 0.907370 0.335946 -0.654171
C109  C     C_3   0.539671 0.688918 0.319624 -0.322669
C110  C     C_3   0.608287 0.737513 0.336455 -0.542154
H34   H     H_    0.564130 0.823186 0.334747 0.217241
H35   H     H_    0.636196 0.718720 0.368401 0.269956
H36   H     H_    0.677009 0.706902 0.318256 0.260096
H37   H     H_    0.584400 0.603289 0.321383 0.225765
H38   H     H_    0.521721 0.704629 0.287173 0.198690
F5    F     F_    0.252962 0.730061 0.137885 -0.652536
F6    F     F_    0.363220 0.022000 0.105717 -0.641249
C111  C     C_3   0.393275 0.971333 0.185646 -0.222769
C112  C     C_3   0.315705 0.083844 0.197218 -0.653972
H39   H     H_    0.291005 0.131974 0.170650 0.234984
H40   H     H_    0.245629 0.088875 0.208794 0.242680
H41   H     H_    0.352566 0.116120 0.221255 0.229162
H42   H     H_    0.422473 0.926188 0.213153 0.174386
H43   H     H_    0.462695 0.969196 0.174473 0.227162
C113  C     C_3   0.183522 0.440481 0.560168 -0.228397
C114  C     C_3   0.141266 0.363678 0.549614 -0.719318
H44   H     H_    0.204589 0.286569 0.539768 0.215808
H45   H     H_    0.106585 0.354987 0.575924 0.259759
H46   H     H_    0.079935 0.392215 0.524444 0.224030
H47   H     H_    0.119789 0.517183 0.570175 0.237375
H48   H     H_    0.208480 0.451282 0.531749 0.173532
F7    F     F_    0.554296 0.293559 0.610362 -0.668331
F8    F     F_    0.118192 0.455910 0.910581 -0.624084
F9    F     F_    0.145615 0.437538 0.640972 -0.676913
C115  C     C_3   0.514255 0.258222 0.690044 -0.285511
C116  C     C_3   0.628611 0.208181 0.681051 -0.536077
H49   H     H_    0.645856 0.148773 0.655426 0.247924
H50   H     H_    0.649509 0.267801 0.674762 0.258696
H51   H     H_    0.677947 0.168730 0.708107 0.207699
H52   H     H_    0.501442 0.316238 0.715987 0.213403
H53   H     H_    0.503568 0.194906 0.700219 0.205568
F10   F     F_    0.464768 0.168340 0.308618 -0.640898
F11   F     F_    0.123660 0.490935 0.832964 -0.616259
F12   F     F_    0.459361 0.158832 0.903828 -0.567478
F13   F     F_    0.461386 0.193978 0.826141 -0.586561
C117  C     C_3   0.901936 0.111651 0.878496 -0.305752
C118  C     C_3   0.808196 0.096993 0.861977 -0.596761
H54   H     H_    0.734706 0.167721 0.869420 0.229046
H55   H     H_    0.807732 0.079846 0.828745 0.283228
H56   H     H_    0.811300 0.030487 0.876106 0.217495
H57   H     H_    0.974849 0.043352 0.868795 0.218054
H58   H     H_    0.900900 0.112975 0.911643 0.192618
F14   F     F_    0.905593 0.139408 0.796278 -0.672753
F15   F     F_    0.633362 0.472068 0.702498 -0.657658
F16   F     F_    0.572120 0.503787 0.623500 -0.634717
C119  C     C_3   0.926349 0.265205 0.582243 -0.353893
C120  C     C_3   0.932455 0.161193 0.566844 -0.681344
H59   H     H_    0.952839 0.109676 0.592083 0.255350
H60   H     H_    0.856658 0.173399 0.551662 0.234468
H61   H     H_    0.993066 0.121996 0.544712 0.217153
H62   H     H_    0.903304 0.315211 0.556274 0.160863
H63   H     H_    0.004729 0.254056 0.593303 0.193747
C121  C     C_3   0.780890 0.514554 0.817782 -0.397065
C122  C     C_3   0.861030 0.553250 0.822054 -0.583527
H64   H     H_    0.887933 0.559389 0.854220 0.253210
H65   H     H_    0.929197 0.499065 0.804762 0.259721
H66   H     H_    0.825985 0.631059 0.809665 0.222948
H67   H     H_    0.755452 0.513518 0.785191 0.211936
H68   H     H_    0.708235 0.571605 0.831758 0.188517
C123  C     C_3   0.802324 0.490019 0.908125 -0.293609
C124  C     C_3   0.727990 0.487564 0.936098 -0.746180
H69   H     H_    0.662573 0.482178 0.917901 0.231587
H70   H     H_    0.768508 0.420879 0.955689 0.215689
H71   H     H_    0.695738 0.559959 0.955997 0.224614
H72   H     H_    0.866622 0.497372 0.926019 0.229370
H73   H     H_    0.758833 0.564565 0.893654 0.180074
F17   F     F_    0.501609 0.187326 0.390030 -0.607854
C125  C     C_3   0.993080 0.223089 0.670805 -0.326188
C126  C     C_3   0.055240 0.280674 0.683899 -0.650766
H74   H     H_    0.056899 0.322353 0.658336 0.260362
H75   H     H_    0.020384 0.337467 0.709720 0.236160
H76   H     H_    0.136332 0.224300 0.693572 0.239133
H77   H     H_    0.994339 0.180037 0.696489 0.218357
H78   H     H_    0.033388 0.162031 0.647052 0.201086
F18   F     F_    0.338477 0.047397 0.881348 -0.605211
F19   F     F_    0.375610 0.985606 0.803288 -0.610367
C127  C     C_3   0.548490 0.750923 0.698279 -0.248913
C128  C     C_3   0.547986 0.853575 0.711429 -0.668543
H79   H     H_    0.548342 0.892015 0.684534 0.239081
H80   H     H_    0.478363 0.906379 0.728160 0.265999
H81   H     H_    0.618421 0.838762 0.731648 0.234968
H82   H     H_    0.551472 0.711270 0.725368 0.196385
H83   H     H_    0.621413 0.698929 0.683271 0.242993
F20   F     F_    0.557693 0.708874 0.613653 -0.635923
F21   F     F_    0.193094 0.811618 0.593623 -0.607928
F22   F     F_    0.279846 0.721978 0.811161 -0.630015
C129  C     C_3   0.244071 0.770431 0.895155 -0.223091
C130  C     C_3   0.328404 0.710397 0.927635 -0.753546
H84   H     H_    0.402393 0.656932 0.913561 0.240205
H85   H     H_    0.341670 0.763913 0.950581 0.208210
H86   H     H_    0.303937 0.663780 0.943353 0.222426
H87   H     H_    0.170109 0.823211 0.909196 0.188288
H88   H     H_    0.228457 0.713393 0.875232 0.251401
F23   F     F_    0.173685 0.858817 0.674103 -0.601144
F24   F     F_    0.228469 0.543144 0.390505 -0.590432
F25   F     F_    0.160291 0.490705 0.183987 -0.643224
C131  C     C_3   0.130769 0.480154 0.098551 -0.260815
C132  C     C_3   0.168793 0.528190 0.070384 -0.666464
H89   H     H_    0.216562 0.470041 0.047067 0.211285
H90   H     H_    0.101046 0.592116 0.054788 0.214780
H91   H     H_    0.215971 0.560650 0.088243 0.263426
H92   H     H_    0.077571 0.453807 0.081858 0.190142
H93   H     H_    0.080987 0.543902 0.119848 0.241818
F26   F     F_    0.195577 0.521393 0.309386 -0.570267
F27   F     F_    0.747839 0.536495 0.403577 -0.639593

loop_
_geom_bond_atom_site_label_1
_geom_bond_atom_site_label_2
_geom_bond_distance
_ccdc_geom_bond_type
C70   C76   1.424399 A    
C43   F5    1.359976 S    
O24   Cr6   2.043186 S    
C122  H65   1.111016 S    
C109  C110  1.528060 S    
C84   C90   1.409962 A    
C94   O22   1.278284 A    
N9    C55   1.356718 A    
C78   C79   1.392084 A    
C71   C72   1.430826 A    
O15   C91   1.275887 A    
C22   C23   1.385286 A    
C59   F12   1.358137 S    
C69   F14   1.360413 S    
C64   C65   1.431649 A    
N11   C56   1.354223 A    
C69   C73   1.393362 A    
C108  H29   1.111058 S    
C62   C95   1.480702 S    
C82   F20   1.359441 S    
C118  H55   1.108152 S    
C66   C67   1.395350 A    
C123  H72   1.105622 S    
C103  H22   1.108346 S    
C83   F19   1.359205 S    
O23   C95   1.274612 A    
O4    Cr2   1.920419 S    
N12   C55   1.356166 A    
C121  C122  1.527697 S    
C116  H51   1.110821 S    
C27   C33   1.460025 S    
N3    C28   1.356101 A    
O8    Cr1   1.923919 S    
C9    C10   1.396105 A    
C29   C33   1.408347 A    
C121  H68   1.108067 S    
C119  H62   1.110763 S    
C59   C62   1.409149 A    
C26   C97   1.528959 S    
C25   C99   1.529009 S    
C117  H57   1.111450 S    
C11   C12   1.395991 A    
O19   C93   1.274860 A    
C34   C91   1.474685 S    
Cr5   O26   1.971141 S    
C31   C103  1.518865 S    
O4    C2    1.274714 A    
C51   C52   1.400005 A    
C103  H23   1.110391 S    
C104  H20   1.110452 S    
C5    C49   1.479144 S    
C5    O11   1.267131 A    
C67   C68   1.383583 A    
C111  H43   1.111871 S    
C132  H91   1.110435 S    
C77   C78   1.408083 A    
O12   C6    1.275390 A    
C17   C18   1.429194 S    
C64   C119  1.519163 S    
C130  H86   1.110594 S    
C14   F1    1.357852 S    
C117  C118  1.532280 S    
C107  C108  1.527893 S    
C81   C82   1.405516 A    
C86   F22   1.359472 S    
O20   Cr4   2.039917 S    
C102  H15   1.110359 S    
C115  H52   1.111771 S    
C113  H47   1.111376 S    
C44   C107  1.519485 S    
C104  H21   1.110988 S    
C67   F15   1.359529 S    
C57   C61   1.400400 A    
O16   Cr5   2.045261 S    
C112  H39   1.108948 S    
C127  H82   1.111286 S    
C44   C48   1.416946 A    
C114  H46   1.110560 S    
C130  H84   1.111041 S    
C57   F11   1.357827 S    
C92   O18   1.276208 A    
C43   C47   1.404016 A    
C41   C47   1.464148 S    
C101  H18   1.109099 S    
C129  C130  1.528364 S    
C23   F2    1.358903 S    
C81   C127  1.517821 S    
N1    C27   1.354608 A    
C97   H7    1.109882 S    
O9    Cr2   2.036485 S    
C31   C34   1.419237 A    
C109  H38   1.104680 S    
C105  H28   1.106542 S    
C10   C11   1.398059 A    
C57   C58   1.396491 A    
C106  H25   1.110321 S    
N8    C41   1.356123 A    
C35   C36   1.413108 A    
C129  H88   1.110510 S    
Cr3   O13   1.971246 S    
C87   C88   1.429910 S    
C37   F4    1.360011 S    
C43   C44   1.405963 A    
N5    C41   1.354735 A    
C126  H76   1.110356 S    
C49   C54   1.413968 A    
C73   C74   1.443782 S    
C54   F7    1.356821 S    
C32   F3    1.359571 S    
C97   C98   1.532279 S    
C51   F9    1.359680 S    
C98   H5    1.106749 S    
N9    N10   1.331843 A    
C106  H26   1.107368 S    
N11   N12   1.328195 A    
C21   C26   1.424152 A    
C117  H58   1.103095 S    
C120  H60   1.110426 S    
O1    Cr1   2.042910 S    
C15   C20   1.433319 A    
C121  H67   1.108330 S    
C13   C17   1.388625 A    
O23   Cr5   1.927848 S    
C110  H34   1.111069 S    
H1    C13   1.084138 S    
O10   Cr2   1.923567 S    
C8    F24   1.358089 S    
C123  C124  1.529901 S    
Cr1   O13   1.974014 S    
O1    C3    1.274355 A    
C115  C116  1.528583 S    
C100  H11   1.110601 S    
C126  H75   1.110671 S    
C125  H77   1.110987 S    
C85   C90   1.422462 A    
C108  H31   1.110656 S    
Cr6   O26   1.971514 S    
C60   C61   1.402845 A    
C4    C77   1.479982 S    
C119  H63   1.108904 S    
C113  C114  1.529326 S    
O6    C3    1.276021 A    
C107  H33   1.106701 S    
O19   Cr6   1.925399 S    
C29   C30   1.391271 A    
C8    C9    1.393579 A    
C32   C33   1.403787 A    
O15   Cr4   1.923923 S    
C3    C21   1.483901 S    
C52   C53   1.415355 A    
C79   C80   1.398024 A    
C15   C16   1.410224 A    
C36   C37   1.404349 A    
C18   C19   1.198917 T    
C15   C131  1.522686 S    
C77   C82   1.412627 A    
C99   H13   1.103997 S    
C120  H59   1.109714 S    
C24   C25   1.419726 A    
C110  H35   1.109587 S    
C38   C39   1.414190 A    
C125  H78   1.106880 S    
C113  H48   1.105286 S    
C98   H6    1.110474 S    
C50   C51   1.405346 A    
N4    C27   1.356249 A    
C120  H61   1.109980 S    
C11   F10   1.358247 S    
O7    Cr1   2.033509 S    
O8    C4    1.276741 A    
N7    C42   1.352698 A    
C2    C7    1.480212 S    
C65   C66   1.419549 A    
O10   C5    1.277493 A    
C72   C121  1.528496 S    
C35   C40   1.400940 A    
N5    N6    1.329898 A    
C63   C64   1.418498 A    
C16   F25   1.360125 S    
C97   H8    1.107251 S    
C131  H92   1.106270 S    
C7    C8    1.413864 A    
Cr4   O26   1.973855 S    
C100  H9    1.110772 S    
C83   C87   1.391223 A    
C71   C123  1.534305 S    
C124  H71   1.110608 S    
C53   C115  1.536219 S    
C66   C75   1.441889 S    
C109  H37   1.110993 S    
N6    C42   1.358144 A    
C104  H19   1.109292 S    
N2    C28   1.357526 A    
Cr2   O13   1.971629 S    
N7    N8    1.327437 A    
C131  H93   1.110076 S    
C129  H87   1.108390 S    
C128  H80   1.110086 S    
C60   F13   1.358553 S    
O25   Cr6   1.918263 S    
C111  H42   1.109504 S    
C6    C63   1.469806 S    
C9    F26   1.358490 S    
C128  H81   1.110384 S    
O21   Cr4   1.918253 S    
C23   C24   1.399861 A    
C125  C126  1.526690 S    
C39   C109  1.519892 S    
C48   C93   1.470368 S    
C71   C76   1.433416 A    
C103  C104  1.528081 S    
C102  H16   1.110338 S    
C31   C32   1.411921 A    
C45   F6    1.359138 S    
C124  H70   1.109082 S    
C98   H4    1.110372 S    
N3    N4    1.330817 A    
C21   C22   1.404790 A    
C80   C81   1.411115 A    
O2    Cr1   1.918087 S    
C49   C50   1.417664 A    
C100  H10   1.107591 S    
C24   C28   1.469466 S    
C25   C26   1.425560 A    
C30   H2    1.084124 S    
C122  H64   1.109270 S    
C46   C47   1.413570 A    
C106  H24   1.111306 S    
O6    Cr3   1.927951 S    
C45   C48   1.406708 A    
C88   C89   1.199103 T    
C84   F18   1.356941 S    
O11   Cr3   2.044917 S    
C83   C84   1.384960 A    
C2    O5    1.272341 A    
C10   C19   1.429675 S    
C116  H50   1.106989 S    
C50   C113  1.519569 S    
C74   C75   1.204039 T    
O17   Cr5   1.916771 S    
C12   F17   1.357931 S    
C38   C42   1.461378 S    
C70   C117  1.525235 S    
C29   C101  1.516692 S    
C131  C132  1.528246 S    
C124  H69   1.111037 S    
C127  C128  1.526290 S    
C101  H17   1.112124 S    
O2    C1    1.272612 A    
C116  H49   1.110654 S    
C110  H36   1.110454 S    
O14   Cr4   2.036490 S    
C45   C46   1.394943 A    
C76   C94   1.505194 S    
C105  C106  1.526575 S    
C102  H14   1.110285 S    
C86   C87   1.401324 A    
C126  H74   1.110077 S    
O22   Cr5   2.032394 S    
O5    Cr3   2.034123 S    
C68   F16   1.358767 S    
C52   C56   1.464329 S    
C13   C14   1.388042 A    
C90   C96   1.473996 S    
C59   C60   1.392163 A    
N1    N2    1.329706 A    
C79   F23   1.358672 S    
C63   C68   1.400285 A    
O7    C6    1.268316 A    
C112  H41   1.110087 S    
C119  C120  1.526697 S    
C85   C129  1.519543 S    
C69   C70   1.401401 A    
C132  H90   1.110365 S    
C40   H3    1.084061 S    
C16   C17   1.395115 A    
C85   C86   1.412699 A    
O21   C94   1.282585 A    
C30   C34   1.403851 A    
C107  H32   1.111479 S    
C130  H85   1.109453 S    
C65   C125  1.522392 S    
C58   C62   1.414015 A    
C37   C38   1.405711 A    
C101  C102  1.525641 S    
C115  H53   1.109654 S    
C111  C112  1.528537 S    
C78   F21   1.358187 S    
O20   C96   1.270132 A    
O25   C96   1.273499 A    
C105  H27   1.111439 S    
C118  H54   1.111318 S    
C39   C40   1.392976 A    
O3    Cr2   2.040580 S    
C22   F27   1.357634 S    
C14   C20   1.415878 A    
C7    C12   1.411725 A    
C91   O16   1.268211 A    
C4    O9    1.272069 A    
N10   C56   1.357179 A    
C108  H30   1.109695 S    
C112  H40   1.108288 S    
C53   C54   1.407935 A    
C99   H12   1.108792 S    
C122  H66   1.110353 S    
C127  H83   1.110947 S    
C72   C73   1.415675 A    
C114  H45   1.109688 S    
C36   C105  1.516271 S    
C114  H44   1.111025 S    
C132  H89   1.109191 S    
C80   C89   1.433709 S    
C55   C61   1.464205 S    
C20   C92   1.491471 S    
C99   C100  1.530569 S    
C128  H79   1.110968 S    
O18   Cr6   2.035671 S    
O14   C93   1.270334 A    
C118  H56   1.110859 S    
C123  H73   1.101486 S    
C95   O24   1.273456 A    
C1    O3    1.268342 A    
O17   C92   1.276078 A    
C1    C35   1.465668 S    
C58   F8    1.358128 S    
C46   C111  1.520016 S    
O12   Cr3   1.915928 S    
