data_mof_unit_24715.cif
_audit_creation_date              2012-12-10T18:13:28-0500
_audit_creation_method            fapswitch 2.2
_symmetry_space_group_name_H-M    P1
_symmetry_Int_Tables_number       1
_space_group_crystal_system       triclinic
_cell_length_a                    12.636734
_cell_length_b                    13.062976
_cell_length_c                    16.858688
_cell_angle_alpha                 88.962238
_cell_angle_beta                  96.846916
_cell_angle_gamma                 98.259085
_cell_volume                      2734.41473289

loop_
_atom_site_label
_atom_site_type_symbol
_atom_type_description
_atom_site_fract_x
_atom_site_fract_y
_atom_site_fract_z
_atom_type_partial_charge
C1    C     C_R   0.560803 0.691565 0.510951 0.924682
C2    C     C_R   0.580323 0.426370 0.232218 0.368389
C3    C     C_R   0.488352 0.363322 0.846516 -0.284407
C4    C     C_R   0.500051 0.385248 0.766503 0.413880
C5    C     C_R   0.415246 0.542220 0.776253 0.006606
C6    C     C_R   0.405221 0.518126 0.856069 -0.198418
C7    C     C_R   0.445480 0.431798 0.891280 0.118654
C8    C     C_2   0.527427 0.502323 0.016521 -0.218532
C9    C     C_2   0.463101 0.425133 0.977333 -0.207605
C10   C     C_R   0.467646 0.477105 0.732351 -0.099714
C11   C     C_R   0.341627 0.074686 0.368180 -0.179144
C12   C     C_R   0.513710 0.496528 0.349922 0.955756
C13   C     C_R   0.406172 0.200729 0.471743 -0.048499
C14   C     C_R   0.680899 0.834160 0.590176 0.068612
C15   C     C_R   0.694345 0.937901 0.614062 -0.150884
C16   C     C_R   0.627421 0.005209 0.578500 -0.218100
C17   C     C_R   0.549595 0.973655 0.513089 0.012484
C18   C     C_R   0.547818 0.875271 0.479764 0.010322
C19   C     C_R   0.475758 0.037852 0.478142 0.086308
C20   C     C_R   0.412270 0.009416 0.404620 0.121168
C21   C     C_R   0.425037 0.919700 0.365919 -0.374592
C22   C     C_R   0.494276 0.853202 0.401909 0.491299
C23   C     C_R   0.440002 0.308843 0.490298 0.877472
C24   C     C_R   0.465085 0.131133 0.513281 -0.221949
C25   C     C_R   0.340089 0.171392 0.400997 -0.196198
C26   C     C_R   0.601415 0.801830 0.524582 -0.139417
C27   C     C_R   0.895418 0.345231 0.614062 -0.317938
C28   C     C_R   0.215690 0.642271 0.416940 0.616950
C29   C     C_R   0.134267 0.698883 0.431646 -0.366068
C30   C     C_R   0.059067 0.656415 0.481122 -0.239009
C31   C     C_R   0.054839 0.552448 0.505332 0.004762
C32   C     C_R   0.149642 0.508497 0.504004 0.132200
C33   C     C_R   0.964105 0.492467 0.534061 -0.003137
C34   C     C_R   0.484492 0.498793 0.649775 0.881396
C35   C     C_R   0.981217 0.404418 0.581883 0.161557
C36   C     C_R   0.083219 0.373452 0.593725 -0.264625
C37   C     C_R   0.165258 0.422350 0.552425 -0.184663
C38   C     C_R   0.855807 0.507329 0.509269 0.155645
C39   C     C_R   0.791981 0.368560 0.593975 0.009027
C40   C     C_R   0.523048 0.496836 0.265161 -0.112521
C41   C     C_R   0.472996 0.568107 0.217126 -0.276495
C42   C     C_R   0.481379 0.572255 0.136522 -0.214956
C43   C     C_R   0.538101 0.503857 0.102714 0.111842
C44   C     C_R   0.591486 0.431559 0.149731 0.037297
H1    H     H_    0.425623 0.619606 0.241759 0.203759
H2    H     H_    0.371699 0.569844 0.892677 0.142944
H3    H     H_    0.294574 0.225901 0.368039 0.151267
H4    H     H_    0.382290 0.902063 0.307020 0.134087
H5    H     H_    0.293296 0.053913 0.311761 0.132231
H6    H     H_    0.508212 0.155911 0.570373 0.148970
H7    H     H_    0.641865 0.082918 0.601754 0.141044
H8    H     H_    0.753716 0.967872 0.662595 0.132782
H9    H     H_    0.724951 0.323593 0.618800 0.166618
H10   H     H_    0.097618 0.306950 0.630708 0.152830
H11   H     H_    0.907897 0.279846 0.652788 0.146081
H12   H     H_    0.009428 0.706921 0.503629 0.161932
H13   H     H_    0.132117 0.776414 0.408264 0.154327
H14   H     H_    0.240036 0.392211 0.560277 0.208743
H15   H     H_    0.428526 0.356724 0.008013 0.150495
H16   H     H_    0.518809 0.296682 0.875155 0.129817
H17   H     H_    0.561079 0.570707 0.985258 0.154427
H18   H     H_    0.439648 0.626306 0.099639 0.152001
N1    N     N_R   0.774070 0.445420 0.541180 -0.117605
N2    N     N_R   0.226730 0.554050 0.459240 -0.146287
O1    O     O_R   0.631480 0.627510 0.519670 -0.679270
O2    O     O_R   0.455770 0.662400 0.493360 -0.538697
O3    O     O_R   0.598240 0.480510 0.398910 -0.592843
O4    O     O_R   0.422540 0.515400 0.372600 -0.566877
O5    O     O_R   0.544230 0.337600 0.506640 -0.583928
O6    O     O_R   0.368520 0.372490 0.480330 -0.653788
O7    O     O_R   0.577460 0.484600 0.627400 -0.579352
O8    O     O_R   0.401760 0.519490 0.601090 -0.652482
Zn1   Zn    Zn3+2 0.617320 0.476700 0.517570 0.960305
Zn2   Zn    Zn3+2 0.382680 0.523300 0.482430 0.979234
C45   C     C_3   0.749201 0.758018 0.633632 -0.379013
C46   C     C_3   0.831562 0.801223 0.703764 -0.397610
C47   C     C_3   0.894184 0.717071 0.740875 -0.865936
H19   H     H_    0.838474 0.653024 0.764162 0.265135
H20   H     H_    0.938470 0.685832 0.695806 0.261335
H21   H     H_    0.953298 0.750113 0.791169 0.246190
H22   H     H_    0.889967 0.864552 0.682399 0.225138
H23   H     H_    0.789346 0.831539 0.750562 0.221913
H24   H     H_    0.694702 0.693306 0.657238 0.208130
H25   H     H_    0.794718 0.726756 0.589338 0.218846
O9    O     O_3   0.516864 0.770691 0.359902 -0.770988
H26   H     H_    0.483037 0.774082 0.303987 0.327612
O10   O     O_3   0.543139 0.318572 0.720620 -0.792661
H27   H     H_    0.560766 0.258229 0.753516 0.317671
C48   C     C_3   0.827283 0.579761 0.440671 -0.377379
C49   C     C_3   0.852522 0.542963 0.359832 -0.329443
C50   C     C_3   0.825945 0.619716 0.293611 -0.857423
H28   H     H_    0.738939 0.627321 0.287464 0.272512
H29   H     H_    0.874093 0.696760 0.307083 0.260291
H30   H     H_    0.845780 0.592376 0.236061 0.237702
H31   H     H_    0.938668 0.533929 0.361771 0.225746
H32   H     H_    0.804332 0.466323 0.345061 0.273325
H33   H     H_    0.743444 0.587288 0.434345 0.271171
H34   H     H_    0.858788 0.661264 0.452287 0.159948
O11   O     O_3   0.291765 0.679270 0.367644 -0.736530
H35   H     H_    0.268118 0.739863 0.338069 0.296210
C51   C     C_3   0.372357 0.638585 0.741729 -0.394441
C52   C     C_3   0.463396 0.725407 0.727063 -0.341987
C53   C     C_3   0.418594 0.819882 0.689650 -0.862130
H36   H     H_    0.374224 0.800224 0.629692 0.270171
H37   H     H_    0.363665 0.848171 0.728316 0.253555
H38   H     H_    0.485824 0.882830 0.682847 0.258526
H39   H     H_    0.512879 0.748139 0.784712 0.217315
H40   H     H_    0.516401 0.698879 0.686338 0.202837
H41   H     H_    0.317123 0.619438 0.686153 0.233742
H42   H     H_    0.322313 0.668452 0.783609 0.189585
C54   C     C_3   0.660468 0.363446 0.112171 -0.417951
C55   C     C_3   0.761331 0.427355 0.084670 -0.312722
C56   C     C_3   0.824847 0.359960 0.040993 -0.891865
H43   H     H_    0.850513 0.297071 0.080745 0.261508
H44   H     H_    0.774841 0.325554 0.986703 0.261711
H45   H     H_    0.897735 0.407948 0.022573 0.249930
H46   H     H_    0.739462 0.490696 0.043978 0.225850
H47   H     H_    0.813849 0.462428 0.137555 0.220375
H48   H     H_    0.688495 0.304157 0.154156 0.208343
H49   H     H_    0.611874 0.320291 0.060972 0.200322
O12   O     O_3   0.620968 0.352112 0.281241 -0.776492
H50   H     H_    0.598756 0.284568 0.254017 0.319721

loop_
_geom_bond_atom_site_label_1
_geom_bond_atom_site_label_2
_ccdc_geom_bond_type
C2    C44   A    
O10   H27   S    
C51   C52   S    
C41   C42   A    
C23   O5    A    
C35   C36   A    
C18   C26   A    
C8    C43   S    
C43   C44   A    
C49   H31   S    
C4    O10   S    
C47   H19   S    
C12   O4    A    
C38   C48   S    
C5    C6    A    
C36   C37   A    
C38   N1    A    
C3    C7    A    
C55   H46   S    
C27   H11   S    
C45   H25   S    
C47   H21   S    
C11   C25   A    
O4    Zn2   S    
C15   C16   A    
O2    Zn2   S    
O1    Zn1   S    
C13   C23   S    
C54   H48   S    
C22   O9    S    
C17   C19   A    
C19   C20   A    
C27   C39   A    
C8    C9    D    
O6    Zn2   S    
C1    O1    A    
C16   H7    S    
C52   H40   S    
O3    Zn1   S    
C42   H18   S    
C37   H14   S    
C8    H17   S    
C56   H45   S    
C3    H16   S    
C21   C22   A    
C23   O6    A    
C13   C25   A    
C55   C56   S    
C17   C18   A    
C47   H20   S    
C24   H6    S    
C12   O3    A    
C5    C51   S    
C11   C20   A    
C32   C37   A    
C46   C47   S    
C32   N2    A    
C10   C34   S    
C46   H23   S    
C50   H28   S    
O7    Zn1   S    
C16   C17   A    
N1    Zn1   S    
C27   C35   A    
C51   H42   S    
O9    H26   S    
C30   H12   S    
C13   C24   A    
C48   H33   S    
C54   H49   S    
C9    H15   S    
C12   C40   S    
C45   C46   S    
C29   C30   A    
C11   H5    S    
C50   H29   S    
O11   H35   S    
C30   C31   A    
C31   C33   A    
C1    O2    A    
C52   H39   S    
C53   H37   S    
C15   H8    S    
C14   C26   A    
O5    Zn1   S    
O12   H50   S    
C28   N2    A    
C28   O11   S    
O8    Zn2   S    
C40   C41   A    
C29   H13   S    
C1    C26   S    
C42   C43   A    
C4    C10   A    
C3    C4    A    
C34   O8    A    
C56   H43   S    
C2    O12   S    
C7    C9    S    
C25   H3    S    
C28   C29   A    
N2    Zn2   S    
C6    H2    S    
C54   C55   S    
C18   C22   A    
C31   C32   A    
C46   H22   S    
C49   H32   S    
C6    C7    A    
C39   N1    A    
C33   C38   A    
C48   H34   S    
C14   C45   S    
C21   H4    S    
C19   C24   A    
C5    C10   A    
C50   H30   S    
C55   H47   S    
C45   H24   S    
C49   C50   S    
C39   H9    S    
C33   C35   A    
C53   H38   S    
C52   C53   S    
C36   H10   S    
C44   C54   S    
C2    C40   A    
C20   C21   A    
C53   H36   S    
C41   H1    S    
C14   C15   A    
C48   C49   S    
C51   H41   S    
C34   O7    A    
C56   H44   S    
