data_mof_unit_20436.cif
_audit_creation_date              2012-12-10T22:11:14-0500
_audit_creation_method            fapswitch 2.2
_symmetry_space_group_name_H-M    P1
_symmetry_Int_Tables_number       1
_space_group_crystal_system       triclinic
_cell_length_a                    12.114338
_cell_length_b                    12.316459
_cell_length_c                    23.08107
_cell_angle_alpha                 90.389406
_cell_angle_beta                  90.110302
_cell_angle_gamma                 90.834238
_cell_volume                      3443.37667509

loop_
_atom_site_label
_atom_site_type_symbol
_atom_type_description
_atom_site_fract_x
_atom_site_fract_y
_atom_site_fract_z
_atom_type_partial_charge
C1    C     C_R   0.657842 0.997933 0.578498 0.873375
C2    C     C_R   0.096631 0.842597 0.803975 -0.282751
C3    C     C_R   0.900985 0.242952 0.157541 0.396698
C4    C     C_R   0.099135 0.757389 0.842631 0.396884
C5    C     C_R   0.108888 0.911615 0.327293 -0.141635
C6    C     C_R   0.890885 0.088518 0.672828 -0.141834
C7    C     C_R   0.190635 0.910580 0.368965 -0.213340
C8    C     C_R   0.809142 0.089545 0.631155 -0.213433
C9    C     C_R   0.876700 0.094100 0.320539 -0.192378
C10   C     C_R   0.123497 0.905835 0.679566 -0.192356
C11   C     C_R   0.795563 0.096145 0.362338 -0.185695
C12   C     C_R   0.342179 0.002069 0.421491 0.873327
C13   C     C_R   0.204631 0.903802 0.637767 -0.185710
C14   C     C_3   0.000112 0.002542 0.248282 -0.083214
C15   C     C_3   0.999877 0.997451 0.751710 -0.083251
C16   C     C_R   0.653801 0.001858 0.420168 0.879429
C17   C     C_R   0.346204 0.998143 0.579835 0.879493
C18   C     C_R   0.093149 0.004184 0.292761 0.219074
C19   C     C_R   0.906882 0.995826 0.707215 0.219453
C20   C     C_R   0.254377 0.003997 0.379140 -0.017757
C21   C     C_R   0.745690 0.996011 0.620824 -0.017791
C22   C     C_R   0.898100 0.998861 0.287983 0.077493
C23   C     C_R   0.903034 0.811699 0.127736 -0.205612
C24   C     C_R   0.101896 0.001140 0.712018 0.077476
C25   C     C_R   0.735648 0.001932 0.374520 -0.048127
C26   C     C_R   0.264367 0.998073 0.625491 -0.048199
C27   C     C_R   0.001996 0.102479 0.208445 0.026455
C28   C     C_R   0.997986 0.897507 0.791537 0.026553
C29   C     C_R   0.997287 0.271027 0.126729 -0.140917
C30   C     C_R   0.002735 0.728980 0.873267 -0.140981
C31   C     C_R   0.003175 0.907940 0.204900 0.189805
C32   C     C_R   0.996814 0.092027 0.795108 0.189617
C33   C     C_R   0.992993 0.744602 0.119864 -0.032560
C34   C     C_R   0.097053 0.188456 0.872170 -0.205634
C35   C     C_R   0.006986 0.255354 0.880153 -0.032715
C36   C     C_R   0.992730 0.661207 0.075536 0.871386
C37   C     C_R   0.007267 0.338784 0.924466 0.871273
C38   C     C_R   0.998306 0.353718 0.081946 0.907265
C39   C     C_R   0.001698 0.646293 0.918057 0.907146
C40   C     C_R   0.151222 0.100578 0.307350 -0.165564
C41   C     C_R   0.849177 0.899346 0.692437 -0.165621
C42   C     C_R   0.232597 0.099811 0.349366 -0.203292
C43   C     C_R   0.767807 0.900100 0.650420 -0.203305
C44   C     C_R   0.838237 0.902047 0.302204 0.108223
C45   C     C_R   0.096186 0.840933 0.194517 0.116121
C46   C     C_R   0.161578 0.098005 0.697706 0.108472
C47   C     C_R   0.756222 0.905967 0.344158 -0.232073
C48   C     C_R   0.243622 0.094090 0.655767 -0.232064
C49   C     C_R   0.097978 0.130960 0.176412 0.134178
C50   C     C_R   0.901907 0.868721 0.823403 0.134190
C51   C     C_R   0.094763 0.215145 0.136874 -0.308225
C52   C     C_R   0.905146 0.784521 0.862932 -0.308436
C53   C     C_R   0.908716 0.893387 0.169131 -0.170358
C54   C     C_R   0.091380 0.106771 0.830773 -0.170319
C55   C     C_R   0.903698 0.158805 0.805613 0.116015
C56   C     C_R   0.088169 0.759008 0.153348 -0.247781
C57   C     C_R   0.911701 0.240729 0.846783 -0.247792
C58   C     C_R   0.903437 0.157706 0.196178 -0.282880
Cl1   Cl    Cl    0.774340 0.310978 0.150686 -0.614486
Cl2   Cl    Cl    0.225993 0.689897 0.849743 -0.614490
H1    H     H_    0.278676 0.174112 0.358287 0.160524
H2    H     H_    0.075343 0.832188 0.686062 0.152311
H3    H     H_    0.710878 0.831947 0.354170 0.160128
H4    H     H_    0.288823 0.168153 0.645685 0.160125
H5    H     H_    0.169146 0.234367 0.112763 0.182642
H6    H     H_    0.830669 0.765031 0.886891 0.182764
H7    H     H_    0.829326 0.802176 0.101435 0.163748
H8    H     H_    0.170851 0.198141 0.898379 0.163809
H9    H     H_    0.158990 0.707484 0.146919 0.163342
H10   H     H_    0.840791 0.292086 0.853296 0.163420
H11   H     H_    0.203764 0.836783 0.393146 0.156341
H12   H     H_    0.721993 0.825714 0.641364 0.160562
H13   H     H_    0.795774 0.163435 0.607107 0.156434
H14   H     H_    0.782112 0.170781 0.386233 0.162401
H15   H     H_    0.218221 0.829117 0.613944 0.162416
H16   H     H_    0.134098 0.177201 0.286904 0.137670
H17   H     H_    0.866560 0.822679 0.712762 0.137479
H18   H     H_    0.883928 0.745630 0.311715 0.177818
H19   H     H_    0.792716 0.766729 0.257712 0.199066
H20   H     H_    0.206748 0.233632 0.742025 0.198966
H21   H     H_    0.115542 0.254268 0.687989 0.177644
H22   H     H_    0.220097 0.041619 0.142068 0.188537
H23   H     H_    0.837450 0.944513 0.174309 0.150804
H24   H     H_    0.260974 0.128678 0.194969 0.190732
H25   H     H_    0.739083 0.870479 0.804480 0.190752
H26   H     H_    0.779188 0.957462 0.857561 0.188489
H27   H     H_    0.219595 0.784982 0.244596 0.179364
H28   H     H_    0.261536 0.867502 0.190977 0.193826
H29   H     H_    0.738420 0.131951 0.809309 0.193737
H30   H     H_    0.780015 0.214531 0.755657 0.179337
H31   H     H_    0.162741 0.055816 0.825510 0.150734
H32   H     H_    0.825613 0.133544 0.215267 0.189468
H33   H     H_    0.174470 0.866988 0.784992 0.189345
H34   H     H_    0.061148 0.838061 0.320078 0.144068
H35   H     H_    0.938379 0.162164 0.680169 0.144161
H36   H     H_    0.925005 0.167682 0.314113 0.152411
N1    N     N_3   0.863784 0.797986 0.277942 -0.472822
N2    N     N_3   0.135770 0.202092 0.721838 -0.472968
N3    N     N_3   0.198901 0.073280 0.182643 -0.445516
N4    N     N_3   0.800836 0.926058 0.817003 -0.445327
N5    N     N_3   0.200877 0.856465 0.222656 -0.445052
N6    N     N_3   0.798945 0.143083 0.777572 -0.445022
O1    O     O_R   0.621380 0.090460 0.561410 -0.630057
O2    O     O_R   0.912410 0.372520 0.941210 -0.632441
O3    O     O_R   0.905660 0.383870 0.059980 -0.556036
O4    O     O_R   0.094340 0.616130 0.940020 -0.555908
O5    O     O_R   0.092570 0.390420 0.063230 -0.642759
O6    O     O_R   0.907430 0.609580 0.936770 -0.642791
O7    O     O_R   0.900680 0.620930 0.055550 -0.616904
O8    O     O_R   0.099320 0.379070 0.944450 -0.617043
O9    O     O_R   0.378620 0.909540 0.438590 -0.630002
O10   O     O_R   0.617150 0.909540 0.438590 -0.628901
O11   O     O_R   0.382850 0.090460 0.561410 -0.628905
O12   O     O_R   0.619720 0.093230 0.440890 -0.628277
O13   O     O_R   0.380280 0.906770 0.559110 -0.628296
O14   O     O_R   0.618800 0.906770 0.559110 -0.628479
O15   O     O_R   0.381200 0.093230 0.440890 -0.628431
O16   O     O_R   0.087590 0.627480 0.058790 -0.632349
Zn1   Zn    Zn3+2 0.501730 0.123520 0.501540 0.947819
Zn2   Zn    Zn3+2 0.498270 0.876480 0.498460 0.947812
Zn3   Zn    Zn3+2 0.125690 0.504390 0.002180 1.013266
Zn4   Zn    Zn3+2 0.874310 0.495610 0.997820 1.013186

loop_
_geom_bond_atom_site_label_1
_geom_bond_atom_site_label_2
_ccdc_geom_bond_type
C39   O4    A    
C1    C21   S    
C43   H12   S    
H29   N6    S    
H22   N3    S    
C14   C18   S    
C14   C31   S    
C49   C51   A    
C5    H34   S    
C17   O11   A    
C15   C32   S    
C15   C19   S    
C6    C19   A    
C55   N6    S    
C16   O10   A    
C17   C26   S    
C35   C37   S    
O15   Zn1   S    
O8    Zn3   S    
C7    H11   S    
O7    Zn4   S    
C48   H4    S    
O2    Zn4   S    
H21   N2    S    
C11   C25   A    
C33   C36   S    
C34   C35   A    
C51   H5    S    
C23   H7    S    
C38   O5    A    
C3    C29   A    
C18   C40   A    
H30   N6    S    
O11   Zn1   S    
C28   C50   A    
C22   C44   A    
C13   H15   S    
C45   C56   A    
C23   C33   A    
C29   C38   S    
C30   C39   S    
C50   C52   A    
C10   C13   A    
C23   C53   A    
C1    O14   A    
C14   C27   S    
H26   N4    S    
C1    O1    A    
C32   C55   A    
O12   Zn1   S    
C44   C47   A    
C26   C48   A    
C33   C56   A    
C40   C42   A    
C46   N2    S    
H27   N5    S    
C41   C43   A    
C4    Cl2   S    
C10   H2    S    
C32   C54   A    
H28   N5    S    
C39   O6    A    
C46   C48   A    
C34   H8    S    
C5    C7    A    
C6    C8    A    
C5    C18   A    
C10   C24   A    
C11   H14   S    
C40   H16   S    
C47   H3    S    
O9    Zn2   S    
O16   Zn3   S    
C2    C4    A    
C49   N3    S    
C44   N1    S    
C42   H1    S    
C12   C20   S    
H18   N1    S    
C8    C21   A    
C19   C41   A    
C31   C53   A    
C9    C11   A    
C9    H36   S    
C7    C20   A    
C37   O8    A    
C45   N5    S    
C15   C24   S    
C56   H9    S    
C55   C57   A    
C57   H10   S    
C13   C26   A    
O5    Zn3   S    
C52   H6    S    
C17   O13   A    
O10   Zn2   S    
C29   C51   A    
C16   C25   S    
C30   C52   A    
C25   C47   A    
H20   N2    S    
H24   N3    S    
H19   N1    S    
C2    H33   S    
O1    Zn1   S    
O6    Zn4   S    
C27   C58   A    
C16   O12   A    
C37   O2    A    
C20   C42   A    
O13   Zn2   S    
C34   C54   A    
C50   N4    S    
C53   H23   S    
C35   C57   A    
C24   C46   A    
C14   C22   S    
C38   O3    A    
C54   H31   S    
H25   N4    S    
C41   H17   S    
C15   C28   S    
O4    Zn3   S    
C8    H13   S    
O3    Zn4   S    
C9    C22   A    
C4    C30   A    
C12   O15   A    
C3    C58   A    
O14   Zn2   S    
C6    H35   S    
C31   C45   A    
C36   O7    A    
C2    C28   A    
C36   O16   A    
C58   H32   S    
C12   O9    A    
C21   C43   A    
C27   C49   A    
C3    Cl1   S    
