data_mof_unit_32363.cif
_audit_creation_date              2012-12-10T18:05:58-0500
_audit_creation_method            fapswitch 2.2
_symmetry_space_group_name_H-M    P1
_symmetry_Int_Tables_number       1
_space_group_crystal_system       triclinic
_cell_length_a                    12.606624
_cell_length_b                    13.094251
_cell_length_c                    14.941245
_cell_angle_alpha                 90.828645
_cell_angle_beta                  102.682828
_cell_angle_gamma                 82.203286
_cell_volume                      2383.69225826

loop_
_atom_site_label
_atom_site_type_symbol
_atom_type_description
_atom_site_fract_x
_atom_site_fract_y
_atom_site_fract_z
_atom_type_partial_charge
C1    C     C_R   0.438810 0.691396 0.492478 0.841746
C2    C     C_R   0.407150 0.566749 0.795284 0.393967
C3    C     C_R   0.498003 0.510787 0.767664 -0.171535
C4    C     C_R   0.499930 0.502602 0.672534 0.852412
C5    C     C_R   0.584503 0.456480 0.830018 -0.303800
C6    C     C_R   0.701600 0.066504 0.650679 0.144349
C7    C     C_R   0.597309 0.201308 0.543199 -0.197882
C8    C     C_R   0.301645 0.838681 0.427165 -0.193398
C9    C     C_R   0.273284 0.944226 0.409423 0.257104
C10   C     C_R   0.347332 0.011455 0.448362 -0.205438
C11   C     C_R   0.448302 0.974164 0.508844 0.076782
C12   C     C_R   0.580381 0.455174 0.107285 0.146396
C13   C     C_R   0.466620 0.870438 0.537557 0.095204
C14   C     C_R   0.531278 0.036626 0.542328 0.061226
C15   C     C_R   0.621615 0.001103 0.615146 0.075384
C16   C     C_R   0.561239 0.308867 0.515150 0.868815
C17   C     C_R   0.628153 0.901872 0.651749 -0.218424
C18   C     C_R   0.551946 0.837729 0.613541 -0.187039
C19   C     C_R   0.527647 0.132509 0.502656 -0.315775
C20   C     C_R   0.685335 0.169288 0.618289 0.431476
C21   C     C_R   0.399579 0.801450 0.488893 -0.159107
C22   C     C_R   0.088497 0.349889 0.364157 0.114809
C23   C     C_R   0.308109 0.608371 0.011215 -0.250011
C24   C     C_R   0.801085 0.628963 0.609750 0.035226
C25   C     C_R   0.906028 0.656536 0.631925 -0.236753
C26   C     C_R   0.986511 0.607202 0.589662 -0.157243
C27   C     C_R   0.962444 0.528810 0.524871 0.019998
C28   C     C_R   0.497942 0.503076 0.327094 0.884399
C29   C     C_R   0.854345 0.503799 0.505191 0.201634
C30   C     C_R   0.040763 0.475222 0.478970 -0.127874
C31   C     C_R   0.009520 0.398730 0.412122 0.103287
C32   C     C_R   0.901425 0.373588 0.396317 0.396896
C33   C     C_R   0.826880 0.426165 0.443148 -0.304235
C34   C     C_R   0.305022 0.604098 0.917827 0.472522
C35   C     C_R   0.150098 0.495143 0.497441 -0.028398
C36   C     C_R   0.194862 0.374902 0.387114 -0.024718
C37   C     C_R   0.580701 0.455852 0.199551 -0.311317
C38   C     C_R   0.493408 0.509862 0.230703 -0.063820
C39   C     C_R   0.403858 0.567294 0.170456 0.163833
C40   C     C_R   0.399758 0.561712 0.075643 0.014458
C41   C     C_R   0.489347 0.507204 0.044558 0.036020
C42   C     C_3   0.800161 0.029219 0.726312 -0.831813
C43   C     C_3   0.166353 0.985565 0.346688 -0.911585
C44   C     C_3   0.064116 0.273872 0.287787 -0.802304
C45   C     C_R   0.398891 0.558448 0.886944 -0.056848
C46   C     C_3   0.317107 0.638082 0.206409 -0.891614
C47   C     C_R   0.489574 0.506465 0.950950 -0.057098
C48   C     C_R   0.582081 0.455240 0.921818 0.154162
C49   C     C_R   0.670875 0.402831 0.984662 -0.193575
C50   C     C_R   0.669917 0.402582 0.077158 -0.200566
H1    H     H_    0.649037 0.413577 0.247739 0.156212
H2    H     H_    0.065981 0.632625 0.609160 0.163651
H3    H     H_    0.924951 0.716126 0.681591 0.165288
H4    H     H_    0.746764 0.404399 0.429787 0.211408
H5    H     H_    0.235535 0.645479 0.032077 0.189370
H6    H     H_    0.653418 0.414411 0.806587 0.167127
H7    H     H_    0.741323 0.362696 0.962297 0.152713
H8    H     H_    0.739592 0.362169 0.125260 0.168169
H9    H     H_    0.846903 0.959108 0.703879 0.225662
H10   H     H_    0.857914 0.086854 0.744484 0.290596
H11   H     H_    0.772615 0.011047 0.789215 0.225362
H12   H     H_    0.692594 0.871970 0.709310 0.155387
H13   H     H_    0.118420 0.922754 0.318267 0.244351
H14   H     H_    0.116592 0.037830 0.385561 0.251678
H15   H     H_    0.181948 0.029007 0.288668 0.240416
H16   H     H_    0.792935 0.285802 0.336654 0.326209
H17   H     H_    0.997208 0.309765 0.231454 0.268061
H18   H     H_    0.136392 0.249226 0.257573 0.197150
H19   H     H_    0.041354 0.203273 0.314387 0.279810
H20   H     H_    0.304527 0.715465 0.173292 0.236086
H21   H     H_    0.238584 0.605098 0.191667 0.244144
H22   H     H_    0.340649 0.652139 0.280921 0.245767
H23   H     H_    0.467384 0.157504 0.440992 0.168702
H24   H     H_    0.193028 0.593113 0.809065 0.362733
H25   H     H_    0.361920 0.655189 0.685334 0.326743
H26   H     H_    0.707389 0.302130 0.671516 0.339676
H27   H     H_    0.248803 0.785471 0.391286 0.160809
H28   H     H_    0.322616 0.092598 0.432551 0.146887
H29   H     H_    0.559462 0.762395 0.644965 0.149102
H30   H     H_    0.257374 0.339114 0.352875 0.141364
H31   H     H_    0.181352 0.549790 0.547377 0.153697
H32   H     H_    0.738398 0.666575 0.642611 0.128453
N1    N     N_R   0.222190 0.444670 0.452360 -0.120411
N2    N     N_R   0.776970 0.554790 0.547140 -0.115591
O1    O     O_R   0.366740 0.627160 0.477250 -0.622031
O2    O     O_3   0.207760 0.642935 0.859382 -0.723721
O3    O     O_3   0.329883 0.633658 0.735744 -0.758977
O4    O     O_3   0.753426 0.236711 0.663324 -0.761537
O5    O     O_R   0.544830 0.662520 0.507680 -0.607545
O6    O     O_R   0.410940 0.482340 0.616930 -0.596899
O7    O     O_R   0.589030 0.517700 0.647360 -0.632810
O8    O     O_R   0.455170 0.337480 0.492320 -0.607616
O9    O     O_R   0.633260 0.372840 0.522750 -0.623098
O10   O     O_R   0.410970 0.482300 0.352640 -0.613684
O11   O     O_R   0.589060 0.517660 0.383070 -0.631181
O12   O     O_3   0.869194 0.296543 0.336310 -0.791728
Zn1   Zn    Zn3+2 0.381090 0.476390 0.479680 0.944226
Zn2   Zn    Zn3+2 0.618910 0.523610 0.520320 0.939886

loop_
_geom_bond_atom_site_label_1
_geom_bond_atom_site_label_2
_ccdc_geom_bond_type
C1    C21   S    
C27   C29   A    
C5    H6    S    
C35   H31   S    
O11   Zn2   S    
C43   H13   S    
C16   O9    A    
C37   C38   A    
C13   C18   A    
C28   O11   A    
C25   H3    S    
C38   C39   A    
C37   H1    S    
C11   C14   A    
C36   N1    A    
C23   C40   A    
C29   C33   A    
C49   H7    S    
C28   O10   A    
C34   O2    S    
C12   C37   A    
C49   C50   A    
C24   H32   S    
C6    C15   A    
C22   C44   S    
C47   C48   A    
C18   H29   S    
O8    Zn1   S    
C9    C10   A    
H26   O4    S    
O6    Zn1   S    
C46   H22   S    
C4    O7    A    
C27   C30   A    
C10   H28   S    
C41   C47   A    
C43   H14   S    
C8    C21   A    
C4    O6    A    
C45   C47   A    
C2    C45   A    
C1    O1    A    
C5    C48   A    
C9    C43   S    
C22   C31   A    
C50   H8    S    
C19   H23   S    
C24   C25   A    
C29   N2    A    
C36   H30   S    
C42   H10   S    
C39   C40   A    
C35   N1    A    
C8    C9    A    
O10   Zn1   S    
C25   C26   A    
C12   C41   A    
C26   H2    S    
C17   H12   S    
C31   C32   A    
C28   C38   S    
C43   H15   S    
C23   C34   A    
C17   C18   A    
C26   C27   A    
C13   C21   A    
C44   H19   S    
C34   C45   A    
H24   O2    S    
C42   H11   S    
C46   H21   S    
C39   C46   S    
C30   C35   A    
H25   O3    S    
C48   C49   A    
C32   O12   S    
C16   O8    A    
C7    C19   A    
N1    Zn1   S    
C8    H27   S    
C44   H18   S    
C3    C4    S    
C6    C20   A    
H16   O12   S    
C33   H4    S    
C15   C17   A    
C7    C16   S    
C1    O5    A    
C14   C19   A    
C3    C5    A    
C42   H9    S    
C12   C50   A    
C23   H5    S    
C22   C36   A    
O5    Zn2   S    
N2    Zn2   S    
C32   C33   A    
C2    C3    A    
C24   N2    A    
C11   C13   A    
C30   C31   A    
C20   O4    S    
O7    Zn2   S    
C46   H20   S    
O1    Zn1   S    
C10   C11   A    
C2    O3    S    
C7    C20   A    
C6    C42   S    
C14   C15   A    
C44   H17   S    
C40   C41   A    
O9    Zn2   S    
