data_mof_unit_56244.cif
_audit_creation_date              2012-12-11T20:00:41-0500
_audit_creation_method            fapswitch 2.2
_symmetry_space_group_name_H-M    P1
_symmetry_Int_Tables_number       1
_space_group_crystal_system       triclinic
_cell_length_a                    8.261423
_cell_length_b                    15.937383
_cell_length_c                    27.154235
_cell_angle_alpha                 72.363167
_cell_angle_beta                  96.485865
_cell_angle_gamma                 95.466496
_cell_volume                      3378.37471416

loop_
_atom_site_label
_atom_site_type_symbol
_atom_type_description
_atom_site_fract_x
_atom_site_fract_y
_atom_site_fract_z
_atom_type_partial_charge
Ba1   Ba    Ba6+2 0.337820 0.939830 0.518500 1.642056
Ba2   Ba    Ba6+2 0.851970 0.060110 0.481480 1.657208
C1    C     C_3   0.072363 0.517665 0.612871 -0.375269
C2    C     C_R   0.486321 0.397305 0.192283 0.584789
C3    C     C_2   0.291680 0.285088 0.279815 -0.085086
C4    C     C_3   0.535321 0.635245 0.631875 0.339349
C5    C     C_3   0.282263 0.256036 0.338137 -0.092799
C6    C     C_1   0.478377 0.146492 0.342092 0.029601
C7    C     C_2   0.512042 0.185794 0.293272 -0.094257
C8    C     C_2   0.412554 0.258990 0.259045 0.217191
C9    C     C_R   0.539790 0.400349 0.105124 -0.080170
C10   C     C_R   0.506320 0.308084 0.119414 -0.035726
C11   C     C_R   0.515925 0.263983 0.082510 -0.060372
C12   C     C_3   0.059924 0.615645 0.604805 0.359051
C13   C     C_R   0.529902 0.444885 0.142053 -0.025349
C14   C     C_2   0.373807 0.175164 0.365794 -0.265256
C15   C     C_2   0.844651 0.840587 0.641374 -0.256760
C16   C     C_3   0.504431 0.560193 0.680770 -0.304771
C17   C     C_R   0.624823 0.451112 0.964859 0.019867
C18   C     C_R   0.667706 0.588358 0.990065 0.020089
C19   C     C_R   0.666102 0.543563 0.952032 0.048369
C20   C     C_R   0.621296 0.410336 0.925101 -0.102436
C21   C     C_R   0.659131 0.457958 0.875186 -0.063992
C22   C     C_R   0.702106 0.548670 0.862238 -0.025639
C23   C     C_3   0.080083 0.025323 0.648049 0.297591
C24   C     C_R   0.706414 0.591736 0.900586 -0.081301
C25   C     C_R   0.753135 0.682675 0.887630 -0.033818
C26   C     C_R   0.792404 0.729276 0.836518 0.585200
C27   C     C_R   0.739178 0.597049 0.811412 0.565914
C28   C     C_3   0.603291 0.882066 0.391326 0.317563
C29   C     C_2   0.910044 0.712918 0.719017 -0.080994
C30   C     C_3   0.912563 0.751037 0.661293 -0.053804
C31   C     C_1   0.723792 0.859324 0.663704 0.008484
C32   C     C_2   0.696056 0.814258 0.713460 -0.088538
C33   C     C_2   0.799092 0.737506 0.743904 0.202954
C34   C     C_3   0.064612 0.997287 0.706093 -0.383862
C35   C     C_R   0.587812 0.402738 0.016510 0.020121
C36   C     C_R   0.582899 0.448186 0.053920 0.049404
C37   C     C_R   0.620407 0.540990 0.040707 0.019835
C38   C     C_R   0.555493 0.309902 0.032388 -0.099433
C39   C     C_R   0.563492 0.536460 0.128154 -0.065235
C40   C     C_3   0.589784 0.807653 0.366588 -0.394633
C41   C     C_R   0.717920 0.679441 0.975943 -0.101121
C42   C     C_R   0.759833 0.725166 0.926066 -0.065312
C43   C     C_R   0.607566 0.583396 0.078834 -0.102114
C44   C     C_2   0.391799 0.252754 0.507344 -0.266106
C45   C     C_3   0.610727 0.391150 0.369755 0.341643
C46   C     C_R   0.808175 0.756914 0.492723 -0.299444
C47   C     C_2   0.219669 0.327832 0.546779 -0.113858
C48   C     C_2   0.254438 0.254218 0.537045 0.053877
C49   C     C_2   0.490473 0.324330 0.489841 -0.035242
C50   C     C_3   0.426717 0.413269 0.485034 -0.044220
C51   C     C_3   0.318563 0.413368 0.527496 -0.005598
C52   C     C_3   0.590450 0.120428 0.604784 0.310306
C53   C     C_2   0.540630 0.494263 0.470406 0.215878
C54   C     C_2   0.628749 0.523567 0.507738 -0.068810
C55   C     C_R   0.874950 0.604851 0.470438 -0.013761
C56   C     C_3   0.645251 0.471886 0.324043 -0.307739
C57   C     C_R   0.736059 0.604671 0.495658 -0.048299
C58   C     C_R   0.974533 0.681506 0.453964 -0.137931
C59   C     C_R   0.939186 0.758033 0.464353 0.071898
C60   C     C_R   0.700846 0.682216 0.506387 -0.002643
C61   C     C_3   0.612598 0.197115 0.627888 -0.394879
C62   C     C_3   0.125403 0.989436 0.357294 0.299730
C63   C     C_3   0.112400 0.027986 0.298563 -0.338988
C64   C     C_R   0.572890 0.839846 0.741151 0.090387
C65   C     C_R   0.450654 0.777162 0.764047 -0.014616
C66   C     C_R   0.343159 0.797596 0.794316 -0.063799
C67   C     C_3   0.077047 0.405794 0.355977 0.304566
C68   C     C_R   0.359875 0.879825 0.803334 -0.075862
C69   C     C_R   0.483837 0.941738 0.781982 -0.081229
C70   C     C_R   0.590619 0.921710 0.751315 0.027370
C71   C     C_3   0.382947 0.583793 0.395417 -0.266698
C72   C     C_3   0.127350 0.473204 0.306042 -0.431661
C73   C     C_R   0.464030 0.261802 0.170321 0.593558
H1    H     H_    0.096458 0.652460 0.565484 0.070957
H2    H     H_    0.255531 0.983348 0.371534 0.011204
H3    H     H_    0.072074 0.034682 0.374152 0.081491
H4    H     H_    0.196218 0.504785 0.606038 0.146683
H5    H     H_    0.169615 0.984959 0.280964 0.126909
H6    H     H_    0.175755 0.094629 0.287454 0.076602
H7    H     H_    0.982074 0.033441 0.283297 0.137723
H8    H     H_    0.929955 0.625783 0.607127 -0.063741
H9    H     H_    0.982545 0.495284 0.585081 0.075474
H10   H     H_    0.955178 0.024593 0.628192 0.020214
H11   H     H_    0.152590 0.977398 0.639084 0.065434
H12   H     H_    0.670301 0.824172 0.334419 0.131719
H13   H     H_    0.978038 0.038618 0.715131 0.120573
H14   H     H_    0.019214 0.926985 0.719524 0.086277
H15   H     H_    0.185275 0.005809 0.726981 0.132983
H16   H     H_    0.045848 0.479352 0.652995 0.118126
H17   H     H_    0.505709 0.587377 0.713837 0.122444
H18   H     H_    0.603618 0.331101 0.356717 0.043157
H19   H     H_    0.491191 0.397799 0.382908 -0.033938
H20   H     H_    0.727925 0.456053 0.299071 0.143231
H21   H     H_    0.529364 0.493776 0.300894 0.126404
H22   H     H_    0.703791 0.527445 0.337667 0.107793
H23   H     H_    0.627401 0.745806 0.395777 0.053710
H24   H     H_    0.186863 0.381811 0.382575 -0.048137
H25   H     H_    0.010545 0.440531 0.376368 0.097733
H26   H     H_    0.229102 0.449959 0.291490 0.128435
H27   H     H_    0.169110 0.536902 0.313287 0.081701
H28   H     H_    0.479001 0.694431 0.634182 0.092969
H29   H     H_    0.022561 0.484810 0.275876 0.139462
H30   H     H_    0.615140 0.167069 0.278334 0.114207
H31   H     H_    0.492426 0.193055 0.092236 0.120661
H32   H     H_    0.985909 0.658741 0.739379 0.104013
H33   H     H_    0.653501 0.422966 0.846415 0.118437
H34   H     H_    0.461596 0.797111 0.351169 0.120490
H35   H     H_    0.587194 0.341406 0.930850 0.067502
H36   H     H_    0.561562 0.269843 0.007172 0.067675
H37   H     H_    0.214578 0.335970 0.255628 0.093063
H38   H     H_    0.555686 0.572783 0.155607 0.116489
H39   H     H_    0.728844 0.717748 0.002817 0.067595
H40   H     H_    0.669057 0.649302 0.630308 -0.059160
H41   H     H_    0.796695 0.794803 0.917614 0.117237
H42   H     H_    0.628071 0.653597 0.071705 0.067825
H43   H     H_    0.372025 0.151098 0.407653 0.080796
H44   H     H_    0.890237 0.886575 0.606607 0.065037
H45   H     H_    0.461840 0.112037 0.590577 0.001301
H46   H     H_    0.122299 0.325772 0.570901 0.085758
H47   H     H_    0.077001 0.681379 0.432472 0.092085
H48   H     H_    0.421419 0.189738 0.504340 0.047408
H49   H     H_    0.782807 0.816662 0.500701 0.070960
H50   H     H_    0.383211 0.525436 0.676789 0.140009
H51   H     H_    0.619203 0.487808 0.548402 0.058822
H52   H     H_    0.599442 0.511782 0.688837 0.120779
H53   H     H_    0.731530 0.892199 0.405844 0.006723
H54   H     H_    0.524470 0.863207 0.423976 0.065946
H55   H     H_    0.439029 0.712244 0.758538 0.068695
H56   H     H_    0.669298 0.135033 0.572395 0.083651
H57   H     H_    0.248059 0.749338 0.811219 0.078381
H58   H     H_    0.277319 0.895430 0.827074 0.093218
H59   H     H_    0.498449 0.004886 0.789732 0.068500
H60   H     H_    0.691341 0.968337 0.737559 0.084119
H61   H     H_    0.635508 0.586508 0.405079 0.198974
H62   H     H_    0.387158 0.615408 0.353069 0.105049
H63   H     H_    0.362738 0.635043 0.413626 0.142053
H64   H     H_    0.279534 0.533057 0.401754 0.107319
H65   H     H_    0.528942 0.185934 0.658861 0.124487
H66   H     H_    0.585758 0.259865 0.597633 0.060154
H67   H     H_    0.740635 0.203088 0.644683 0.125596
N1    N     N_R   0.453883 0.306505 0.206275 -0.421885
N2    N     N_R   0.776340 0.687535 0.798096 -0.425389
N3    N     N_2   0.535656 0.544462 0.416898 -0.425179
O1    O     O_2   0.431310 0.922990 0.623550 -0.451715
O2    O     O_2   0.826700 0.309242 0.506078 -0.480910
O3    O     O_3   0.737734 0.386885 0.409243 -0.579444
O4    O     O_3   0.663280 0.983100 0.563360 -0.491988
O5    O     O_3   0.016420 0.932050 0.462720 -0.484191
O6    O     O_2   0.959730 0.164640 0.549160 -0.457207
O7    O     O_3   0.158871 0.110008 0.633374 -0.642193
O8    O     O_2   0.962651 0.185164 0.328428 -0.488067
O9    O     O_3   0.969463 0.338737 0.344239 -0.563477
O10   O     O_2   0.434411 0.181947 0.182326 -0.596117
O11   O     O_2   0.738560 0.558158 0.778971 -0.627112
O12   O     O_3   0.041723 0.906186 0.370278 -0.636061
O13   O     O_2   0.478588 0.437042 0.223827 -0.637633
O14   O     O_2   0.842175 0.806752 0.826405 -0.611732
O15   O     O_3   0.126250 0.812630 0.574830 -0.473815
O16   O     O_2   0.256835 0.785643 0.670871 -0.497918
O17   O     O_3   0.632490 0.043939 0.643669 -0.649028
O18   O     O_3   0.163688 0.642942 0.642739 -0.600495
O19   O     O_2   0.229950 0.835370 0.450810 -0.465968
O20   O     O_3   0.517580 0.797570 0.545130 -0.489026
O21   O     O_2   0.362744 0.691668 0.493144 -0.491669
O22   O     O_3   0.465492 0.610554 0.588366 -0.603750
O23   O     O_2   0.758370 0.077020 0.376420 -0.444469
O24   O     O_3   0.526390 0.016840 0.436620 -0.503177
O25   O     O_3   0.063420 0.187310 0.425160 -0.455861
O26   O     O_3   0.554074 0.958985 0.353791 -0.628242
O27   O     O_3   0.173250 0.067890 0.537260 -0.473888
O28   O     O_3   0.672100 0.202370 0.454860 -0.472929
P1    P     P_3+3 0.610630 0.953360 0.619150 0.977351
P2    P     P_3+3 0.057260 0.861390 0.437850 0.980225
P3    P     P_3+3 0.511321 0.695346 0.532625 0.941295
P4    P     P_3+3 0.579040 0.046590 0.380840 0.987301
P5    P     P_3+3 0.681120 0.306556 0.465310 0.968285
P6    P     P_3+3 0.116631 0.749539 0.638850 0.939990
P7    P     P_3+3 0.143841 0.149618 0.565623 0.948812
P8    P     P_3+3 0.070175 0.241350 0.358497 0.977406

loop_
_geom_bond_atom_site_label_1
_geom_bond_atom_site_label_2
_ccdc_geom_bond_type
C34   H14   S    
Ba2   O5    S    
C53   C54   D    
C52   H45   S    
Ba2   O24   S    
C61   H65   S    
C59   P2    S    
C19   C24   A    
C1    H4    S    
C32   C64   S    
C69   H59   S    
C63   H7    S    
C34   H13   S    
O20   P3    S    
C52   H56   S    
C24   C25   A    
C23   O7    S    
C17   C19   A    
C40   H34   S    
C22   C24   A    
C32   C33   S    
C35   C38   A    
C40   H23   S    
C41   H39   S    
C36   C37   A    
C53   N3    S    
C52   C61   S    
C7    H30   S    
O23   P4    D    
O9    P8    S    
O1    P1    D    
O19   P2    D    
C1    H16   S    
O4    P1    S    
C62   H2    S    
C29   H32   S    
C12   O18   S    
C66   H57   S    
C56   H21   S    
C22   C27   A    
C11   C38   A    
C2    O13   D    
C17   C35   A    
C4    O22   S    
C9    C13   A    
C25   C42   A    
C61   H67   S    
C64   C70   A    
Ba1   O19   S    
C6    C7    D    
C20   H35   S    
C62   O12   S    
C68   H58   S    
C21   C22   A    
C30   P6    S    
Ba1   O4    S    
C68   C69   A    
C26   N2    Am   
Ba2   P4    S    
C54   H51   S    
O16   P6    D    
C49   P5    S    
C7    C8    S    
H61   N3    S    
C50   C53   S    
C33   N2    S    
C37   C43   A    
O27   P7    S    
Ba2   O4    S    
C64   C65   A    
C60   P3    S    
C6    C14   D    
C63   H5    S    
Ba1   O1    S    
C56   H22   S    
C15   C31   D    
C12   H8    S    
C2    N1    Am   
C6    P4    S    
O24   P4    S    
C38   H36   S    
C45   H18   S    
C4    C16   S    
C28   H53   S    
Ba1   P1    S    
C5    P8    S    
C34   H15   S    
C49   C50   S    
C56   H20   S    
C67   C72   S    
C17   C20   A    
C13   C39   A    
C3    C5    S    
C18   C37   A    
C70   H60   S    
C71   H64   S    
C27   N2    Am   
C44   C49   D    
O12   P2    S    
C26   O14   D    
C65   C66   A    
C71   N3    S    
C58   C59   A    
C12   H1    S    
O7    P7    S    
C9    C36   A    
C48   P7    S    
C41   C42   A    
O15   P6    S    
C35   C36   A    
C14   H43   S    
C16   H52   S    
C63   H6    S    
C29   C30   S    
Ba1   O20   S    
C47   H46   S    
C23   H10   S    
C31   C32   D    
C61   H66   S    
Ba1   O5    S    
C4    H28   S    
C52   O17   S    
C58   H47   S    
C31   P1    S    
C1    C12   S    
C73   N1    Am   
Ba2   O25   S    
C27   O11   D    
C67   H24   S    
C5    C14   S    
O8    P8    D    
C72   H26   S    
O25   P8    S    
O18   P6    S    
C4    H40   S    
C29   C33   D    
C44   H48   S    
C65   H55   S    
Ba2   O23   S    
C46   C60   A    
C25   C26   A    
C18   C41   A    
C50   C51   S    
C72   H29   S    
C43   H42   S    
Ba2   O6    S    
C45   O3    S    
Ba1   P2    S    
C57   C60   A    
O3    P5    S    
C62   H3    S    
Ba1   O15   S    
O26   P4    S    
C39   H38   S    
C11   H31   S    
C55   C58   A    
C46   H49   S    
C9    C10   A    
O17   P1    S    
C3    H37   S    
C28   H54   S    
C44   C48   S    
Ba1   O27   S    
O21   P3    D    
C67   O9    S    
C54   C57   S    
C72   H27   S    
C16   H17   S    
C62   C63   S    
C2    C13   A    
C3    C8    D    
Ba2   O28   S    
C45   C56   S    
O2    P5    D    
O6    P7    D    
C71   H62   S    
O28   P5    S    
C47   C51   S    
C21   H33   S    
Ba1   Ba2   S    
Ba1   O24   S    
C23   H11   S    
C45   H19   S    
O5    P2    S    
C8    N1    S    
C16   H50   S    
C28   O26   S    
C55   C57   A    
C15   H44   S    
C23   C34   S    
C67   H25   S    
C73   O10   D    
C69   C70   A    
C18   C19   A    
C42   H41   S    
C66   C68   A    
C47   C48   D    
C71   H63   S    
C10   C73   A    
C46   C59   A    
C1    H9    S    
C15   C30   S    
C39   C43   A    
C20   C21   A    
C28   C40   S    
C40   H12   S    
C10   C11   A    
Ba2   O27   S    
O22   P3    S    
