data_mof_unit_33683.cif
_audit_creation_date              2012-10-26T19:41:52-0400
_audit_creation_method            fapswitch 2.2
_symmetry_space_group_name_H-M    P1
_symmetry_Int_Tables_number       1
_space_group_crystal_system       triclinic
_cell_length_a                    10.62549
_cell_length_b                    10.756703
_cell_length_c                    9.637637
_cell_angle_alpha                 89.725767
_cell_angle_beta                  90.140822
_cell_angle_gamma                 92.944517
_cell_volume                      1100.06642998

loop_
_atom_site_label
_atom_site_type_symbol
_atom_type_description
_atom_site_fract_x
_atom_site_fract_y
_atom_site_fract_z
_atom_type_partial_charge
Br1   Br    Br    0.087319 0.246702 0.347331 -0.562292
C1    C     C_R   0.497276 0.262736 0.500294 0.545656
C2    C     C_R   0.385275 0.059503 0.556070 0.031293
C3    C     C_R   0.490542 0.128511 0.500906 0.009853
C4    C     C_R   0.259561 0.499019 0.499849 0.557818
C5    C     C_R   0.592120 0.069042 0.444653 -0.142089
C6    C     C_R   0.592254 0.940695 0.445259 -0.153000
C7    C     C_R   0.490314 0.870394 0.500134 0.012608
C8    C     C_R   0.666892 0.666590 0.143426 -0.114850
C9    C     C_R   0.748644 0.749424 0.071791 0.110078
C10   C     C_R   0.747448 0.750884 0.928348 0.118708
C11   C     C_R   0.667190 0.666907 0.856382 -0.114879
C12   C     C_3   0.963832 0.603521 0.559386 -0.151061
C13   C     C_R   0.582290 0.581816 0.925275 0.105418
C14   C     C_R   0.582058 0.581874 0.074465 0.118771
C15   C     C_R   0.421522 0.422540 0.074416 0.015999
C16   C     C_R   0.497532 0.736976 0.499862 0.514999
C17   C     C_R   0.421077 0.422268 0.926423 0.212259
C18   C     C_R   0.740404 0.500070 0.499828 0.535334
C19   C     C_3   0.035326 0.395658 0.438378 0.162308
C20   C     C_3   0.958082 0.495011 0.366791 -0.087382
C21   C     C_3   0.877318 0.499324 0.498468 0.021739
C22   C     C_3   0.952430 0.398792 0.569238 -0.100475
C23   C     C_3   0.047119 0.598953 0.428394 -0.158170
C24   C     C_3   0.041218 0.503273 0.630718 -0.137353
C25   C     C_3   0.122559 0.498756 0.499470 0.044503
C26   C     C_R   0.279180 0.117896 0.608239 -0.070780
C27   C     C_R   0.175773 0.047345 0.659923 -0.086517
C28   C     C_R   0.175656 0.917959 0.659412 -0.109133
C29   C     C_R   0.278866 0.858354 0.607322 -0.101281
C30   C     C_R   0.385084 0.928084 0.555518 0.030890
Cu1   Cu    Cu3+1 0.499990 0.499990 0.640660 0.953012
Cu2   Cu    Cu3+1 0.500010 0.500010 0.359340 0.951362
H1    H     H_    0.921741 0.491346 0.258683 0.144542
H2    H     H_    0.930514 0.690019 0.604726 0.095089
H3    H     H_    0.088716 0.681001 0.371373 0.129086
H4    H     H_    0.672709 0.122442 0.402684 0.140652
H5    H     H_    0.274203 0.218039 0.607499 0.164228
H6    H     H_    0.094961 0.093279 0.699264 0.135313
H7    H     H_    0.887117 0.779775 0.213915 0.216295
H8    H     H_    0.782540 0.893061 0.202835 0.230536
H9    H     H_    0.774174 0.887305 0.784573 0.223529
H10   H     H_    0.893533 0.789742 0.800272 0.208534
H11   H     H_    0.244015 0.356726 0.884775 0.208909
H12   H     H_    0.094980 0.863467 0.698606 0.115620
H13   H     H_    0.353132 0.247865 0.886222 0.217065
H14   H     H_    0.273924 0.757753 0.606840 0.133594
H15   H     H_    0.673368 0.895563 0.405832 0.098342
H16   H     H_    0.357243 0.359114 0.130211 0.150968
H17   H     H_    0.674314 0.672735 0.252911 0.178333
H18   H     H_    0.675041 0.673064 0.746815 0.179972
H19   H     H_    0.911145 0.316538 0.626140 0.129246
H20   H     H_    0.077367 0.507198 0.738874 0.133198
N1    N     N_R   0.501210 0.501210 0.147910 -0.253390
N2    N     N_R   0.501250 0.501290 0.852040 -0.204444
N3    N     N_3   0.834862 0.832278 0.145092 -0.563413
N4    N     N_3   0.828489 0.839122 0.855466 -0.577295
N5    N     N_3   0.335594 0.338417 0.854386 -0.572423
O1    O     O_R   0.499990 0.319640 0.618810 -0.475030
O2    O     O_R   0.500000 0.319660 0.381240 -0.486412
O3    O     O_R   0.316850 0.499960 0.618770 -0.490808
O4    O     O_R   0.316860 0.499980 0.381190 -0.479840
O5    O     O_R   0.500000 0.680340 0.618760 -0.530195
O6    O     O_R   0.500010 0.680360 0.381190 -0.516919
O7    O     O_R   0.683140 0.500020 0.618810 -0.520206
O8    O     O_R   0.683150 0.500040 0.381230 -0.526024

loop_
_geom_bond_atom_site_label_1
_geom_bond_atom_site_label_2
_ccdc_geom_bond_type
Cu2   O8    S    
C1    C3    S    
C10   C11   A    
H8    N3    S    
C18   O7    A    
C28   C29   A    
C9    N3    S    
C8    C9    A    
Cu1   N2    S    
H11   N5    S    
C7    C16   S    
Cu1   O1    S    
C19   C22   S    
C6    H15   S    
C10   N4    S    
C2    C26   A    
C13   N2    A    
C8    C14   A    
C5    H4    S    
C4    O3    A    
C6    C7    A    
C23   H3    S    
C20   C21   S    
C16   O5    A    
C2    C30   A    
C23   C25   S    
C12   C24   S    
C22   H19   S    
C5    C6    A    
C19   C25   S    
C17   N2    A    
Cu2   O6    S    
H9    N4    S    
C3    C5    A    
C27   C28   A    
C24   H20   S    
C12   C21   S    
C12   H2    S    
Cu2   O2    S    
C1    O2    A    
C22   C24   S    
C16   O6    A    
C29   C30   A    
C12   C23   S    
C15   N1    A    
C9    C10   A    
H10   N4    S    
C26   H5    S    
C4    C25   S    
C14   N1    A    
C29   H14   S    
C15   H16   S    
C18   C21   S    
Cu1   O3    S    
C19   C20   S    
C11   H18   S    
C18   O8    A    
C15   C17   A    
Cu1   Cu2   S    
C20   C23   S    
C28   H12   S    
Cu2   N1    S    
C13   C14   A    
Cu2   O4    S    
Br1   C19   S    
C20   H1    S    
C27   H6    S    
H7    N3    S    
C24   C25   S    
C1    O1    A    
C7    C30   A    
C4    O4    A    
C17   N5    S    
C21   C22   S    
H13   N5    S    
C8    H17   S    
C2    C3    A    
Cu1   O5    S    
C11   C13   A    
Cu1   O7    S    
C26   C27   A    
