data_mof_unit_13161.cif
_audit_creation_date              2012-12-10T20:27:53-0500
_audit_creation_method            fapswitch 2.2
_symmetry_space_group_name_H-M    P1
_symmetry_Int_Tables_number       1
_space_group_crystal_system       triclinic
_cell_length_a                    12.891675
_cell_length_b                    10.676443
_cell_length_c                    9.856333
_cell_angle_alpha                 89.939366
_cell_angle_beta                  97.176884
_cell_angle_gamma                 90.092788
_cell_volume                      1345.96744309

loop_
_atom_site_label
_atom_site_type_symbol
_atom_type_description
_atom_site_fract_x
_atom_site_fract_y
_atom_site_fract_z
_atom_type_partial_charge
C1    C     C_R   0.503119 0.259915 0.500600 0.882559
C2    C     C_R   0.029368 0.522061 0.566063 0.161035
C3    C     C_R   0.971352 0.488057 0.439738 0.143312
C4    C     C_R   0.864509 0.478363 0.430061 -0.287662
C5    C     C_R   0.869966 0.534354 0.669782 -0.207170
C6    C     C_R   0.978359 0.544406 0.682763 0.198180
C7    C     C_R   0.518168 0.063683 0.626306 0.142580
C8    C     C_R   0.519731 0.128550 0.504020 -0.104981
C9    C     C_R   0.541408 0.064962 0.386313 -0.226973
C10   C     C_R   0.541639 0.935415 0.386296 -0.224556
C11   C     C_R   0.520160 0.871405 0.503973 -0.103031
C12   C     C_R   0.298148 0.501255 0.473278 0.886264
C13   C     C_R   0.518476 0.935929 0.626316 0.126974
C14   C     C_3   0.442587 0.928184 0.729023 -0.474771
C15   C     C_3   0.442029 0.070141 0.728732 -0.493328
C16   C     C_R   0.451926 0.405697 0.063615 0.217151
C17   C     C_R   0.555340 0.586665 0.080960 -0.131790
C18   C     C_R   0.555337 0.586689 0.936912 -0.142941
C19   C     C_R   0.451885 0.405684 0.920953 0.220030
C20   C     C_3   0.338631 0.372783 0.897273 -0.510018
C21   C     C_3   0.338836 0.372841 0.051158 -0.521942
C22   C     C_R   0.503374 0.740051 0.500506 0.881301
C23   C     C_R   0.701842 0.499978 0.526872 0.895868
C24   C     C_R   0.813936 0.502901 0.543696 -0.102466
C25   C     C_R   0.185994 0.502611 0.457664 -0.060088
C26   C     C_R   0.020624 0.464023 0.323925 -0.201754
C27   C     C_R   0.128213 0.470660 0.333098 -0.200178
C28   C     C_R   0.136826 0.531325 0.572035 -0.279085
H1    H     H_    0.820614 0.452257 0.332980 0.168475
H2    H     H_    0.478526 0.887406 0.827637 0.201850
H3    H     H_    0.365549 0.110722 0.685561 0.199963
H4    H     H_    0.477389 0.111475 0.827304 0.203353
H5    H     H_    0.598380 0.658054 0.142302 0.144029
H6    H     H_    0.598356 0.658091 0.889451 0.144322
H7    H     H_    0.290104 0.448799 0.845439 0.217218
H8    H     H_    0.324809 0.278552 0.850933 0.199214
H9    H     H_    0.290761 0.449308 0.087116 0.214679
H10   H     H_    0.325499 0.278613 0.093870 0.202538
H11   H     H_    0.829076 0.553066 0.757238 0.163062
H12   H     H_    0.976146 0.438291 0.227247 0.139371
H13   H     H_    0.165964 0.448282 0.244201 0.153594
H14   H     H_    0.183157 0.559521 0.666073 0.169047
H15   H     H_    0.550894 0.114156 0.292445 0.169848
H16   H     H_    0.551252 0.886499 0.292436 0.165929
H17   H     H_    0.366371 0.886255 0.686511 0.204980
N1    N     N_R   0.499290 0.499140 0.142710 -0.106993
N2    N     N_R   0.499290 0.499180 0.857070 -0.105963
O1    O     O_R   0.500010 0.316790 0.614690 -0.614460
O2    O     O_R   0.500000 0.316760 0.385350 -0.624393
O3    O     O_R   0.346360 0.499990 0.595720 -0.626406
O4    O     O_R   0.346350 0.499960 0.366370 -0.620514
O5    O     O_R   0.500000 0.683240 0.614650 -0.621703
O6    O     O_R   0.499990 0.683210 0.385310 -0.624654
O7    O     O_R   0.653650 0.500040 0.633630 -0.627373
O8    O     O_R   0.653640 0.500010 0.404280 -0.625469
Zn1   Zn    Zn3+2 0.500010 0.500020 0.653130 0.941193
Zn2   Zn    Zn3+2 0.499990 0.499980 0.346870 0.941835
C29   C     C_3   0.036737 0.578265 0.820381 -0.960846
H18   H     H_    0.983070 0.591215 0.899092 0.244255
H19   H     H_    0.092292 0.502321 0.856175 0.243254
H20   H     H_    0.080170 0.667319 0.812413 0.244247

loop_
_geom_bond_atom_site_label_1
_geom_bond_atom_site_label_2
_ccdc_geom_bond_type
C12   O3    A    
C23   C24   S    
C1    O1    A    
C23   O8    A    
C16   C21   S    
O4    Zn2   S    
C22   O6    A    
C1    C8    S    
C11   C13   A    
C9    C10   A    
C27   H13   S    
C11   C22   S    
C4    H1    S    
C12   C25   S    
C18   N2    A    
C29   H20   S    
C7    C15   S    
C17   C18   A    
C21   H9    S    
C7    C8    A    
C13   C14   S    
C17   N1    A    
C25   C28   A    
C15   H3    S    
C18   H6    S    
C26   H12   S    
C26   C27   A    
C2    C6    A    
C5    C24   A    
C17   H5    S    
C14   H2    S    
C16   C19   A    
C28   H14   S    
O6    Zn2   S    
C2    C3    A    
C14   H17   S    
O7    Zn1   S    
O8    Zn2   S    
N1    Zn2   S    
C5    C6    A    
C4    C24   A    
C19   N2    A    
C9    H15   S    
C25   C27   A    
C10   C11   A    
C10   H16   S    
C3    C4    A    
C20   H8    S    
O5    Zn1   S    
C7    C13   A    
C12   O4    A    
O2    Zn2   S    
C20   C21   S    
C23   O7    A    
C22   O5    A    
C1    O2    A    
C16   N1    A    
O1    Zn1   S    
C5    H11   S    
C6    C29   S    
C14   C15   S    
N2    Zn1   S    
C2    C28   A    
C29   H18   S    
C20   H7    S    
C29   H19   S    
C3    C26   A    
O3    Zn1   S    
C21   H10   S    
C19   C20   S    
C8    C9    A    
C15   H4    S    
