data_mof_unit_36147.cif
_audit_creation_date              2012-12-10T17:05:22-0500
_audit_creation_method            fapswitch 2.2
_symmetry_space_group_name_H-M    P1
_symmetry_Int_Tables_number       1
_space_group_crystal_system       triclinic
_cell_length_a                    10.030626
_cell_length_b                    10.700232
_cell_length_c                    15.449687
_cell_angle_alpha                 90.311475
_cell_angle_beta                  67.59281
_cell_angle_gamma                 91.015218
_cell_volume                      1532.77486374

loop_
_atom_site_label
_atom_site_type_symbol
_atom_type_description
_atom_site_fract_x
_atom_site_fract_y
_atom_site_fract_z
_atom_type_partial_charge
C1    C     C_R   0.500401 0.737466 0.501955 0.930628
C2    C     C_R   0.706416 0.617494 0.043974 0.033998
C3    C     C_R   0.574023 0.552686 0.091880 -0.019988
C4    C     C_R   0.409623 0.502577 0.676218 0.870560
C5    C     C_R   0.805736 0.636109 0.087639 0.509895
C6    C     C_R   0.772815 0.589324 0.178036 -0.336724
C7    C     C_R   0.556944 0.488025 0.174529 -0.058794
C8    C     C_2   0.579312 0.069922 0.542784 -0.199497
C9    C     C_2   0.479997 0.132025 0.523371 -0.361015
C10   C     C_2   0.568774 0.935165 0.551738 0.034592
C11   C     C_2   0.505131 0.870189 0.502658 -0.379835
C12   C     C_R   0.403556 0.557213 0.917013 0.076528
C13   C     C_2   0.102592 0.423196 0.450349 -0.122668
C14   C     C_2   0.955481 0.428869 0.445746 -0.139397
C15   C     C_R   0.495756 0.262672 0.504951 0.947745
C16   C     C_R   0.590403 0.499966 0.323778 0.905586
C17   C     C_R   0.352468 0.514858 0.778008 -0.064317
C18   C     C_R   0.646332 0.518797 0.222486 -0.177824
C19   C     C_R   0.161339 0.491714 0.930720 -0.121934
C20   C     C_R   0.207778 0.488170 0.833418 -0.206821
C21   C     C_R   0.447519 0.552653 0.819860 -0.248285
C22   C     C_3   0.923533 0.822116 0.077170 -0.319230
C23   C     C_R   0.259285 0.522230 0.972892 0.181934
C24   C     C_1   0.630785 0.877077 0.612037 0.209607
C25   C     C_1   0.463098 0.378233 0.204009 0.174921
C26   C     C_R   0.503119 0.584903 0.959511 0.078617
C27   C     C_R   0.465155 0.552715 0.054387 0.095703
C28   C     C_R   0.318292 0.528338 0.110078 -0.219287
C29   C     C_R   0.216327 0.514944 0.069798 -0.212440
C30   C     C_R   0.638686 0.643262 0.910810 -0.243756
C31   C     C_R   0.736385 0.663100 0.953761 -0.190571
H1    H     H_    0.105230 0.493334 0.114113 0.156593
H2    H     H_    0.836839 0.712227 0.915163 0.192500
H3    H     H_    0.050547 0.466001 0.972867 0.151532
H4    H     H_    0.132298 0.460470 0.801772 0.159465
H5    H     H_    0.558665 0.570839 0.775409 0.165783
H6    H     H_    0.280204 0.522305 0.185518 0.165471
H7    H     H_    0.668590 0.680701 0.841078 0.160185
H8    H     H_    0.912331 0.822813 0.151628 0.166558
H9    H     H_    0.832143 0.871814 0.069293 0.161859
H10   H     H_    0.024027 0.874668 0.036204 0.201927
H11   H     H_    0.670648 0.117798 0.550557 0.179216
H12   H     H_    0.380946 0.087528 0.524946 0.160788
H13   H     H_    0.459886 0.914591 0.457319 0.143906
H14   H     H_    0.175140 0.352354 0.408712 0.176167
H15   H     H_    0.083312 0.570331 0.534253 0.165118
H16   H     H_    0.934246 0.368484 0.395653 0.161590
H17   H     H_    0.869337 0.550561 0.550138 0.170901
H18   H     H_    0.844216 0.610779 0.214118 0.179143
N1    N     N_2   0.148330 0.498670 0.499030 -0.191819
N2    N     N_2   0.852680 0.498640 0.499000 -0.189003
N3    N     N_1   0.680098 0.830720 0.660255 -0.237760
N4    N     N_1   0.388965 0.290444 0.227334 -0.229662
O1    O     O_R   0.386950 0.680940 0.500010 -0.610732
O2    O     O_R   0.613110 0.680900 0.499990 -0.598893
O3    O     O_R   0.322330 0.500030 0.632270 -0.613020
O4    O     O_R   0.548480 0.499990 0.632240 -0.613808
O5    O     O_R   0.386890 0.319100 0.500010 -0.613837
O6    O     O_R   0.613050 0.319060 0.499990 -0.608316
O7    O     O_R   0.451520 0.500010 0.367760 -0.597561
O8    O     O_R   0.677670 0.499970 0.367730 -0.613664
O9    O     O_3   0.935019 0.699300 0.041864 -0.622576
Zn1   Zn    Zn3+2 0.349000 0.500030 0.500020 0.948589
Zn2   Zn    Zn3+2 0.651000 0.499970 0.499980 0.945430

loop_
_geom_bond_atom_site_label_1
_geom_bond_atom_site_label_2
_ccdc_geom_bond_type
C4    O4    A    
C24   N3    T    
O8    Zn2   S    
C19   C23   A    
C1    O1    A    
C31   H2    S    
C14   H16   S    
C22   O9    S    
H15   N1    S    
C14   N2    D    
C7    C25   S    
C8    H11   S    
C7    C18   A    
C22   H9    S    
O2    Zn2   S    
C3    C27   A    
C2    C3    A    
C9    C15   S    
O3    Zn1   S    
C11   H13   S    
C21   H5    S    
C13   C14   S    
C4    O3    A    
C13   H14   S    
N1    Zn1   S    
C12   C23   A    
C26   C27   A    
C5    C6    A    
C28   H6    S    
O7    Zn1   S    
C16   O7    A    
C22   H8    S    
C23   C29   A    
C8    C10   S    
C28   C29   A    
C25   N4    T    
C5    O9    S    
C26   C30   A    
C29   H1    S    
C3    C7    A    
C6    H18   S    
C1    O2    A    
C30   C31   A    
C6    C18   A    
C15   O5    A    
C9    H12   S    
C2    C5    A    
C16   O8    A    
C4    C17   S    
C13   N1    D    
C22   H10   S    
O6    Zn2   S    
C27   C28   A    
C17   C20   A    
C30   H7    S    
O4    Zn2   S    
C16   C18   S    
C10   C11   D    
O5    Zn1   S    
O1    Zn1   S    
C8    C9    D    
C10   C24   S    
C20   H4    S    
C15   O6    A    
C12   C21   A    
H17   N2    S    
C17   C21   A    
N2    Zn2   S    
C19   C20   A    
C12   C26   A    
C2    C31   A    
C19   H3    S    
C1    C11   S    
