data_mof_unit_47816.cif
_audit_creation_date              2012-12-11T14:03:57-0500
_audit_creation_method            fapswitch 2.2
_symmetry_space_group_name_H-M    P1
_symmetry_Int_Tables_number       1
_space_group_crystal_system       triclinic
_cell_length_a                    19.062459
_cell_length_b                    10.992262
_cell_length_c                    18.837976
_cell_angle_alpha                 89.031702
_cell_angle_beta                  90.296323
_cell_angle_gamma                 89.964125
_cell_volume                      3946.68342718

loop_
_atom_site_label
_atom_site_type_symbol
_atom_type_description
_atom_site_fract_x
_atom_site_fract_y
_atom_site_fract_z
_atom_type_partial_charge
C1    C     C_R   0.238550 0.470106 0.645507 0.551921
C2    C     C_R   0.759768 0.462652 0.350483 0.546293
C3    C     C_R   0.738550 0.970107 0.645507 0.551920
C4    C     C_R   0.259754 0.962602 0.350448 0.546236
C5    C     C_2   0.276606 0.864637 0.536559 -0.157840
C6    C     C_2   0.704377 0.857629 0.460262 -0.166034
C7    C     C_2   0.776717 0.364455 0.536562 -0.158025
C8    C     C_2   0.204379 0.357620 0.460264 -0.166036
C9    C     C_R   0.002390 0.652035 0.426179 -0.027532
C10   C     C_R   0.996910 0.675382 0.574215 -0.035928
C11   C     C_R   0.502351 0.152040 0.426198 -0.027534
C12   C     C_R   0.496882 0.175401 0.574232 -0.035952
C13   C     C_R   0.053189 0.854550 0.413141 -0.100379
C14   C     C_R   0.037717 0.891506 0.557781 -0.071775
C15   C     C_R   0.553132 0.354578 0.413153 -0.100364
C16   C     C_R   0.537669 0.391532 0.557795 -0.071778
C17   C     C_R   0.078376 0.960467 0.443087 -0.140820
C18   C     C_R   0.071274 0.978432 0.515288 -0.132681
C19   C     C_R   0.578294 0.460520 0.443091 -0.140902
C20   C     C_R   0.571199 0.478480 0.515294 -0.132749
C21   C     C_R   0.018484 0.776708 0.530385 0.011770
C22   C     C_R   0.023322 0.761937 0.456069 0.009241
C23   C     C_R   0.518446 0.276728 0.530400 0.011781
C24   C     C_R   0.523281 0.261951 0.456085 0.009236
C25   C     C_R   0.972807 0.568453 0.542234 -0.018398
C26   C     C_R   0.988942 0.549371 0.471264 -0.005748
C27   C     C_R   0.472755 0.068487 0.542259 -0.018419
C28   C     C_R   0.488878 0.049386 0.471287 -0.005716
C29   C     C_R   0.942491 0.473180 0.582731 -0.086030
C30   C     C_R   0.991714 0.427780 0.447925 -0.081996
C31   C     C_R   0.442428 0.973241 0.582768 -0.086030
C32   C     C_R   0.491616 0.927785 0.447956 -0.081896
C33   C     C_R   0.943097 0.353216 0.559179 0.039219
C34   C     C_R   0.968065 0.330105 0.490253 0.029549
C35   C     C_R   0.443004 0.853274 0.559223 0.039285
C36   C     C_R   0.467953 0.830134 0.490295 0.029637
C37   C     C_2   0.254664 0.924275 0.917579 -0.105707
C38   C     C_2   0.761568 0.896925 0.070904 -0.100995
C39   C     C_2   0.754664 0.424275 0.917579 -0.105708
C40   C     C_2   0.261568 0.396925 0.070904 -0.100996
C41   C     C_2   0.254407 0.937357 0.073896 -0.093678
C42   C     C_2   0.752153 0.895630 0.915190 -0.110931
C43   C     C_2   0.754407 0.437357 0.073896 -0.093685
C44   C     C_2   0.252153 0.395630 0.915190 -0.110934
C45   C     C_R   0.228530 0.879957 0.651007 0.550658
C46   C     C_R   0.772683 0.874793 0.351911 0.555309
C47   C     C_R   0.728510 0.379901 0.650965 0.550684
C48   C     C_R   0.272683 0.374791 0.351911 0.555290
C49   C     C_2   0.226449 0.021247 0.029063 -0.149231
C50   C     C_2   0.811495 0.913674 0.951162 -0.162916
C51   C     C_2   0.726449 0.521246 0.029063 -0.149234
C52   C     C_2   0.311495 0.413674 0.951162 -0.162917
C53   C     C_2   0.214737 0.000217 0.954123 -0.163634
C54   C     C_2   0.816635 0.888077 0.026801 -0.150569
C55   C     C_2   0.714737 0.500217 0.954123 -0.163633
C56   C     C_2   0.316635 0.388076 0.026801 -0.150568
C57   C     C_2   0.009816 0.654637 0.925711 -0.093045
C58   C     C_2   0.007908 0.665651 0.082616 -0.111463
C59   C     C_2   0.509816 0.154637 0.925711 -0.093047
C60   C     C_2   0.507907 0.165651 0.082616 -0.111460
C61   C     C_2   0.022853 0.566023 0.046030 -0.163363
C62   C     C_2   0.037178 0.570185 0.970406 -0.151339
C63   C     C_2   0.522853 0.066023 0.046030 -0.163362
C64   C     C_2   0.537178 0.070185 0.970406 -0.151339
C65   C     C_R   0.028328 0.657769 0.645666 0.536827
C66   C     C_R   0.971996 0.652518 0.354063 0.531056
C67   C     C_R   0.528323 0.157772 0.645670 0.536828
C68   C     C_R   0.471986 0.152518 0.354070 0.531068
C69   C     C_R   0.239364 0.463097 0.849723 0.554356
C70   C     C_R   0.762028 0.470819 0.147558 0.549724
C71   C     C_R   0.739364 0.963097 0.849723 0.554358
C72   C     C_R   0.262028 0.970820 0.147558 0.549696
C73   C     C_R   0.228324 0.874405 0.851961 0.554319
C74   C     C_R   0.774232 0.870255 0.145260 0.548545
C75   C     C_R   0.728324 0.374405 0.851961 0.554351
C76   C     C_R   0.274232 0.370255 0.145260 0.548541
C77   C     C_R   0.031449 0.651132 0.852136 0.551088
C78   C     C_R   0.971554 0.653333 0.149839 0.550485
C79   C     C_R   0.531449 0.151132 0.852136 0.551077
C80   C     C_R   0.471554 0.153333 0.149839 0.550494
C81   C     C_2   0.254605 0.936982 0.587422 -0.113131
C82   C     C_2   0.750057 0.920923 0.420112 -0.112608
C83   C     C_2   0.754561 0.436849 0.587340 -0.113120
C84   C     C_2   0.250057 0.420918 0.420114 -0.112639
C85   C     C_2   0.247815 0.895875 0.415128 -0.118295
C86   C     C_2   0.750198 0.916465 0.576389 -0.121320
C87   C     C_2   0.747818 0.395913 0.415165 -0.118405
C88   C     C_2   0.250199 0.416461 0.576390 -0.121348
C89   C     C_2   0.291501 0.917137 0.468376 -0.151665
C90   C     C_2   0.695537 0.883330 0.535703 -0.166931
C91   C     C_2   0.791646 0.416833 0.468351 -0.151955
C92   C     C_2   0.195539 0.383321 0.535705 -0.166938
Cr1   Cr    Cr6+3 0.113970 0.508630 0.747920 1.007181
Cr2   Cr    Cr6+3 0.886030 0.508630 0.252080 1.007452
Cr3   Cr    Cr6+3 0.613970 0.008630 0.747920 1.007181
Cr4   Cr    Cr6+3 0.386030 0.008630 0.252080 1.007456
Cr5   Cr    Cr6+3 0.269200 0.666740 0.749850 1.000272
Cr6   Cr    Cr6+3 0.730800 0.666740 0.250150 1.006892
Cr7   Cr    Cr6+3 0.769200 0.166740 0.749850 1.000304
Cr8   Cr    Cr6+3 0.230800 0.166740 0.250150 1.006867
Cr9   Cr    Cr6+3 0.112300 0.820070 0.749800 1.005497
Cr10  Cr    Cr6+3 0.887700 0.820070 0.250200 1.012733
Cr11  Cr    Cr6+3 0.612300 0.320070 0.749800 1.005506
Cr12  Cr    Cr6+3 0.387700 0.320070 0.250200 1.012741
H1    H     H_    0.332754 0.985201 0.463818 0.163902
H2    H     H_    0.642903 0.876650 0.557316 0.162800
H3    H     H_    0.833056 0.484602 0.463742 0.164129
H4    H     H_    0.142905 0.376639 0.557318 0.162819
H5    H     H_    0.168891 0.043315 0.930109 0.152141
H6    H     H_    0.869102 0.870105 0.047393 0.152176
H7    H     H_    0.668891 0.543315 0.930109 0.152141
H8    H     H_    0.369102 0.370104 0.047393 0.152175
H9    H     H_    0.275263 0.851296 0.056049 0.095887
H10   H     H_    0.708951 0.844779 0.938611 0.095292
H11   H     H_    0.775262 0.351296 0.056049 0.095888
H12   H     H_    0.208950 0.344780 0.938611 0.095292
H13   H     H_    0.302696 0.886596 0.940166 0.109473
H14   H     H_    0.708476 0.913961 0.052121 0.086267
H15   H     H_    0.802696 0.386596 0.940166 0.109471
H16   H     H_    0.208476 0.413962 0.052121 0.086266
H17   H     H_    0.020864 0.476179 0.070900 0.154308
H18   H     H_    0.068940 0.496033 0.950569 0.150545
H19   H     H_    0.520864 0.976179 0.070900 0.154309
H20   H     H_    0.568940 0.996033 0.950569 0.150546
H21   H     H_    0.013433 0.755937 0.058965 0.102441
H22   H     H_    0.978423 0.730190 0.944052 0.089021
H23   H     H_    0.513433 0.255937 0.058965 0.102441
H24   H     H_    0.478423 0.230191 0.944052 0.089020
H25   H     H_    0.274839 0.765976 0.542309 0.146884
H26   H     H_    0.674068 0.783268 0.438425 0.147050
H27   H     H_    0.775084 0.265800 0.542393 0.146975
H28   H     H_    0.174072 0.283257 0.438427 0.147049
H29   H     H_    0.202484 0.836921 0.421069 0.107665
H30   H     H_    0.802978 0.919510 0.554865 0.105783
H31   H     H_    0.702351 0.337295 0.421183 0.107941
H32   H     H_    0.302978 0.419509 0.554866 0.105790
H33   H     H_    0.247833 0.034313 0.578360 0.102837
H34   H     H_    0.778419 0.997624 0.441874 0.099384
H35   H     H_    0.747676 0.534132 0.578180 0.103000
H36   H     H_    0.278417 0.497620 0.441875 0.099358
H37   H     H_    0.103193 0.029225 0.410127 0.137516
H38   H     H_    0.090453 0.061822 0.537858 0.106636
H39   H     H_    0.603098 0.529289 0.410126 0.137430
H40   H     H_    0.590370 0.561878 0.537860 0.106604
H41   H     H_    0.061170 0.842520 0.356836 0.121090
H42   H     H_    0.026287 0.917739 0.611370 0.144760
H43   H     H_    0.561119 0.342546 0.356849 0.121128
H44   H     H_    0.526250 0.417755 0.611388 0.144741
H45   H     H_    0.015409 0.406403 0.397571 0.140248
H46   H     H_    0.923598 0.491041 0.635759 0.118720
H47   H     H_    0.515308 0.906371 0.397607 0.140237
H48   H     H_    0.423556 0.991124 0.635800 0.118650
H49   H     H_    0.206545 0.107082 0.048624 0.156056
H50   H     H_    0.856303 0.957927 0.926384 0.152146
H51   H     H_    0.706545 0.607082 0.048624 0.156055
H52   H     H_    0.356303 0.457926 0.926384 0.152145
O1    O     O_R   0.043230 0.549300 0.667990 -0.515921
O2    O     O_R   0.956770 0.549300 0.332010 -0.533621
O3    O     O_R   0.543230 0.049300 0.667990 -0.515910
O4    O     O_R   0.456770 0.049300 0.332010 -0.533600
O5    O     O_R   0.262920 0.788600 0.824420 -0.500773
O6    O     O_R   0.737080 0.788600 0.175580 -0.503066
O7    O     O_R   0.762920 0.288600 0.824420 -0.500751
O8    O     O_R   0.237080 0.288600 0.175580 -0.503065
O9    O     O_R   0.167530 0.905110 0.830340 -0.516727
O10   O     O_R   0.832470 0.905110 0.169660 -0.513517
O11   O     O_R   0.667530 0.405110 0.830340 -0.516711
O12   O     O_R   0.332470 0.405110 0.169660 -0.513517
O13   O     O_R   0.054010 0.748440 0.822860 -0.496988
O14   O     O_R   0.945990 0.748440 0.177140 -0.506996
O15   O     O_R   0.554010 0.248440 0.822860 -0.496993
O16   O     O_R   0.445990 0.248440 0.177140 -0.506991
O17   O     O_3   0.165160 0.665150 0.749190 -0.239664
O18   O     O_3   0.834840 0.665150 0.250810 -0.243851
O19   O     O_3   0.665160 0.165150 0.749190 -0.239679
O20   O     O_3   0.334840 0.165150 0.250810 -0.243844
O21   O     O_R   0.178620 0.457600 0.674100 -0.495919
O22   O     O_R   0.821380 0.457600 0.325900 -0.497937
O23   O     O_R   0.678620 0.957600 0.674100 -0.495917
O24   O     O_R   0.321380 0.957600 0.325900 -0.497942
O25   O     O_R   0.284680 0.542100 0.669460 -0.528582
O26   O     O_R   0.715320 0.542100 0.330540 -0.526900
O27   O     O_R   0.784680 0.042100 0.669460 -0.528590
O28   O     O_R   0.215320 0.042100 0.330540 -0.526909
O29   O     O_R   0.262860 0.790390 0.676650 -0.516463
O30   O     O_R   0.737140 0.790390 0.323350 -0.497893
O31   O     O_R   0.762860 0.290390 0.676650 -0.516439
O32   O     O_R   0.237140 0.290390 0.323350 -0.497888
O33   O     O_R   0.167460 0.907030 0.670940 -0.517311
O34   O     O_R   0.832540 0.907030 0.329060 -0.520743
O35   O     O_R   0.667460 0.407030 0.670940 -0.517321
O36   O     O_R   0.332540 0.407030 0.329060 -0.520764
O37   O     O_R   0.053950 0.750220 0.675100 -0.514243
O38   O     O_R   0.946050 0.750220 0.324900 -0.496316
O39   O     O_R   0.553950 0.250220 0.675100 -0.514252
O40   O     O_R   0.446050 0.250220 0.324900 -0.496327
O41   O     O_R   0.043300 0.547370 0.827390 -0.520384
O42   O     O_R   0.956700 0.547370 0.172610 -0.514084
O43   O     O_R   0.543300 0.047370 0.827390 -0.520388
O44   O     O_R   0.456700 0.047370 0.172610 -0.514077
O45   O     O_R   0.178690 0.455820 0.821860 -0.506212
O46   O     O_R   0.821310 0.455820 0.178140 -0.497200
O47   O     O_R   0.678690 0.955820 0.821860 -0.506210
O48   O     O_R   0.321310 0.955820 0.178140 -0.497220
O49   O     O_R   0.284750 0.540170 0.828860 -0.511610
O50   O     O_R   0.715250 0.540170 0.171140 -0.519627
O51   O     O_R   0.784750 0.040170 0.828860 -0.511610
O52   O     O_R   0.215250 0.040170 0.171140 -0.519641
C93   C     C_3   0.922301 0.253472 0.611228 -0.266298
C94   C     C_3   0.986320 0.202435 0.650423 -0.435816
H53   H     H_    0.026742 0.173058 0.612558 0.137937
H54   H     H_    0.009437 0.273080 0.684946 0.162186
H55   H     H_    0.970622 0.123256 0.684090 0.131886
H56   H     H_    0.887088 0.290718 0.651992 0.170496
H57   H     H_    0.892467 0.180202 0.584817 0.150195
C95   C     C_3   0.969578 0.204643 0.458875 -0.291476
C96   C     C_3   0.910171 0.187708 0.405434 -0.424200
H58   H     H_    0.858715 0.192975 0.432487 0.151741
H59   H     H_    0.912635 0.258093 0.362530 0.170478
H60   H     H_    0.914903 0.096741 0.381197 0.163644
H61   H     H_    0.020496 0.191952 0.431689 0.128306
H62   H     H_    0.965367 0.132093 0.499851 0.157969
C97   C     C_3   0.422213 0.753549 0.611285 -0.266243
C98   C     C_3   0.486241 0.702452 0.650439 -0.435871
H63   H     H_    0.526638 0.673058 0.612553 0.137920
H64   H     H_    0.509396 0.773071 0.684957 0.162167
H65   H     H_    0.470539 0.623277 0.684106 0.131908
H66   H     H_    0.387049 0.790832 0.652079 0.170508
H67   H     H_    0.392336 0.680313 0.584890 0.150331
C99   C     C_3   0.469426 0.704662 0.458927 -0.291477
C100  C     C_3   0.409963 0.687728 0.405555 -0.424253
H68   H     H_    0.358539 0.693028 0.432664 0.151651
H69   H     H_    0.412394 0.758095 0.362638 0.170571
H70   H     H_    0.414658 0.596748 0.381328 0.163684
H71   H     H_    0.520313 0.691948 0.431687 0.128315
H72   H     H_    0.465255 0.632126 0.499916 0.157965

loop_
_geom_bond_atom_site_label_1
_geom_bond_atom_site_label_2
_ccdc_geom_bond_type
C70   O46   A    
C7    C83   D    
Cr10  O14   S    
C6    C82   D    
C87   C91   D    
C20   H40   S    
Cr9   O17   S    
C35   C36   A    
C13   H41   S    
C6    H26   S    
C43   C51   D    
C98   H63   S    
Cr7   O31   S    
Cr8   O52   S    
C57   C62   D    
Cr12  O20   S    
C99   H71   S    
C96   H60   S    
Cr11  O11   S    
C75   O11   A    
C12   C23   A    
C51   H51   S    
C59   C64   D    
C93   H57   S    
Cr11  O39   S    
C60   C63   D    
Cr3   O3    S    
C32   C36   A    
C14   C21   A    
C49   H49   S    
Cr8   O32   S    
C46   O34   A    
C15   C19   A    
Cr9   O33   S    
C2    O26   A    
Cr6   O18   S    
C49   C53   S    
C9    C22   A    
Cr5   O29   S    
Cr3   O47   S    
Cr12  O36   S    
C29   C33   A    
C11   C24   A    
C78   O14   A    
C54   H6    S    
C17   H37   S    
Cr2   O22   S    
C79   O15   A    
Cr3   O19   S    
C9    C66   S    
C3    O23   A    
C71   O51   A    
C43   H11   S    
C29   H46   S    
C46   C82   S    
C33   C93   S    
C92   H4    S    
C39   C55   D    
C88   C92   D    
Cr9   O37   S    
C43   C70   S    
C40   C56   D    
C17   C18   A    
Cr8   O20   S    
C73   O5    A    
C23   C24   A    
C99   H72   S    
C8    C92   S    
C39   C75   S    
Cr1   O45   S    
C84   H36   S    
C96   H59   S    
Cr7   O27   S    
C72   O48   A    
C37   C53   D    
C44   C52   D    
C1    C88   S    
C5    H25   S    
Cr10  O10   S    
C21   C22   A    
C3    C86   S    
Cr11  O15   S    
C61   C62   S    
C1    O21   A    
C4    O24   A    
C67   O39   A    
Cr10  O38   S    
C41   C49   D    
Cr6   O6    S    
C86   H30   S    
C9    C26   A    
Cr4   O48   S    
C65   O37   A    
C10   C21   A    
C25   C29   A    
C69   O45   A    
Cr1   O1    S    
C12   C67   S    
C79   O43   A    
C30   C34   A    
C12   C27   A    
C27   C31   A    
Cr5   O25   S    
C87   H31   S    
C28   C32   A    
Cr5   O17   S    
C95   C96   S    
C88   H32   S    
C97   C98   S    
C72   O52   A    
C86   C90   D    
C59   C79   S    
C57   H22   S    
C74   O6    A    
Cr1   O21   S    
C97   H66   S    
C30   H45   S    
C4    C85   S    
C51   C55   S    
C25   C26   A    
C64   H20   S    
C4    O28   A    
C40   C76   S    
Cr7   O51   S    
Cr2   O42   S    
Cr6   O26   S    
C71   O47   A    
C42   H10   S    
Cr8   O8    S    
C8    H28   S    
Cr6   O30   S    
C35   C97   S    
Cr12  O12   S    
C5    C81   D    
C93   C94   S    
C38   C54   D    
C97   H67   S    
C18   H38   S    
C16   C20   A    
C7    C91   S    
C59   H24   S    
Cr11  O19   S    
C33   C34   A    
Cr12  O40   S    
Cr7   O19   S    
C2    C87   S    
C68   O40   A    
C36   C99   S    
C50   C54   S    
C46   O30   A    
Cr9   O13   S    
C66   O2    A    
C90   H2    S    
C42   C50   D    
C41   C72   S    
Cr2   O46   S    
C50   H50   S    
C10   C25   A    
C65   O1    A    
C15   C24   A    
C40   H16   S    
C73   O9    A    
Cr2   O18   S    
C26   C30   A    
C16   C23   A    
C85   C89   D    
C100  H69   S    
C6    C90   S    
C83   H35   S    
Cr7   O7    S    
C76   O8    A    
Cr11  O35   S    
C80   O16   A    
C52   H52   S    
C47   O31   A    
C68   O4    A    
C98   H65   S    
Cr12  O16   S    
C62   H18   S    
C11   C68   S    
C67   O3    A    
C38   C74   S    
C10   C65   S    
Cr3   O23   S    
Cr4   O44   S    
C77   O13   A    
C37   C73   S    
C60   C80   S    
C1    O25   A    
Cr4   O20   S    
C19   C20   A    
C55   H7    S    
C8    C84   D    
C69   O49   A    
C14   C18   A    
C60   H23   S    
C45   C81   S    
C61   H17   S    
C41   H9    S    
C47   C83   S    
C98   H64   S    
Cr2   O2    S    
C63   H19   S    
C48   O32   A    
Cr10  O18   S    
C70   O50   A    
C94   H55   S    
C2    O22   A    
C14   H42   S    
C94   H54   S    
C93   H56   S    
C13   C17   A    
C3    O27   A    
C16   H44   S    
Cr4   O24   S    
C57   C77   S    
Cr4   O4    S    
C96   H58   S    
C7    H27   S    
C82   H34   S    
C34   C95   S    
Cr9   O9    S    
C15   H43   S    
C31   H48   S    
C45   O29   A    
C32   H47   S    
C75   O7    A    
C11   C28   A    
C58   C61   D    
C39   H15   S    
Cr1   O41   S    
Cr1   O17   S    
C42   C71   S    
Cr10  O34   S    
C95   H61   S    
C13   C22   A    
C76   O12   A    
C100  H70   S    
C31   C35   A    
C47   O35   A    
C99   C100  S    
Cr8   O28   S    
C19   H39   S    
C48   O36   A    
C95   H62   S    
C58   C78   S    
C63   C64   S    
C38   H14   S    
C48   C84   S    
C74   O10   A    
C37   H13   S    
C44   H12   S    
C58   H21   S    
Cr3   O43   S    
C94   H53   S    
C89   H1    S    
C100  H68   S    
C81   H33   S    
C45   O33   A    
C44   C69   S    
Cr6   O50   S    
C53   H5    S    
C78   O42   A    
Cr5   O49   S    
C66   O38   A    
C77   O41   A    
C56   H8    S    
C5    C89   S    
C52   C56   S    
Cr5   O5    S    
C85   H29   S    
C27   C28   A    
C91   H3    S    
C80   O44   A    
