data_mof_unit_42529.cif
_audit_creation_date              2012-12-11T14:52:45-0500
_audit_creation_method            fapswitch 2.2
_symmetry_space_group_name_H-M    P1
_symmetry_Int_Tables_number       1
_space_group_crystal_system       triclinic
_cell_length_a                    18.899706
_cell_length_b                    10.878158
_cell_length_c                    18.716229
_cell_angle_alpha                 89.833206
_cell_angle_beta                  90.721555
_cell_angle_gamma                 89.991331
_cell_volume                      3847.62265818

loop_
_atom_site_label
_atom_site_type_symbol
_atom_type_description
_atom_site_fract_x
_atom_site_fract_y
_atom_site_fract_z
_atom_type_partial_charge
Br1   Br    Br    0.385044 0.445379 0.582614 -0.413373
Br2   Br    Br    0.785447 0.360125 0.387747 -0.487275
Br3   Br    Br    0.885045 0.945379 0.582614 -0.413373
Br4   Br    Br    0.285447 0.860125 0.387747 -0.487275
Br5   Br    Br    0.575753 0.591103 0.616883 -0.401257
Br6   Br    Br    0.572431 0.553248 0.444290 -0.386716
Br7   Br    Br    0.075753 0.091103 0.616883 -0.401257
Br8   Br    Br    0.072431 0.053248 0.444290 -0.386716
C1    C     C_R   0.289356 0.998426 0.861099 0.549855
C2    C     C_R   0.703279 0.511604 0.041850 -0.136105
C3    C     C_3   0.010148 0.327148 0.068942 0.052956
C4    C     C_R   0.796451 0.010691 0.958299 -0.137461
C5    C     C_R   0.203279 0.011604 0.041850 -0.136105
C6    C     C_R   0.285135 0.480845 0.029823 -0.138996
C7    C     C_R   0.714493 0.481813 0.970373 -0.139100
C8    C     C_R   0.785135 0.980846 0.029823 -0.138996
C9    C     C_R   0.214493 0.981812 0.970373 -0.139100
C10   C     C_R   0.223248 0.521191 0.063589 0.021883
C11   C     C_R   0.776387 0.521930 0.936446 0.022269
C12   C     C_R   0.723248 0.021191 0.063589 0.021883
C13   C     C_R   0.710425 0.998095 0.139027 0.555861
C14   C     C_R   0.276387 0.021930 0.936446 0.022269
C15   C     C_R   0.171184 0.583386 0.024232 -0.144907
C16   C     C_R   0.828478 0.584116 0.975614 -0.145842
C17   C     C_R   0.671184 0.083386 0.024232 -0.144907
C18   C     C_R   0.328478 0.084116 0.975614 -0.145842
C19   C     C_R   0.181798 0.610997 0.953500 -0.142631
C20   C     C_R   0.817966 0.611666 0.046301 -0.142288
C21   C     C_R   0.681798 0.110997 0.953500 -0.142630
C22   C     C_R   0.317966 0.111666 0.046301 -0.142288
C23   C     C_R   0.245237 0.578616 0.920350 0.031803
C24   C     C_R   0.789355 0.498426 0.861099 0.549855
C25   C     C_R   0.754592 0.579280 0.079624 0.034685
C26   C     C_R   0.745237 0.078616 0.920350 0.031803
C27   C     C_R   0.254592 0.079280 0.079624 0.034685
C28   C     C_R   0.545907 0.725771 0.555245 0.188106
C29   C     C_R   0.555861 0.716551 0.481667 0.166698
C30   C     C_R   0.045907 0.225771 0.555245 0.188106
C31   C     C_R   0.055861 0.216551 0.481667 0.166698
C32   C     C_R   0.547206 0.822606 0.437863 -0.008004
C33   C     C_R   0.514139 0.832352 0.583124 -0.004535
C34   C     C_R   0.047206 0.322606 0.437863 -0.008004
C35   C     C_R   0.210425 0.498095 0.139027 0.555861
C36   C     C_R   0.014139 0.332352 0.583124 -0.004535
C37   C     C_R   0.526286 0.933895 0.468993 -0.167799
C38   C     C_R   0.507762 0.937805 0.540496 -0.179343
C39   C     C_R   0.026286 0.433895 0.468993 -0.167799
C40   C     C_R   0.007762 0.437805 0.540496 -0.179343
C41   C     C_R   0.470749 0.821411 0.855445 0.538357
C42   C     C_R   0.529196 0.821635 0.144568 0.555389
C43   C     C_R   0.970749 0.321411 0.855445 0.538357
C44   C     C_R   0.029196 0.321636 0.144568 0.555389
C45   C     C_R   0.183620 0.605870 0.542654 -0.161821
C46   C     C_3   0.529253 0.725212 0.972078 -0.112268
C47   C     C_R   0.734402 0.704657 0.476703 -0.125505
C48   C     C_R   0.683620 0.105869 0.542654 -0.161821
C49   C     C_R   0.234402 0.204657 0.476703 -0.125505
C50   C     C_R   0.180731 0.607378 0.469875 -0.120361
C51   C     C_R   0.741570 0.685380 0.549078 -0.105895
C52   C     C_R   0.680731 0.107377 0.469875 -0.120361
C53   C     C_R   0.241570 0.185379 0.549078 -0.105895
C54   C     C_R   0.238348 0.565096 0.430661 0.023418
C55   C     C_R   0.758080 0.567963 0.572827 0.048666
C56   C     C_R   0.738348 0.065095 0.430662 0.023418
C57   C     C_3   0.470339 0.725784 0.028506 -0.110880
C58   C     C_R   0.258080 0.067963 0.572827 0.048666
C59   C     C_R   0.298464 0.518190 0.465422 -0.091017
C60   C     C_R   0.768929 0.469979 0.525509 -0.062009
C61   C     C_R   0.798464 0.018190 0.465422 -0.091018
C62   C     C_R   0.268930 0.969979 0.525509 -0.062010
C63   C     C_R   0.302662 0.519777 0.539215 0.139080
C64   C     C_R   0.763775 0.489988 0.452803 0.150993
C65   C     C_R   0.802662 0.019777 0.539215 0.139080
C66   C     C_R   0.263775 0.989988 0.452803 0.150993
C67   C     C_R   0.246690 0.573568 0.577596 0.014301
C68   C     C_3   0.029253 0.225212 0.972078 -0.112268
C69   C     C_R   0.745960 0.607363 0.429196 0.084900
C70   C     C_R   0.746690 0.073568 0.577596 0.014301
C71   C     C_R   0.245960 0.107363 0.429196 0.084901
C72   C     C_R   0.260104 0.634668 0.851306 0.529455
C73   C     C_R   0.739863 0.634920 0.148673 0.546413
C74   C     C_R   0.760104 0.134668 0.851306 0.529455
C75   C     C_R   0.239863 0.134920 0.148673 0.546413
C76   C     C_R   0.271583 0.045455 0.646108 0.571214
C77   C     C_R   0.726810 0.041951 0.356036 0.588446
C78   C     C_R   0.771583 0.545455 0.646108 0.571214
C79   C     C_3   0.970339 0.225784 0.028506 -0.110880
C80   C     C_R   0.226810 0.541951 0.356036 0.588445
C81   C     C_R   0.473729 0.823870 0.649185 0.569623
C82   C     C_R   0.561921 0.818402 0.360920 0.568735
C83   C     C_R   0.973729 0.323870 0.649185 0.569623
C84   C     C_R   0.061921 0.318402 0.360920 0.568735
C85   C     C_R   0.259015 0.631473 0.645738 0.556292
C86   C     C_R   0.740270 0.636006 0.355704 0.593908
C87   C     C_R   0.759015 0.131473 0.645738 0.556292
C88   C     C_R   0.240270 0.136006 0.355704 0.593908
C89   C     C_3   0.470809 0.928344 0.028191 -0.129261
C90   C     C_R   0.296451 0.510690 0.958299 -0.137461
C91   C     C_3   0.529446 0.927768 0.971189 -0.131355
C92   C     C_3   0.970809 0.428344 0.028191 -0.129261
C93   C     C_3   0.029446 0.427768 0.971189 -0.131355
C94   C     C_3   0.430367 0.827069 0.986629 -0.107156
C95   C     C_3   0.569562 0.826406 0.013351 -0.111853
C96   C     C_3   0.930367 0.327069 0.986629 -0.107156
C97   C     C_3   0.069561 0.326406 0.013351 -0.111853
C98   C     C_3   0.489785 0.826650 0.931050 0.055181
C99   C     C_3   0.510148 0.827148 0.068942 0.052956
C100  C     C_3   0.989785 0.326650 0.931050 0.055181
Cr1   Cr    Cr6+3 0.229630 0.835900 0.747350 1.061274
Cr2   Cr    Cr6+3 0.614200 0.677120 0.250660 1.076247
Cr3   Cr    Cr6+3 0.885800 0.177120 0.749340 1.093978
Cr4   Cr    Cr6+3 0.114200 0.177120 0.250660 1.076247
Cr5   Cr    Cr6+3 0.770370 0.835900 0.252650 1.037330
Cr6   Cr    Cr6+3 0.729630 0.335900 0.747350 1.061274
Cr7   Cr    Cr6+3 0.270370 0.335900 0.252650 1.037330
Cr8   Cr    Cr6+3 0.387410 0.989850 0.750850 1.038063
Cr9   Cr    Cr6+3 0.612590 0.989850 0.249150 1.038246
Cr10  Cr    Cr6+3 0.887410 0.489850 0.750850 1.038063
Cr11  Cr    Cr6+3 0.112590 0.489850 0.249150 1.038246
Cr12  Cr    Cr6+3 0.385800 0.677120 0.749340 1.093978
H1    H     H_    0.372861 0.825348 0.973937 0.115381
H2    H     H_    0.734147 0.760552 0.586111 0.139973
H3    H     H_    0.632249 0.139536 0.444652 0.170821
H4    H     H_    0.234147 0.260552 0.586111 0.139973
H5    H     H_    0.341168 0.477468 0.435491 0.182858
H6    H     H_    0.783964 0.379679 0.545206 0.144452
H7    H     H_    0.841168 0.977468 0.435491 0.182858
H8    H     H_    0.283964 0.879679 0.545206 0.144452
H9    H     H_    0.449590 0.010827 0.054845 0.114464
H10   H     H_    0.550900 0.009727 0.943945 0.112856
H11   H     H_    0.949590 0.510827 0.054845 0.114464
H12   H     H_    0.627068 0.824264 0.026037 0.113812
H13   H     H_    0.050901 0.509727 0.943945 0.112856
H14   H     H_    0.553800 0.642747 0.947864 0.126366
H15   H     H_    0.445492 0.643794 0.053204 0.126675
H16   H     H_    0.053800 0.142747 0.947864 0.126366
H17   H     H_    0.945492 0.143794 0.053204 0.126675
H18   H     H_    0.345965 0.485359 0.933824 0.132377
H19   H     H_    0.653782 0.486308 0.066443 0.132638
H20   H     H_    0.845965 0.985360 0.933824 0.132377
H21   H     H_    0.153782 0.986308 0.066443 0.132638
H22   H     H_    0.325468 0.430052 0.059026 0.132539
H23   H     H_    0.872861 0.325348 0.973937 0.115381
H24   H     H_    0.674127 0.431118 0.941346 0.133324
H25   H     H_    0.825468 0.930053 0.059026 0.132539
H26   H     H_    0.174127 0.931118 0.941346 0.133324
H27   H     H_    0.122114 0.612452 0.048320 0.135834
H28   H     H_    0.877552 0.613111 0.951424 0.136610
H29   H     H_    0.622114 0.112452 0.048320 0.135834
H30   H     H_    0.377552 0.113111 0.951424 0.136610
H31   H     H_    0.141074 0.663502 0.925917 0.131117
H32   H     H_    0.858736 0.664009 0.073725 0.131174
H33   H     H_    0.641074 0.163502 0.925917 0.131117
H34   H     H_    0.127068 0.324264 0.026037 0.113812
H35   H     H_    0.358736 0.164009 0.073725 0.131174
H36   H     H_    0.519686 0.016418 0.437129 0.162974
H37   H     H_    0.484747 0.021415 0.561251 0.166903
H38   H     H_    0.019686 0.516418 0.437129 0.162974
H39   H     H_    0.984747 0.521415 0.561251 0.166903
H40   H     H_    0.138506 0.641878 0.571059 0.169026
H41   H     H_    0.720030 0.795318 0.457329 0.103297
H42   H     H_    0.638506 0.141877 0.571059 0.169026
H43   H     H_    0.220030 0.295317 0.457329 0.103297
H44   H     H_    0.132249 0.639537 0.444651 0.170822
O1    O     O_R   0.214270 0.709000 0.827470 -0.536358
O2    O     O_R   0.543270 0.717630 0.330160 -0.442405
O3    O     O_R   0.956730 0.217630 0.669840 -0.431706
O4    O     O_R   0.043270 0.217630 0.330160 -0.442405
O5    O     O_R   0.320620 0.625640 0.672920 -0.451348
O6    O     O_R   0.679380 0.625640 0.327080 -0.472919
O7    O     O_R   0.820620 0.125640 0.672920 -0.451348
O8    O     O_R   0.179380 0.125640 0.327080 -0.472919
O9    O     O_3   0.334280 0.834290 0.749180 -0.292399
O10   O     O_3   0.665720 0.834290 0.250820 -0.316673
O11   O     O_3   0.834280 0.334290 0.749180 -0.292399
O12   O     O_R   0.785730 0.709000 0.172530 -0.531229
O13   O     O_3   0.165720 0.334290 0.250820 -0.316673
O14   O     O_R   0.236160 0.958490 0.823130 -0.495284
O15   O     O_R   0.763840 0.958490 0.176870 -0.492496
O16   O     O_R   0.736160 0.458490 0.823130 -0.495284
O17   O     O_R   0.263840 0.458490 0.176870 -0.492496
O18   O     O_R   0.332080 0.075470 0.831280 -0.511279
O19   O     O_R   0.667920 0.075470 0.168720 -0.502232
O20   O     O_R   0.832080 0.575470 0.831280 -0.511279
O21   O     O_R   0.167920 0.575470 0.168720 -0.502232
O22   O     O_R   0.446300 0.918110 0.826620 -0.525490
O23   O     O_R   0.714270 0.209000 0.827470 -0.536358
O24   O     O_R   0.553700 0.918110 0.173380 -0.516806
O25   O     O_R   0.946300 0.418110 0.826620 -0.525490
O26   O     O_R   0.053700 0.418110 0.173380 -0.516806
O27   O     O_R   0.457110 0.716200 0.831760 -0.511673
O28   O     O_R   0.542890 0.716200 0.168240 -0.512397
O29   O     O_R   0.957110 0.216200 0.831760 -0.511673
O30   O     O_R   0.042890 0.216200 0.168240 -0.512397
O31   O     O_R   0.320980 0.624310 0.823030 -0.506411
O32   O     O_R   0.679020 0.624310 0.176970 -0.502751
O33   O     O_R   0.820980 0.124310 0.823030 -0.506411
O34   O     O_R   0.285730 0.209000 0.172530 -0.531229
O35   O     O_R   0.179020 0.124310 0.176970 -0.502751
O36   O     O_R   0.213890 0.710430 0.665540 -0.517805
O37   O     O_R   0.786110 0.710430 0.334460 -0.513648
O38   O     O_R   0.713890 0.210430 0.665540 -0.517805
O39   O     O_R   0.286110 0.210430 0.334460 -0.513648
O40   O     O_R   0.235810 0.959820 0.673020 -0.464216
O41   O     O_R   0.764190 0.959820 0.326980 -0.506241
O42   O     O_R   0.735810 0.459820 0.673020 -0.464216
O43   O     O_R   0.264190 0.459820 0.326980 -0.506241
O44   O     O_R   0.331700 0.076900 0.669350 -0.497883
O45   O     O_R   0.445950 0.919440 0.676520 -0.514317
O46   O     O_R   0.668300 0.076900 0.330650 -0.505990
O47   O     O_R   0.831700 0.576900 0.669350 -0.497883
O48   O     O_R   0.168300 0.576900 0.330650 -0.505990
O49   O     O_R   0.554050 0.919440 0.323480 -0.502127
O50   O     O_R   0.945950 0.419440 0.676520 -0.514316
O51   O     O_R   0.054050 0.419440 0.323480 -0.502127
O52   O     O_R   0.456730 0.717630 0.669840 -0.431706

loop_
_geom_bond_atom_site_label_1
_geom_bond_atom_site_label_2
_ccdc_geom_bond_type
Cr9   O10   S    
C50   C54   A    
C91   C95   S    
C6    H22   S    
Cr11  O51   S    
C68   C97   S    
C47   C51   A    
C44   O26   A    
C49   C71   A    
C33   C81   S    
Cr11  O26   S    
C50   H44   S    
C77   O46   A    
C78   O42   A    
C68   H16   S    
C92   H11   S    
C77   O41   A    
C23   C72   S    
C46   C57   S    
C58   C62   A    
C37   C38   A    
C87   O38   A    
C7    C11   A    
C85   O5    A    
Cr11  O48   S    
Br1   C63   S    
C54   C59   A    
C90   H18   S    
C53   H4    S    
Cr3   O11   S    
C83   O3    A    
Cr9   O46   S    
C5    C27   A    
C83   O50   A    
Cr7   O43   S    
C2    C7    A    
C59   H5    S    
C30   C31   A    
C47   C69   A    
Cr10  O25   S    
Cr1   O9    S    
C1    C14   S    
C59   C63   A    
C12   C17   A    
C35   O21   A    
C46   H14   S    
Br5   C28   S    
C48   H42   S    
C69   C86   S    
C92   C96   S    
C48   C70   A    
C84   O51   A    
C17   H29   S    
C23   C90   A    
C49   C53   A    
C72   O31   A    
C84   O4    A    
C14   C18   A    
C1    O18   A    
C64   C69   A    
C89   C91   S    
Br3   C65   S    
C53   C58   A    
C41   O22   A    
C4    C8    A    
C3    C79   S    
C43   C100  S    
Cr8   O18   S    
C62   C66   A    
C33   C38   A    
Cr6   O38   S    
C61   C65   A    
C3    C44   S    
Br8   C31   S    
C5    H21   S    
C2    C25   A    
C94   H1    S    
C42   O28   A    
C95   H12   S    
Cr4   O35   S    
C34   C84   S    
C89   C94   S    
C43   O25   A    
C8    C12   A    
C3    C92   S    
C76   O40   A    
C93   C100  S    
C97   H34   S    
C42   O24   A    
C68   C100  S    
C82   O2    A    
C17   C21   A    
C28   C33   A    
C45   C67   A    
C57   C94   S    
C79   H17   S    
C65   C70   A    
Br2   C64   S    
C11   C24   S    
Cr1   O14   S    
Cr7   O17   S    
C6    C90   A    
C31   C34   A    
C15   C19   A    
Cr2   O10   S    
C93   C97   S    
C32   C37   A    
C40   H39   S    
Br6   C29   S    
Cr12  O31   S    
C46   C98   S    
C19   C23   A    
C10   C15   A    
C73   O12   A    
C46   C95   S    
C18   H30   S    
C85   O36   A    
C44   O30   A    
C78   O47   A    
C47   H41   S    
C74   O33   A    
C56   C77   S    
C16   H28   S    
Cr12  O27   S    
C37   H36   S    
C27   C75   S    
C81   O45   A    
Cr7   O34   S    
C56   C61   A    
C38   H37   S    
C54   C80   S    
C21   C26   A    
C35   O17   A    
Cr6   O23   S    
C48   C52   A    
Cr7   O39   S    
C8    H25   S    
C58   C76   S    
Cr5   O41   S    
C52   H3    S    
Cr11  O21   S    
C30   C36   A    
Cr8   O45   S    
Cr5   O10   S    
C76   O44   A    
C39   C40   A    
C49   H43   S    
C70   C87   S    
C60   C64   A    
C93   H13   S    
C4    H20   S    
C96   H23   S    
Cr10  O50   S    
C86   O37   A    
C57   H15   S    
C3    C97   S    
C75   O34   A    
Cr9   O49   S    
C68   C79   S    
Cr4   O30   S    
Cr7   O13   S    
C36   C83   S    
Cr1   O1    S    
Cr3   O29   S    
C81   O52   A    
Cr8   O9    S    
Cr6   O11   S    
Cr5   O15   S    
C25   C73   S    
C20   C25   A    
C18   C22   A    
Cr5   O37   S    
C66   C71   A    
Cr5   O12   S    
C55   C78   S    
C43   O29   A    
C42   C99   S    
C51   C55   A    
Cr3   O3    S    
C2    H19   S    
C80   O43   A    
C75   O35   A    
C29   C32   A    
C60   H6    S    
C72   O1    A    
C96   C100  S    
Cr11  O13   S    
C7    H24   S    
C67   C85   S    
C88   O39   A    
C21   H33   S    
C62   H8    S    
C13   O19   A    
C91   C98   S    
C55   C60   A    
C22   H35   S    
C45   H40   S    
C19   H31   S    
C91   H10   S    
Br4   C66   S    
C6    C10   A    
C24   O20   A    
Cr1   O40   S    
C16   C20   A    
Cr9   O24   S    
Cr10  O11   S    
C45   C50   A    
Cr9   O19   S    
C20   H32   S    
C41   C98   S    
C41   O27   A    
Cr10  O20   S    
Cr12  O52   S    
C22   C27   A    
Cr6   O16   S    
C9    C14   A    
C5    C9    A    
C74   O23   A    
C52   C56   A    
C32   C82   S    
C11   C16   A    
C89   H9    S    
C71   C88   S    
Cr10  O47   S    
C15   H27   S    
C10   C35   S    
C86   O6    A    
C73   O32   A    
C63   C67   A    
Cr2   O2    S    
Cr4   O8    S    
Cr8   O22   S    
C80   O48   A    
C51   H2    S    
Cr8   O44   S    
Cr2   O28   S    
C92   C93   S    
Br7   C30   S    
C57   C99   S    
C94   C98   S    
Cr2   O32   S    
Cr3   O7    S    
C34   C39   A    
Cr12  O5    S    
C9    H26   S    
C79   C96   S    
C89   C99   S    
Cr6   O42   S    
Cr12  O9    S    
C13   O15   A    
C12   C13   S    
C61   H7    S    
C28   C29   A    
C88   O8    A    
C24   O16   A    
Cr1   O36   S    
C95   C99   S    
C26   C74   S    
C87   O7    A    
C4    C26   A    
Cr2   O6    S    
C82   O49   A    
Cr3   O33   S    
C1    O14   A    
C36   C40   A    
Cr4   O13   S    
C39   H38   S    
Cr4   O4    S    
