data_mof_unit_18559.cif
_audit_creation_date              2012-12-10T19:04:42-0500
_audit_creation_method            fapswitch 2.2
_symmetry_space_group_name_H-M    P1
_symmetry_Int_Tables_number       1
_space_group_crystal_system       triclinic
_cell_length_a                    15.869443
_cell_length_b                    10.862888
_cell_length_c                    9.541188
_cell_angle_alpha                 90.016102
_cell_angle_beta                  90.066071
_cell_angle_gamma                 90.136891
_cell_volume                      1644.78029029

loop_
_atom_site_label
_atom_site_type_symbol
_atom_type_description
_atom_site_fract_x
_atom_site_fract_y
_atom_site_fract_z
_atom_type_partial_charge
C1    C     C_R   0.499615 0.262693 0.499841 0.802714
C2    C     C_3   0.082999 0.502545 0.500027 0.092001
C3    C     C_3   0.971965 0.596660 0.578880 -0.159649
C4    C     C_3   0.916858 0.501000 0.501732 0.117774
C5    C     C_3   0.028068 0.609535 0.445822 -0.272363
C6    C     C_3   0.972274 0.513690 0.371522 0.121280
C7    C     C_1   0.174635 0.501629 0.499718 -0.007314
C8    C     C_1   0.825263 0.500915 0.500956 -0.035247
C9    C     C_R   0.501120 0.062202 0.621176 0.081042
C10   C     C_R   0.498376 0.130100 0.498208 -0.088055
C11   C     C_R   0.494606 0.064483 0.370545 -0.223354
C12   C     C_R   0.339835 0.500059 0.499899 0.821474
C13   C     C_R   0.494790 0.935353 0.370591 -0.206542
C14   C     C_R   0.498837 0.869907 0.498294 -0.114123
C15   C     C_R   0.501485 0.938067 0.621201 0.125580
C16   C     C_3   0.509059 0.930256 0.776958 -0.041954
C17   C     C_3   0.507966 0.072506 0.776654 -0.524161
C18   C     C_R   0.541627 0.590091 0.073865 0.259451
C19   C     C_R   0.452465 0.418384 0.074315 -0.085557
C20   C     C_R   0.452363 0.418496 0.925412 -0.072428
C21   C     C_R   0.542083 0.589573 0.926290 0.255596
C22   C     C_3   0.634282 0.616633 0.920056 -0.562740
C23   C     C_R   0.499939 0.737315 0.499866 0.815078
C24   C     C_3   0.633823 0.617748 0.079702 -0.086642
C25   C     C_R   0.660139 0.500259 0.500105 0.828876
C26   C     C_3   0.972086 0.394139 0.556620 -0.284080
C27   C     C_3   0.027231 0.408422 0.424248 0.558695
C28   C     C_1   0.250160 0.500816 0.499718 -0.166417
C29   C     C_1   0.749765 0.500656 0.500405 -0.188434
C30   C     C_3   0.028616 0.490184 0.633224 -0.204674
Cu1   Cu    Cu3+1 0.500000 0.499980 0.640670 0.956216
Cu2   Cu    Cu3+1 0.500000 0.500020 0.359330 0.955740
H1    H     H_    0.569385 0.889121 0.812662 0.145202
H2    H     H_    0.450943 0.114513 0.824236 0.193002
H3    H     H_    0.568826 0.114215 0.809801 0.188825
H4    H     H_    0.415311 0.350717 0.130082 0.144680
H5    H     H_    0.415032 0.351058 0.869457 0.137782
H6    H     H_    0.671270 0.538757 0.876575 0.209565
H7    H     H_    0.647941 0.707145 0.870891 0.187396
H8    H     H_    0.672116 0.543331 0.127912 0.190557
H9    H     H_    0.948130 0.306994 0.602593 0.139639
H10   H     H_    0.051574 0.696816 0.399509 0.150024
H11   H     H_    0.947733 0.673825 0.643484 0.142134
H12   H     H_    0.053496 0.481520 0.741554 0.155414
H13   H     H_    0.491870 0.112150 0.270951 0.162403
H14   H     H_    0.492105 0.887572 0.271022 0.168338
N1    N     N_R   0.500530 0.500930 0.147930 -0.203451
N2    N     N_R   0.500530 0.500890 0.852020 -0.181464
O1    O     O_R   0.500000 0.319640 0.618810 -0.583728
O2    O     O_R   0.500010 0.319680 0.381230 -0.594294
O3    O     O_R   0.379070 0.499970 0.618770 -0.574284
O4    O     O_R   0.379080 0.500010 0.381190 -0.574059
O5    O     O_R   0.499990 0.680320 0.618770 -0.561527
O6    O     O_R   0.500000 0.680360 0.381190 -0.573292
O7    O     O_R   0.620920 0.499990 0.618810 -0.583345
O8    O     O_R   0.620930 0.500030 0.381230 -0.571655
O9    O     O_3   0.061868 0.314442 0.340173 -0.578960
C31   C     C_3   0.998539 0.228577 0.305636 -0.324024
H15   H     H_    0.943099 0.273332 0.255781 0.182513
H16   H     H_    0.978824 0.175432 0.399613 0.153594
H17   H     H_    0.024661 0.162142 0.228919 0.188630
N3    N     N_3   0.650723 0.739114 0.140499 -0.564215
H18   H     H_    0.614546 0.806331 0.089991 0.213230
H19   H     H_    0.714019 0.760345 0.121891 0.221576
N4    N     N_3   0.940195 0.524932 0.229060 -0.602613
H20   H     H_    0.992192 0.534708 0.162865 0.226721
H21   H     H_    0.906402 0.607245 0.223567 0.216212
N5    N     N_3   0.434687 0.874370 0.841781 -0.557808
H22   H     H_    0.379957 0.918426 0.806869 0.231332
H23   H     H_    0.438926 0.889153 0.949847 0.212164

loop_
_geom_bond_atom_site_label_1
_geom_bond_atom_site_label_2
_ccdc_geom_bond_type
C14   C23   S    
C15   C16   S    
C3    C30   S    
C4    C26   S    
C5    H10   S    
C23   O5    A    
N3    H18   S    
C16   N5    S    
C16   H1    S    
C18   C21   A    
C1    O2    A    
C19   C20   A    
C14   C15   A    
C25   O8    A    
C4    C8    S    
C2    C30   S    
C21   N2    A    
C3    H11   S    
C18   N1    A    
C3    C5    S    
C31   H17   S    
C26   C27   S    
C17   H2    S    
C24   H8    S    
C13   C14   A    
Cu1   O5    S    
C27   O9    S    
C20   H5    S    
C11   C13   A    
C30   H12   S    
O9    C31   S    
C20   N2    A    
C24   N3    S    
Cu1   O1    S    
C18   C24   S    
C8    C29   T    
Cu2   O6    S    
C12   O4    A    
C12   C28   S    
C26   C30   S    
C19   N1    A    
C19   H4    S    
C6    N4    S    
C2    C27   S    
C25   C29   S    
C5    C6    S    
Cu2   N1    S    
C22   C24   S    
C11   H13   S    
C2    C5    S    
C16   C17   S    
C10   C11   A    
C22   H7    S    
C31   H16   S    
C3    C4    S    
C22   H6    S    
C25   O7    A    
C12   O3    A    
C26   H9    S    
C23   O6    A    
C4    C6    S    
N4    H20   S    
C9    C10   A    
Cu1   N2    S    
C9    C17   S    
N5    H23   S    
C13   H14   S    
Cu2   O4    S    
N3    H19   S    
C17   H3    S    
C2    C7    S    
Cu1   O7    S    
C31   H15   S    
C21   C22   S    
C1    O1    A    
C1    C10   S    
Cu2   O8    S    
Cu1   Cu2   S    
Cu2   O2    S    
C7    C28   T    
C6    C27   S    
C9    C15   A    
Cu1   O3    S    
N5    H22   S    
N4    H21   S    
