data_mof_unit_63584.cif
_audit_creation_date              2012-12-10T19:57:34-0500
_audit_creation_method            fapswitch 2.2
_symmetry_space_group_name_H-M    P1
_symmetry_Int_Tables_number       1
_space_group_crystal_system       triclinic
_cell_length_a                    25.99954
_cell_length_b                    25.997975
_cell_length_c                    18.385639
_cell_angle_alpha                 90.000022
_cell_angle_beta                  135.004811
_cell_angle_gamma                 89.999983
_cell_volume                      8786.8345077

loop_
_atom_site_label
_atom_site_type_symbol
_atom_type_description
_atom_site_fract_x
_atom_site_fract_y
_atom_site_fract_z
_atom_type_partial_charge
C1    C     C_R   0.889918 0.750060 0.500073 0.806118
C2    C     C_R   0.889918 0.249940 0.500072 0.806163
C3    C     C_R   0.389919 0.250060 0.500073 0.806113
C4    C     C_R   0.389918 0.749940 0.500072 0.806163
C5    C     C_R   0.439848 0.784052 0.945923 -0.217427
C6    C     C_R   0.439891 0.215906 0.945923 -0.217416
C7    C     C_R   0.939840 0.284044 0.945923 -0.217429
C8    C     C_R   0.939892 0.715905 0.945923 -0.217417
C9    C     C_R   0.445077 0.750446 0.890982 -0.040020
C10   C     C_R   0.445086 0.249545 0.890982 -0.040005
C11   C     C_R   0.945075 0.250444 0.890982 -0.040024
C12   C     C_R   0.945086 0.749545 0.890982 -0.040003
C13   C     C_R   0.505104 0.718147 0.948143 0.022916
C14   C     C_R   0.505088 0.281868 0.948143 0.022905
C15   C     C_R   0.005107 0.218151 0.948143 0.022919
C16   C     C_R   0.005087 0.781869 0.948143 0.022904
C17   C     C_3   0.540991 0.676982 0.940531 -0.521442
C18   C     C_3   0.540914 0.323093 0.940531 -0.521432
C19   C     C_3   0.041006 0.176996 0.940531 -0.521445
C20   C     C_3   0.040912 0.823094 0.940531 -0.521431
C21   C     C_3   0.600255 0.677054 0.059042 0.509534
C22   C     C_3   0.600180 0.323019 0.059041 0.509487
C23   C     C_3   0.100270 0.177068 0.059042 0.509543
C24   C     C_3   0.100178 0.823020 0.059041 0.509488
C25   C     C_R   0.494662 0.781542 0.437426 0.022390
C26   C     C_R   0.494648 0.218472 0.437397 0.022398
C27   C     C_R   0.994662 0.281542 0.437426 0.022390
C28   C     C_R   0.994648 0.718471 0.437399 0.022399
C29   C     C_R   0.554986 0.749531 0.500904 -0.039562
C30   C     C_R   0.554993 0.250463 0.500918 -0.039569
C31   C     C_R   0.054986 0.249531 0.500904 -0.039562
C32   C     C_R   0.054992 0.750463 0.500916 -0.039569
C33   C     C_R   0.560495 0.716211 0.566878 -0.217674
C34   C     C_R   0.560528 0.283756 0.566945 -0.217686
C35   C     C_R   0.060494 0.216211 0.566877 -0.217674
C36   C     C_R   0.060526 0.783758 0.566940 -0.217684
C37   C     C_R   0.506443 0.716199 0.566895 -0.211149
C38   C     C_R   0.506477 0.283768 0.566963 -0.211133
C39   C     C_R   0.006443 0.216198 0.566895 -0.211150
C40   C     C_R   0.006475 0.783770 0.566958 -0.211134
C41   C     C_R   0.445960 0.749506 0.500935 -0.083931
C42   C     C_R   0.445967 0.250488 0.500948 -0.083960
C43   C     C_R   0.945960 0.249506 0.500935 -0.083931
C44   C     C_R   0.945967 0.750488 0.500947 -0.083958
C45   C     C_R   0.610209 0.749992 0.500100 0.812164
C46   C     C_R   0.610209 0.250008 0.500101 0.812168
C47   C     C_R   0.110209 0.249992 0.500100 0.812163
C48   C     C_R   0.110209 0.750008 0.500101 0.812168
C49   C     C_R   0.442783 0.781526 0.437472 0.046238
C50   C     C_R   0.442769 0.218488 0.437443 0.046241
C51   C     C_R   0.942783 0.281526 0.437472 0.046238
C52   C     C_R   0.942770 0.718487 0.437445 0.046243
C53   C     C_3   0.399062 0.822209 0.357146 0.508956
C54   C     C_3   0.399002 0.177851 0.357025 0.509011
C55   C     C_3   0.899063 0.322209 0.357146 0.508956
C56   C     C_3   0.899006 0.677846 0.357034 0.509002
C57   C     C_3   0.458324 0.822282 0.357164 -0.518469
C58   C     C_3   0.458263 0.177777 0.357043 -0.518484
C59   C     C_3   0.958324 0.322282 0.357164 -0.518470
C60   C     C_3   0.958267 0.677773 0.357051 -0.518480
C61   C     C_R   0.749951 0.525943 0.437104 0.105727
C62   C     C_R   0.749951 0.474057 0.437104 0.105787
C63   C     C_R   0.249951 0.025943 0.437104 0.105715
C64   C     C_R   0.249951 0.974057 0.437104 0.105785
C65   C     C_R   0.750041 0.554522 0.500940 -0.064036
C66   C     C_R   0.750041 0.445478 0.500940 -0.064033
C67   C     C_R   0.250041 0.054522 0.500940 -0.064036
C68   C     C_R   0.250041 0.945477 0.500940 -0.064031
C69   C     C_R   0.750144 0.527031 0.567333 -0.219826
C70   C     C_R   0.750144 0.472969 0.567333 -0.219832
C71   C     C_R   0.250145 0.027031 0.567333 -0.219825
C72   C     C_R   0.250145 0.972969 0.567333 -0.219833
C73   C     C_3   0.749790 0.470367 0.356094 -0.409557
C74   C     C_3   0.749790 0.529633 0.356094 -0.409446
C75   C     C_3   0.249790 0.970367 0.356093 -0.409560
C76   C     C_3   0.249790 0.029633 0.356093 -0.409430
C77   C     C_R   0.812804 0.974064 0.564124 0.128771
C78   C     C_R   0.812804 0.025936 0.564124 0.128770
C79   C     C_R   0.312805 0.474064 0.564129 0.128772
C80   C     C_R   0.312804 0.525936 0.564129 0.128771
C81   C     C_R   0.749070 0.945497 0.499002 -0.079713
C82   C     C_R   0.749070 0.054503 0.499002 -0.079712
C83   C     C_R   0.249070 0.445497 0.499000 -0.079713
C84   C     C_R   0.249070 0.554503 0.499000 -0.079712
C85   C     C_R   0.682776 0.972973 0.431238 -0.217476
C86   C     C_R   0.682776 0.027027 0.431238 -0.217475
C87   C     C_R   0.182775 0.472973 0.431227 -0.217476
C88   C     C_R   0.182776 0.527027 0.431227 -0.217475
C89   C     C_R   0.749948 0.889895 0.499949 0.805110
C90   C     C_R   0.749948 0.110105 0.499949 0.805106
C91   C     C_R   0.249948 0.389895 0.499949 0.805111
C92   C     C_R   0.249948 0.610105 0.499949 0.805106
C93   C     C_3   0.893627 0.029631 0.647206 -0.464397
C94   C     C_3   0.893627 0.970369 0.647206 -0.464404
C95   C     C_3   0.393627 0.529631 0.647226 -0.464398
C96   C     C_3   0.393627 0.470369 0.647226 -0.464404
C97   C     C_R   0.750027 0.610150 0.500074 0.811999
C98   C     C_R   0.750027 0.389850 0.500074 0.812038
C99   C     C_R   0.250027 0.110150 0.500074 0.811993
C100  C     C_R   0.250027 0.889850 0.500074 0.812037
C101  C     C_R   0.889863 0.750011 0.779749 0.812149
C102  C     C_R   0.889862 0.249988 0.779749 0.812153
C103  C     C_R   0.389863 0.250011 0.779749 0.812149
C104  C     C_R   0.389862 0.749988 0.779749 0.812153
C105  C     C_R   0.610094 0.750040 0.220262 0.806593
C106  C     C_R   0.610095 0.249959 0.220262 0.806653
C107  C     C_R   0.110094 0.250040 0.220262 0.806581
C108  C     C_R   0.110095 0.749959 0.220262 0.806654
C109  C     C_R   0.556976 0.718165 0.051946 0.046290
C110  C     C_R   0.556961 0.281850 0.051946 0.046262
C111  C     C_R   0.056980 0.218168 0.051946 0.046296
C112  C     C_R   0.056961 0.781850 0.051946 0.046260
C113  C     C_R   0.554069 0.750469 0.109045 -0.084435
C114  C     C_R   0.554079 0.249522 0.109045 -0.084388
C115  C     C_R   0.054068 0.250467 0.109045 -0.084444
C116  C     C_R   0.054080 0.749521 0.109045 -0.084387
C117  C     C_R   0.493882 0.784061 0.054036 -0.210002
C118  C     C_R   0.493926 0.215897 0.054036 -0.210023
C119  C     C_R   0.993874 0.284052 0.054036 -0.209998
C120  C     C_R   0.993927 0.715896 0.054036 -0.210023
H1    H     H_    0.488334 0.810268 0.093935 0.175549
H2    H     H_    0.488402 0.189666 0.093935 0.175552
H3    H     H_    0.988321 0.310255 0.093935 0.175549
H4    H     H_    0.988404 0.689665 0.093935 0.175551
H5    H     H_    0.490777 0.858333 0.387437 0.241001
H6    H     H_    0.490676 0.141709 0.387235 0.241010
H7    H     H_    0.990777 0.358333 0.387438 0.241002
H8    H     H_    0.990683 0.641707 0.387249 0.241010
H9    H     H_    0.439029 0.807584 0.284478 0.164799
H10   H     H_    0.438984 0.192516 0.284390 0.164796
H11   H     H_    0.939029 0.307584 0.284479 0.164797
H12   H     H_    0.938986 0.692509 0.284395 0.164796
H13   H     H_    0.750222 0.546997 0.619106 0.176284
H14   H     H_    0.750223 0.453003 0.619106 0.176286
H15   H     H_    0.250223 0.046997 0.619106 0.176284
H16   H     H_    0.250223 0.953003 0.619106 0.176286
H17   H     H_    0.698617 0.453265 0.283634 0.248894
H18   H     H_    0.698617 0.546735 0.283634 0.248888
H19   H     H_    0.198617 0.953265 0.283634 0.248894
H20   H     H_    0.198617 0.046735 0.283634 0.248885
H21   H     H_    0.631087 0.953003 0.378397 0.180506
H22   H     H_    0.631087 0.046997 0.378397 0.180507
H23   H     H_    0.131087 0.453003 0.378380 0.180505
H24   H     H_    0.131087 0.546997 0.378380 0.180505
H25   H     H_    0.913576 0.046728 0.718862 0.215081
H26   H     H_    0.913576 0.953272 0.718862 0.215072
H27   H     H_    0.413568 0.546728 0.718877 0.215079
H28   H     H_    0.413568 0.453272 0.718877 0.215071
H29   H     H_    0.916427 0.046735 0.619503 0.205750
H30   H     H_    0.916427 0.953264 0.619503 0.205753
H31   H     H_    0.416437 0.546735 0.619537 0.205752
H32   H     H_    0.416436 0.453265 0.619537 0.205756
H33   H     H_    0.394385 0.810254 0.905967 0.173943
H34   H     H_    0.394452 0.189680 0.905967 0.173946
H35   H     H_    0.894371 0.310241 0.905967 0.173943
H36   H     H_    0.894454 0.689679 0.905967 0.173945
H37   H     H_    0.508149 0.641093 0.905882 0.237333
H38   H     H_    0.508019 0.358959 0.905887 0.237318
H39   H     H_    0.008175 0.141103 0.905882 0.237337
H40   H     H_    0.008017 0.858959 0.905887 0.237318
H41   H     H_    0.654730 0.690111 0.094893 0.058900
H42   H     H_    0.654673 0.310015 0.094892 0.058937
H43   H     H_    0.154741 0.190136 0.094894 0.058890
H44   H     H_    0.154672 0.810018 0.094892 0.058939
O1    O     O_3   0.750030 0.750030 0.500000 -0.490343
O2    O     O_3   0.750030 0.249970 0.500000 -0.490339
O3    O     O_3   0.250030 0.250030 0.500000 -0.490344
O4    O     O_3   0.250030 0.749970 0.500000 -0.490339
O5    O     O_R   0.689310 0.865830 0.439290 -0.649302
O6    O     O_R   0.689310 0.134170 0.439290 -0.649305
O7    O     O_R   0.189310 0.365830 0.439290 -0.649300
O8    O     O_R   0.189310 0.634170 0.439290 -0.649304
O9    O     O_R   0.750020 0.634220 0.439270 -0.613781
O10   O     O_R   0.750020 0.365780 0.439270 -0.613781
O11   O     O_R   0.250020 0.134220 0.439270 -0.613781
O12   O     O_R   0.250020 0.865780 0.439270 -0.613780
O13   O     O_R   0.896170 0.780390 0.560700 -0.655356
O14   O     O_R   0.896170 0.219610 0.560700 -0.655354
O15   O     O_R   0.396170 0.280390 0.560700 -0.655357
O16   O     O_R   0.396170 0.719610 0.560700 -0.655354
O17   O     O_R   0.664610 0.719670 0.560740 -0.652765
O18   O     O_R   0.664610 0.280330 0.560740 -0.652774
O19   O     O_R   0.164610 0.219670 0.560740 -0.652766
O20   O     O_R   0.164610 0.780330 0.560740 -0.652773
O21   O     O_R   0.835440 0.719660 0.439260 -0.621887
O22   O     O_R   0.835440 0.280340 0.439260 -0.621932
O23   O     O_R   0.335440 0.219660 0.439260 -0.621881
O24   O     O_R   0.335440 0.780340 0.439260 -0.621932
O25   O     O_R   0.603880 0.780390 0.439300 -0.637164
O26   O     O_R   0.603880 0.219610 0.439300 -0.637153
O27   O     O_R   0.103880 0.280390 0.439300 -0.637164
O28   O     O_R   0.103880 0.719610 0.439300 -0.637153
O29   O     O_R   0.810750 0.865830 0.560720 -0.644368
O30   O     O_R   0.810750 0.134170 0.560720 -0.644370
O31   O     O_R   0.310750 0.365830 0.560720 -0.644368
O32   O     O_R   0.310750 0.634170 0.560720 -0.644370
O33   O     O_R   0.750030 0.634230 0.560720 -0.655164
O34   O     O_R   0.750030 0.365770 0.560720 -0.655160
O35   O     O_R   0.250030 0.134230 0.560720 -0.655164
O36   O     O_R   0.250030 0.865770 0.560720 -0.655160
O37   O     O_R   0.896190 0.780400 0.731600 -0.638231
O38   O     O_R   0.896190 0.219600 0.731600 -0.638221
O39   O     O_R   0.396190 0.280400 0.731600 -0.638232
O40   O     O_R   0.396190 0.719600 0.731600 -0.638223
O41   O     O_R   0.664570 0.719650 0.268390 -0.622538
O42   O     O_R   0.664570 0.280350 0.268390 -0.622586
O43   O     O_R   0.164570 0.219650 0.268390 -0.622529
O44   O     O_R   0.164570 0.780350 0.268390 -0.622587
O45   O     O_R   0.835480 0.719680 0.731610 -0.652517
O46   O     O_R   0.835480 0.280320 0.731610 -0.652525
O47   O     O_R   0.335480 0.219680 0.731610 -0.652516
O48   O     O_R   0.335480 0.780320 0.731610 -0.652524
O49   O     O_R   0.603860 0.780380 0.268400 -0.654521
O50   O     O_R   0.603860 0.219620 0.268400 -0.654519
O51   O     O_R   0.103860 0.280380 0.268400 -0.654522
O52   O     O_R   0.103860 0.719620 0.268400 -0.654519
Zn1   Zn    Zn3+2 0.663280 0.793400 0.413250 0.963132
Zn2   Zn    Zn3+2 0.663280 0.206600 0.413250 0.963147
Zn3   Zn    Zn3+2 0.163280 0.293400 0.413250 0.963130
Zn4   Zn    Zn3+2 0.163280 0.706600 0.413250 0.963147
Zn5   Zn    Zn3+2 0.836780 0.793410 0.586750 0.960600
Zn6   Zn    Zn3+2 0.836780 0.206590 0.586750 0.960612
Zn7   Zn    Zn3+2 0.336780 0.293410 0.586750 0.960599
Zn8   Zn    Zn3+2 0.336780 0.706590 0.586750 0.960611
Zn9   Zn    Zn3+2 0.750030 0.706650 0.586760 0.964979
Zn10  Zn    Zn3+2 0.750030 0.293350 0.586760 0.964985
Zn11  Zn    Zn3+2 0.250030 0.206650 0.586760 0.964977
Zn12  Zn    Zn3+2 0.250030 0.793350 0.586760 0.964985
Zn13  Zn    Zn3+2 0.750010 0.706640 0.413230 1.019009
Zn14  Zn    Zn3+2 0.750010 0.293360 0.413230 1.018966
Zn15  Zn    Zn3+2 0.250010 0.206640 0.413230 1.019016
Zn16  Zn    Zn3+2 0.250010 0.793360 0.413230 1.018965
H45   H     H_    0.344730 0.808761 0.284329 0.057845
H46   H     H_    0.344684 0.191339 0.284238 0.057831
H47   H     H_    0.844730 0.308762 0.284330 0.057844
H48   H     H_    0.844687 0.691331 0.284245 0.057830
H49   H     H_    0.800877 0.453264 0.385693 0.248922
H50   H     H_    0.800877 0.546736 0.385693 0.248920
H51   H     H_    0.300877 0.953264 0.385692 0.248923
H52   H     H_    0.300877 0.046736 0.385692 0.248921
H53   H     H_    0.560436 0.691293 0.906432 0.165498
H54   H     H_    0.560376 0.308837 0.906425 0.165509
H55   H     H_    0.060448 0.191318 0.906432 0.165494
H56   H     H_    0.060375 0.808839 0.906425 0.165510
F1    F     F_    0.600861 0.632159 0.100116 -0.632814
F2    F     F_    0.600722 0.367883 0.100120 -0.632865
F3    F     F_    0.100889 0.132168 0.100116 -0.632805
F4    F     F_    0.100719 0.867884 0.100120 -0.632866
H57   H     H_    0.606194 0.690241 0.618326 0.173677
H58   H     H_    0.606247 0.309706 0.618433 0.173673
H59   H     H_    0.106194 0.190241 0.618325 0.173677
H60   H     H_    0.106243 0.809710 0.618425 0.173673
H61   H     H_    0.512215 0.690217 0.618347 0.174493
H62   H     H_    0.512269 0.309730 0.618453 0.174492
H63   H     H_    0.012215 0.190217 0.618346 0.174494
H64   H     H_    0.012265 0.809733 0.618446 0.174492
F5    F     F_    0.397975 0.867309 0.396058 -0.631394
F6    F     F_    0.397864 0.132728 0.395834 -0.631341
F7    F     F_    0.897976 0.367309 0.396059 -0.631394
F8    F     F_    0.897873 0.632725 0.395852 -0.631347

loop_
_geom_bond_atom_site_label_1
_geom_bond_atom_site_label_2
_ccdc_geom_bond_type
C94   H26   S    
O5    Zn1   S    
C87   C88   A    
C3    C42   S    
O36   Zn12  S    
C93   C94   S    
C55   C59   S    
O42   Zn14  S    
O46   Zn10  S    
C73   C74   S    
C14   C18   S    
C75   H51   S    
C95   C96   S    
C24   C112  S    
O37   Zn5   S    
C108  C116  S    
C80   C84   A    
C87   H23   S    
O43   Zn15  S    
C119  H3    S    
O2    Zn6   S    
C1    O13   A    
C2    O22   A    
C45   O17   A    
C56   F8    S    
C77   C78   A    
C65   C69   A    
C15   C19   S    
C74   H18   S    
C15   C111  A    
C59   H11   S    
C50   C54   S    
C25   C57   S    
C106  C114  S    
C37   C41   A    
C3    O23   A    
C64   C68   A    
C105  C113  S    
C10   C103  S    
C31   C47   S    
O4    Zn8   S    
C38   C42   A    
C84   C92   S    
C26   C50   A    
C71   H15   S    
C22   H42   S    
C5    H33   S    
C72   H16   S    
C39   H63   S    
C4    C41   S    
C78   C93   S    
C59   H7    S    
C17   C21   S    
O12   Zn16  S    
C29   C33   A    
C77   C94   S    
C91   O31   A    
C20   H56   S    
C118  H2    S    
C41   C49   A    
O47   Zn11  S    
C9    C13   A    
C3    O15   A    
C55   F7    S    
C52   C56   S    
C11   C15   A    
C12   C16   A    
O25   Zn1   S    
C22   C110  S    
C7    C119  A    
C100  O12   A    
C13   C109  A    
C105  O41   A    
C98   O10   A    
C93   H25   S    
C111  C115  A    
C77   C81   A    
O31   Zn7   S    
C17   H37   S    
O41   Zn13  S    
O2    Zn2   S    
C40   C44   A    
C51   C55   S    
C61   C62   A    
O8    Zn4   S    
C108  O44   A    
O30   Zn6   S    
O23   Zn15  S    
C25   C49   A    
C44   C52   A    
O29   Zn5   S    
C21   H41   S    
C17   H53   S    
O2    Zn14  S    
C34   C38   A    
O40   Zn8   S    
O1    Zn13  S    
O2    Zn10  S    
C32   C48   S    
C60   H12   S    
C106  O42   A    
C24   H44   S    
O45   Zn9   S    
O38   Zn6   S    
C46   O26   A    
C96   H28   S    
O26   Zn2   S    
C70   H14   S    
O3    Zn3   S    
O10   Zn14  S    
O28   Zn4   S    
C27   C51   A    
C81   C85   A    
C7    C11   A    
C23   H43   S    
C76   H20   S    
C25   C29   A    
C106  O50   A    
C63   C67   A    
O1    Zn1   S    
O6    Zn2   S    
O11   Zn15  S    
C18   H54   S    
C98   O34   A    
O1    Zn5   S    
C86   H22   S    
C97   O33   A    
C56   H48   S    
C36   C40   A    
C62   C66   A    
C95   H27   S    
C79   C80   A    
C47   O19   A    
O50   Zn2   S    
C103  O47   A    
C101  O37   A    
C48   O20   A    
C30   C34   A    
C19   C23   S    
C102  O46   A    
C21   F1    S    
C89   O5    A    
C53   F5    S    
O17   Zn9   S    
C82   C86   A    
O16   Zn8   S    
C27   C31   A    
C33   C37   A    
C116  C120  A    
C29   C45   S    
C68   C72   A    
C5    C117  A    
C74   H50   S    
C35   C39   A    
C75   C76   S    
C68   C100  S    
C46   O18   A    
C5    C9    A    
C18   H38   S    
O51   Zn3   S    
O4    Zn16  S    
O20   Zn12  S    
O49   Zn1   S    
C28   C52   A    
C78   C82   A    
C1    C44   S    
O3    Zn11  S    
C16   C20   S    
C90   O30   A    
C28   C32   A    
C2    C43   S    
C8    C12   A    
C89   O29   A    
C67   C99   S    
C90   O6    A    
O1    Zn9   S    
C93   H29   S    
O39   Zn7   S    
C62   C73   S    
O32   Zn8   S    
O4    Zn4   S    
C80   C95   S    
C33   H57   S    
C109  C113  A    
C26   C58   S    
O3    Zn7   S    
C85   C86   A    
C114  C118  A    
C28   C60   S    
O9    Zn13  S    
O44   Zn16  S    
C113  C117  A    
C100  O36   A    
C104  O40   A    
C45   O25   A    
C38   H62   S    
C42   C50   A    
C58   H6    S    
C115  C119  A    
C91   O7    A    
C10   C14   A    
C54   F6    S    
C31   C35   A    
C24   F4    S    
C95   H31   S    
C105  O49   A    
C104  O48   A    
O19   Zn11  S    
C53   H45   S    
C112  C116  A    
C23   C111  S    
C16   C112  A    
C22   F2    S    
C54   C58   S    
C57   H9    S    
C14   C110  A    
C8    C120  A    
C110  C114  A    
O48   Zn12  S    
C69   H13   S    
C18   C22   S    
C107  O43   A    
O21   Zn13  S    
C30   C46   S    
O18   Zn10  S    
C84   C88   A    
C60   H8    S    
C55   H47   S    
C92   O32   A    
C107  O51   A    
C53   C57   S    
C83   C87   A    
O4    Zn12  S    
C39   C43   A    
C32   C36   A    
C47   O27   A    
O3    Zn15  S    
O22   Zn14  S    
C19   H55   S    
C61   C74   S    
C94   H30   S    
C83   C91   S    
C12   C101  S    
C37   H61   S    
C82   C90   S    
C13   C17   S    
C76   H52   S    
C19   H39   S    
C1    O21   A    
C66   C98   S    
C4    O16   A    
C92   O8    A    
C81   C89   S    
C79   C96   S    
C75   H19   S    
C73   H49   S    
C56   C60   S    
C57   H5    S    
C79   C83   A    
C6    H34   S    
C43   C51   A    
C66   C70   A    
C99   O11   A    
C73   H17   S    
C58   H10   S    
C9    C104  S    
C49   C53   S    
O27   Zn3   S    
C99   O35   A    
C36   H60   S    
C64   C75   S    
C88   H24   S    
C107  C115  S    
C11   C102  S    
C67   C71   A    
C108  O52   A    
C23   F3    S    
C69   C70   A    
C8    H36   S    
C103  O39   A    
C48   O28   A    
C97   O9    A    
C6    C10   A    
C65   C97   S    
C63   C64   A    
C40   H64   S    
C61   C65   A    
C85   H21   S    
C71   C72   A    
C7    H35   S    
C102  O38   A    
C101  O45   A    
C20   H40   S    
O15   Zn7   S    
C35   H59   S    
C34   H58   S    
C54   H46   S    
C63   C76   S    
O14   Zn6   S    
C27   C59   S    
C117  H1    S    
C2    O14   A    
O13   Zn5   S    
O24   Zn16  S    
O52   Zn4   S    
O35   Zn11  S    
O33   Zn9   S    
C20   C24   S    
O7    Zn3   S    
C4    O24   A    
O34   Zn10  S    
C6    C118  A    
C21   C109  S    
C120  H4    S    
C26   C30   A    
C96   H32   S    
