data_mof_unit_35499.cif
_audit_creation_date              2012-12-10T17:00:58-0500
_audit_creation_method            fapswitch 2.2
_symmetry_space_group_name_H-M    P1
_symmetry_Int_Tables_number       1
_space_group_crystal_system       triclinic
_cell_length_a                    21.811278
_cell_length_b                    21.811274
_cell_length_c                    30.237169
_cell_angle_alpha                 90.000031
_cell_angle_beta                  89.999964
_cell_angle_gamma                 89.64307
_cell_volume                      14384.5025273

loop_
_atom_site_label
_atom_site_type_symbol
_atom_type_description
_atom_site_fract_x
_atom_site_fract_y
_atom_site_fract_z
_atom_type_partial_charge
C1    C     C_R   0.499806 0.118963 0.500033 0.749820
C2    C     C_R   0.286407 0.352039 0.559324 0.315018
C3    C     C_R   0.000000 0.500000 0.414428 0.780861
C4    C     C_R   1.000000 0.500000 0.085572 0.780860
C5    C     C_R   0.500000 0.000000 0.085586 0.771173
C6    C     C_R   0.000000 0.500000 0.914414 0.771174
C7    C     C_R   0.500000 1.000000 0.914428 0.780861
C8    C     C_R   0.537963 0.039990 0.843163 -0.144343
C9    C     C_R   0.042062 0.463744 0.843109 -0.149305
C10   C     C_R   0.462037 0.960010 0.843163 -0.144343
C11   C     C_R   0.957938 0.536256 0.843109 -0.149305
C12   C     C_R   0.536258 0.957941 0.156890 -0.149307
C13   C     C_R   0.352305 0.716848 0.559697 0.312757
C14   C     C_R   0.039989 0.537964 0.156837 -0.144342
C15   C     C_R   0.463742 0.042060 0.156891 -0.149304
C16   C     C_R   0.960011 0.462036 0.156837 -0.144342
C17   C     C_R   0.037963 0.539990 0.343163 -0.144343
C18   C     C_R   0.542062 0.963745 0.343109 -0.149301
C19   C     C_R   0.962037 0.460010 0.343163 -0.144343
C20   C     C_R   0.457938 0.036256 0.343109 -0.149306
C21   C     C_R   0.036257 0.457939 0.656891 -0.149306
C22   C     C_R   0.539989 0.037964 0.656837 -0.144342
C23   C     C_R   0.963743 0.542061 0.656891 -0.149306
C24   C     C_R   0.713592 0.647960 0.559324 0.315018
C25   C     C_R   0.460010 0.962036 0.656837 -0.144342
C26   C     C_R   0.500000 1.000000 0.866106 -0.097751
C27   C     C_R   0.000000 0.500000 0.866066 -0.095929
C28   C     C_R   0.500000 0.000000 0.133934 -0.095925
C29   C     C_R   1.000000 0.500000 0.133894 -0.097751
C30   C     C_R   0.000000 0.500000 0.366106 -0.097751
C31   C     C_R   0.500000 0.000000 0.366066 -0.095931
C32   C     C_R   0.000000 0.500000 0.633934 -0.095926
C33   C     C_R   0.500000 0.000000 0.633894 -0.097751
C34   C     C_R   0.459389 0.961024 0.796683 0.102592
C35   C     C_R   0.647960 0.713592 0.440676 0.315021
C36   C     C_R   0.957344 0.537212 0.796600 0.100227
C37   C     C_R   0.540611 0.038976 0.796683 0.102592
C38   C     C_R   0.042656 0.462788 0.796600 0.100227
C39   C     C_R   0.462787 0.042655 0.203400 0.100227
C40   C     C_R   0.961024 0.459389 0.203317 0.102592
C41   C     C_R   0.537215 0.957346 0.203400 0.100227
C42   C     C_R   0.038976 0.540611 0.203317 0.102592
C43   C     C_R   0.959389 0.461023 0.296683 0.102592
C44   C     C_R   0.457344 0.037212 0.296600 0.100226
C45   C     C_R   0.040611 0.538976 0.296683 0.102592
C46   C     C_R   0.283152 0.647695 0.440303 0.312757
C47   C     C_R   0.542658 0.962790 0.296600 0.100229
C48   C     C_R   0.962787 0.542655 0.703400 0.100227
C49   C     C_R   0.461024 0.959389 0.703317 0.102592
C50   C     C_R   0.037213 0.457345 0.703400 0.100226
C51   C     C_R   0.538976 0.040611 0.703317 0.102592
C52   C     C_R   0.500000 0.000000 0.773295 0.024151
C53   C     C_R   0.000000 0.500000 0.773283 0.029067
C54   C     C_R   0.500001 0.000001 0.226717 0.029068
C55   C     C_R   1.000000 0.500000 0.226705 0.024151
C56   C     C_R   1.000000 0.500000 0.273295 0.024151
C57   C     C_R   0.352040 0.286407 0.440675 0.315016
C58   C     C_R   0.500001 0.000001 0.273283 0.029067
C59   C     C_R   0.000000 0.500000 0.726717 0.029068
C60   C     C_R   0.500000 0.000000 0.726705 0.024151
C61   C     C_R   0.418673 0.922430 0.773260 -0.101789
C62   C     C_R   0.916858 0.576338 0.773059 -0.106122
C63   C     C_R   0.581327 0.077570 0.773260 -0.101790
C64   C     C_R   0.083143 0.423662 0.773058 -0.106123
C65   C     C_R   0.423658 0.083139 0.226941 -0.106121
C66   C     C_R   0.922431 0.418672 0.226740 -0.101789
C67   C     C_R   0.576344 0.916863 0.226941 -0.106121
C68   C     C_R   0.716848 0.352305 0.440303 0.312757
C69   C     C_R   0.077569 0.581328 0.226740 -0.101790
C70   C     C_R   0.918673 0.422430 0.273260 -0.101790
C71   C     C_R   0.416857 0.076338 0.273058 -0.106123
C72   C     C_R   0.081327 0.577570 0.273260 -0.101790
C73   C     C_R   0.583145 0.923665 0.273058 -0.106125
C74   C     C_R   0.923659 0.583140 0.726942 -0.106122
C75   C     C_R   0.422431 0.918672 0.726740 -0.101789
C76   C     C_R   0.076342 0.416861 0.726941 -0.106121
C77   C     C_R   0.577569 0.081328 0.726740 -0.101790
C78   C     C_R   0.590601 0.189031 0.550609 -0.229582
C79   C     C_R   0.147695 0.783152 0.059697 0.312755
C80   C     C_R   0.190714 0.407441 0.549288 -0.264634
C81   C     C_R   0.409398 0.810969 0.550610 -0.229582
C82   C     C_R   0.809286 0.592559 0.549288 -0.264633
C83   C     C_R   0.592559 0.809286 0.450712 -0.264632
C84   C     C_R   0.189031 0.590602 0.449391 -0.229583
C85   C     C_R   0.407441 0.190714 0.450712 -0.264633
C86   C     C_R   0.810969 0.409398 0.449391 -0.229582
C87   C     C_R   0.090601 0.689031 0.050610 -0.229582
C88   C     C_R   0.690714 0.907441 0.049288 -0.264634
C89   C     C_R   0.909399 0.310969 0.050610 -0.229583
C90   C     C_R   0.786407 0.852039 0.059324 0.315018
C91   C     C_R   0.309286 0.092559 0.049288 -0.264633
C92   C     C_R   0.092559 0.309286 0.950712 -0.264634
C93   C     C_R   0.689031 0.090602 0.949391 -0.229583
C94   C     C_R   0.907441 0.690714 0.950712 -0.264634
C95   C     C_R   0.310969 0.909398 0.949391 -0.229583
C96   C     C_R   0.643057 0.219281 0.565901 0.402067
C97   C     C_R   0.222333 0.355496 0.564770 0.366227
C98   C     C_R   0.356943 0.780719 0.565901 0.402067
C99   C     C_R   0.777667 0.644503 0.564770 0.366229
C100  C     C_R   0.644503 0.777667 0.435229 0.366232
C101  C     C_R   0.852305 0.216848 0.059697 0.312756
C102  C     C_R   0.219281 0.643058 0.434100 0.402066
C103  C     C_R   0.355497 0.222332 0.435229 0.366230
C104  C     C_R   0.780719 0.356942 0.434099 0.402067
C105  C     C_R   0.143057 0.719281 0.065901 0.402068
C106  C     C_R   0.722333 0.855496 0.064770 0.366227
C107  C     C_R   0.856943 0.280719 0.065901 0.402068
C108  C     C_R   0.277667 0.144504 0.064770 0.366228
C109  C     C_R   0.144503 0.277667 0.935229 0.366231
C110  C     C_R   0.719281 0.143057 0.934099 0.402067
C111  C     C_R   0.855497 0.722332 0.935230 0.366230
C112  C     C_R   0.118963 0.499806 0.499967 0.749820
C113  C     C_R   0.213592 0.147961 0.059324 0.315019
C114  C     C_R   0.280719 0.856942 0.934100 0.402065
C115  C     C_2   0.371521 0.885844 0.796772 0.406092
C116  C     C_2   0.867175 0.610474 0.796039 0.386438
C117  C     C_2   0.628479 0.114156 0.796772 0.406092
C118  C     C_2   0.132825 0.389527 0.796038 0.386441
C119  C     C_2   0.389521 0.132821 0.203961 0.386433
C120  C     C_2   0.885845 0.371520 0.203228 0.406093
C121  C     C_2   0.610483 0.867183 0.203961 0.386427
C122  C     C_2   0.114155 0.628480 0.203228 0.406095
C123  C     C_2   0.871521 0.385844 0.296772 0.406093
C124  C     C_R   0.147960 0.213593 0.940676 0.315018
C125  C     C_2   0.367174 0.110473 0.296039 0.386441
C126  C     C_2   0.128479 0.614156 0.296772 0.406093
C127  C     C_2   0.632830 0.889532 0.296038 0.386447
C128  C     C_2   0.889522 0.632821 0.703961 0.386434
C129  C     C_2   0.385845 0.871520 0.703228 0.406092
C130  C     C_2   0.110479 0.367179 0.703961 0.386432
C131  C     C_2   0.614155 0.128480 0.703228 0.406093
C132  C     C_R   0.783152 0.147695 0.940303 0.312756
C133  C     C_R   0.852040 0.786407 0.940676 0.315019
C134  C     C_R   0.216848 0.852304 0.940303 0.312758
C135  C     C_R   0.599530 0.314207 0.538785 -0.270470
C136  C     C_R   0.316309 0.400612 0.538608 -0.277416
C137  C     C_R   0.400470 0.685793 0.538785 -0.270471
C138  C     C_R   0.683691 0.599388 0.538608 -0.277416
C139  C     C_R   0.599388 0.683691 0.461392 -0.277415
C140  C     C_R   0.500194 0.881037 0.500033 0.749820
C141  C     C_R   0.314207 0.599530 0.461215 -0.270469
C142  C     C_R   0.400612 0.316308 0.461392 -0.277415
C143  C     C_R   0.685793 0.400470 0.461215 -0.270470
C144  C     C_R   0.099530 0.814207 0.038785 -0.270471
C145  C     C_R   0.816309 0.900612 0.038608 -0.277415
C146  C     C_R   0.900470 0.185793 0.038785 -0.270470
C147  C     C_R   0.183691 0.099388 0.038608 -0.277416
C148  C     C_R   0.099388 0.183691 0.961392 -0.277415
C149  C     C_R   0.814207 0.099530 0.961215 -0.270469
C150  C     C_R   0.900612 0.816309 0.961392 -0.277415
C151  C     C_R   0.881037 0.500194 0.499967 0.749821
C152  C     C_R   0.185793 0.900469 0.961215 -0.270469
C153  C     C_R   0.548357 0.283091 0.521008 0.062467
C154  C     C_R   0.284035 0.451323 0.520612 0.060867
C155  C     C_R   0.451643 0.716909 0.521008 0.062468
C156  C     C_R   0.715965 0.548677 0.520612 0.060867
C157  C     C_R   0.548677 0.715965 0.479388 0.060868
C158  C     C_R   0.283091 0.548357 0.478992 0.062467
C159  C     C_R   0.451323 0.284035 0.479388 0.060868
C160  C     C_R   0.716909 0.451643 0.478992 0.062467
C161  C     C_R   0.048357 0.783091 0.021008 0.062467
C162  C     C_R   0.999806 0.618963 0.000033 0.749820
C163  C     C_R   0.784035 0.951323 0.020612 0.060867
C164  C     C_R   0.951643 0.216909 0.021008 0.062468
C165  C     C_R   0.215965 0.048677 0.020612 0.060868
C166  C     C_R   0.048676 0.215965 0.979388 0.060868
C167  C     C_R   0.783091 0.048357 0.978992 0.062468
C168  C     C_R   0.951323 0.784035 0.979388 0.060868
C169  C     C_R   0.216909 0.951643 0.978992 0.062467
C170  C     C_R   0.545907 0.218901 0.524019 0.039352
C171  C     C_R   0.219723 0.452923 0.523212 0.051854
C172  C     C_R   0.454093 0.781099 0.524019 0.039353
C173  C     C_R   0.618963 0.999805 0.999967 0.749820
C174  C     C_R   0.780277 0.547077 0.523212 0.051855
C175  C     C_R   0.547077 0.780277 0.476788 0.051855
C176  C     C_R   0.218901 0.545907 0.475981 0.039353
C177  C     C_R   0.452923 0.219723 0.476788 0.051855
C178  C     C_R   0.781099 0.454093 0.475981 0.039353
C179  C     C_R   0.045907 0.718901 0.024019 0.039353
C180  C     C_R   0.719723 0.952923 0.023212 0.051856
C181  C     C_R   0.954093 0.281099 0.024019 0.039353
C182  C     C_R   0.280277 0.047077 0.023212 0.051855
C183  C     C_R   0.047077 0.280277 0.976788 0.051856
C184  C     C_R   0.000194 0.381036 0.000033 0.749821
C185  C     C_R   0.718901 0.045907 0.975981 0.039352
C186  C     C_R   0.952923 0.719723 0.976788 0.051856
C187  C     C_R   0.281099 0.954093 0.975981 0.039352
C188  C     C_R   0.500066 0.315179 0.500054 -0.013120
C189  C     C_R   0.315179 0.500066 0.499946 -0.013120
C190  C     C_R   0.499934 0.684821 0.500054 -0.013120
C191  C     C_R   0.684821 0.499934 0.499946 -0.013121
C192  C     C_R   0.000066 0.815179 0.000054 -0.013120
C193  C     C_R   0.815179 0.000066 0.999946 -0.013121
C194  C     C_R   0.999934 0.184821 0.000054 -0.013120
C195  C     C_R   0.381037 0.000194 0.999967 0.749821
C196  C     C_R   0.184821 0.999934 0.999946 -0.013120
C197  C     C_R   0.499423 0.186610 0.500331 -0.068597
C198  C     C_R   0.186610 0.499423 0.499669 -0.068598
C199  C     C_R   0.500577 0.813390 0.500331 -0.068597
C200  C     C_R   0.813390 0.500577 0.499669 -0.068598
C201  C     C_R   0.999423 0.686609 0.000331 -0.068597
C202  C     C_R   0.686610 0.999423 0.999669 -0.068598
C203  C     C_R   0.000577 0.313390 0.000331 -0.068597
C204  C     C_R   0.313390 0.000577 0.999669 -0.068597
C205  C     C_R   0.381673 0.500273 0.499992 0.740091
C206  C     C_R   0.647695 0.283152 0.559697 0.312757
C207  C     C_R   0.499727 0.618327 0.500008 0.740090
C208  C     C_R   0.618327 0.499726 0.499992 0.740090
C209  C     C_R   0.500273 0.381673 0.500008 0.740091
C210  C     C_R   0.881673 0.000273 0.999992 0.740091
C211  C     C_R   0.999726 0.118327 0.000008 0.740090
C212  C     C_R   0.118327 0.999726 0.999992 0.740090
C213  C     C_R   0.000273 0.881673 0.000008 0.740091
C214  C     C_R   0.500000 0.000000 0.585572 0.780860
C215  C     C_R   0.000000 0.500000 0.585586 0.771174
C216  C     C_R   0.500000 1.000000 0.414414 0.771175
Cu1   Cu    Cu3+1 0.438180 0.000000 0.500000 1.125776
Cu2   Cu    Cu3+1 0.500000 0.500000 0.544440 1.055256
Cu3   Cu    Cu3+1 1.000000 0.000000 0.955560 1.055257
Cu4   Cu    Cu3+1 1.000000 0.000000 0.044440 1.055254
Cu5   Cu    Cu3+1 0.000000 0.561820 0.500000 1.125776
Cu6   Cu    Cu3+1 0.561820 0.000000 0.500000 1.125777
Cu7   Cu    Cu3+1 0.000000 0.438180 0.500000 1.125776
Cu8   Cu    Cu3+1 0.938180 0.500000 0.000000 1.125776
Cu9   Cu    Cu3+1 0.500000 0.061820 0.000000 1.125776
Cu10  Cu    Cu3+1 0.061820 0.500000 0.000000 1.125776
Cu11  Cu    Cu3+1 0.500000 0.938180 0.000000 1.125776
Cu12  Cu    Cu3+1 0.500000 0.500000 0.455560 1.055257
H1    H     H_    0.565545 0.071415 0.862248 0.196383
H2    H     H_    0.572415 0.934549 0.362171 0.187729
H3    H     H_    0.934455 0.428585 0.362248 0.196383
H4    H     H_    0.427586 0.065451 0.362171 0.187728
H5    H     H_    0.065454 0.427588 0.637829 0.187722
H6    H     H_    0.571414 0.065546 0.637752 0.196383
H7    H     H_    0.934546 0.572412 0.637829 0.187723
H8    H     H_    0.428586 0.934454 0.637752 0.196383
H9    H     H_    0.585627 0.141764 0.560068 0.198571
H10   H     H_    0.143181 0.411357 0.558362 0.196204
H11   H     H_    0.414373 0.858236 0.560068 0.198571
H12   H     H_    0.072414 0.434548 0.862171 0.187726
H13   H     H_    0.856819 0.588643 0.558362 0.196204
H14   H     H_    0.588642 0.856819 0.441638 0.196204
H15   H     H_    0.141764 0.585627 0.439932 0.198571
H16   H     H_    0.411358 0.143181 0.441638 0.196204
H17   H     H_    0.858236 0.414373 0.439932 0.198571
H18   H     H_    0.085626 0.641764 0.060068 0.198571
H19   H     H_    0.643181 0.911357 0.058362 0.196204
H20   H     H_    0.914373 0.358236 0.060068 0.198571
H21   H     H_    0.356819 0.088643 0.058362 0.196204
H22   H     H_    0.088642 0.356819 0.941638 0.196204
H23   H     H_    0.434455 0.928585 0.862248 0.196383
H24   H     H_    0.641764 0.085627 0.939932 0.198571
H25   H     H_    0.911358 0.643181 0.941638 0.196204
H26   H     H_    0.358236 0.914373 0.939932 0.198572
H27   H     H_    0.603589 0.363190 0.535238 0.180028
H28   H     H_    0.365423 0.397225 0.535505 0.182543
H29   H     H_    0.396411 0.636810 0.535239 0.180028
H30   H     H_    0.634576 0.602774 0.535506 0.182543
H31   H     H_    0.602774 0.634576 0.464494 0.182542
H32   H     H_    0.363190 0.603589 0.464762 0.180027
H33   H     H_    0.397226 0.365423 0.464494 0.182543
H34   H     H_    0.927586 0.565453 0.862171 0.187726
H35   H     H_    0.636810 0.396411 0.464762 0.180027
H36   H     H_    0.103589 0.863190 0.035238 0.180028
H37   H     H_    0.865424 0.897226 0.035506 0.182543
H38   H     H_    0.896411 0.136810 0.035238 0.180027
H39   H     H_    0.134576 0.102774 0.035506 0.182543
H40   H     H_    0.102774 0.134576 0.964494 0.182543
H41   H     H_    0.863190 0.103589 0.964762 0.180027
H42   H     H_    0.897226 0.865424 0.964494 0.182543
H43   H     H_    0.136810 0.896411 0.964762 0.180027
H44   H     H_    0.364652 0.838054 0.788274 0.119056
H45   H     H_    0.565456 0.927590 0.137829 0.187720
H46   H     H_    0.859895 0.658895 0.789541 0.103492
H47   H     H_    0.635347 0.161946 0.788275 0.119057
H48   H     H_    0.140106 0.341105 0.789540 0.103493
H49   H     H_    0.341099 0.140098 0.210458 0.103488
H50   H     H_    0.838055 0.364651 0.211726 0.119057
H51   H     H_    0.658906 0.859908 0.210456 0.103481
H52   H     H_    0.161945 0.635349 0.211726 0.119058
H53   H     H_    0.864653 0.338054 0.288274 0.119056
H54   H     H_    0.359894 0.158894 0.289541 0.103492
H55   H     H_    0.135347 0.661946 0.288274 0.119056
H56   H     H_    0.071414 0.565546 0.137752 0.196384
H57   H     H_    0.640115 0.841112 0.289538 0.103496
H58   H     H_    0.841100 0.640099 0.710458 0.103487
H59   H     H_    0.338055 0.864651 0.711726 0.119057
H60   H     H_    0.158901 0.359903 0.710457 0.103487
H61   H     H_    0.661945 0.135349 0.711726 0.119057
H62   H     H_    0.196858 0.175205 0.418684 0.394642
H63   H     H_    0.165094 0.800491 0.419808 0.392493
H64   H     H_    0.803142 0.824792 0.418681 0.394642
H65   H     H_    0.834907 0.199509 0.419808 0.392492
H66   H     H_    0.199510 0.834908 0.580191 0.392492
H67   H     H_    0.434544 0.072411 0.137829 0.187721
H68   H     H_    0.175205 0.196857 0.581314 0.394642
H69   H     H_    0.800490 0.165093 0.580192 0.392493
H70   H     H_    0.824794 0.803143 0.581316 0.394642
H71   H     H_    0.696857 0.675206 0.918684 0.394642
H72   H     H_    0.665092 0.300490 0.919809 0.392492
H73   H     H_    0.303142 0.324795 0.918684 0.394642
H74   H     H_    0.334906 0.699508 0.919808 0.392493
H75   H     H_    0.699510 0.334908 0.080192 0.392492
H76   H     H_    0.675209 0.696856 0.081315 0.394643
H77   H     H_    0.300489 0.665092 0.080192 0.392493
H78   H     H_    0.928586 0.434454 0.137752 0.196383
H79   H     H_    0.324794 0.303143 0.081315 0.394641
H80   H     H_    0.698161 0.320229 0.647005 0.360719
H81   H     H_    0.322667 0.301957 0.647487 0.355795
H82   H     H_    0.301839 0.679771 0.647006 0.360719
H83   H     H_    0.677334 0.698042 0.647488 0.355794
H84   H     H_    0.698044 0.677335 0.352512 0.355797
H85   H     H_    0.320228 0.698163 0.352995 0.360720
H86   H     H_    0.301962 0.322665 0.352512 0.355794
H87   H     H_    0.679772 0.301838 0.352995 0.360720
H88   H     H_    0.198158 0.820230 0.147006 0.360718
H89   H     H_    0.065545 0.571415 0.362248 0.196383
H90   H     H_    0.822667 0.801958 0.147488 0.355794
H91   H     H_    0.801840 0.179770 0.147006 0.360718
H92   H     H_    0.177334 0.198043 0.147488 0.355794
H93   H     H_    0.198043 0.177334 0.852512 0.355796
H94   H     H_    0.820228 0.198162 0.852995 0.360719
H95   H     H_    0.801957 0.822665 0.852512 0.355795
H96   H     H_    0.179773 0.801835 0.852995 0.360721
O1    O     O_R   0.447800 0.090110 0.500010 -0.566255
O2    O     O_R   0.590110 0.052200 0.000010 -0.568265
O3    O     O_3   0.311586 0.730943 0.936560 -0.410321
O4    O     O_2   0.790484 0.310133 0.137783 -0.250685
O5    O     O_2   0.811434 0.392807 0.085499 -0.288762
O6    O     O_3   0.730945 0.311588 0.063440 -0.410323
O7    O     O_2   0.693022 0.791147 0.137069 -0.256779
O8    O     O_2   0.611619 0.806994 0.082509 -0.247668
O9    O     O_3   0.697327 0.728410 0.064114 -0.406758
O10   O     O_2   0.209515 0.689867 0.137783 -0.250684
O11   O     O_2   0.188565 0.607193 0.085500 -0.288762
O12   O     O_3   0.269054 0.688411 0.063440 -0.410324
O13   O     O_R   0.052200 0.409890 0.000010 -0.566255
O14   O     O_2   0.306978 0.208850 0.137070 -0.256783
O15   O     O_2   0.388381 0.193006 0.082508 -0.247672
O16   O     O_3   0.302672 0.271591 0.064116 -0.406756
O17   O     O_2   0.764745 0.313679 0.545672 -0.181346
O18   O     O_2   0.698019 0.394132 0.574877 -0.325645
O19   O     O_3   0.733824 0.308968 0.628344 -0.417454
O20   O     O_2   0.321990 0.235851 0.545933 -0.185558
O21   O     O_2   0.398602 0.304579 0.576865 -0.317221
O22   O     O_3   0.312737 0.266392 0.628471 -0.419069
O23   O     O_2   0.235255 0.686321 0.545673 -0.181345
O24   O     O_R   0.409890 0.947800 0.000010 -0.568265
O25   O     O_2   0.301981 0.605868 0.574877 -0.325646
O26   O     O_3   0.266176 0.691032 0.628345 -0.417454
O27   O     O_2   0.678010 0.764149 0.545934 -0.185559
O28   O     O_2   0.601398 0.695421 0.576865 -0.317219
O29   O     O_3   0.687263 0.733608 0.628472 -0.419069
O30   O     O_2   0.764148 0.678009 0.454067 -0.185560
O31   O     O_2   0.695420 0.601398 0.423134 -0.317219
O32   O     O_3   0.733609 0.687264 0.371529 -0.419069
O33   O     O_2   0.313680 0.764745 0.454329 -0.181348
O34   O     O_2   0.394132 0.698019 0.425123 -0.325645
O35   O     O_R   0.947800 0.409890 0.999990 -0.568265
O36   O     O_3   0.308968 0.733826 0.371657 -0.417453
O37   O     O_2   0.235851 0.321988 0.454064 -0.185555
O38   O     O_2   0.304579 0.398602 0.423135 -0.317218
O39   O     O_3   0.266395 0.312737 0.371527 -0.419069
O40   O     O_2   0.686320 0.235255 0.454328 -0.181347
O41   O     O_2   0.605868 0.301981 0.425123 -0.325645
O42   O     O_3   0.691032 0.266175 0.371656 -0.417454
O43   O     O_2   0.264745 0.813678 0.045674 -0.181343
O44   O     O_2   0.198019 0.894132 0.074876 -0.325646
O45   O     O_3   0.233822 0.808970 0.128346 -0.417455
O46   O     O_R   0.590110 0.947800 0.999990 -0.566255
O47   O     O_2   0.821990 0.735851 0.045933 -0.185559
O48   O     O_2   0.898602 0.804579 0.076865 -0.317220
O49   O     O_3   0.812737 0.766392 0.128471 -0.419072
O50   O     O_2   0.735255 0.186321 0.045673 -0.181345
O51   O     O_2   0.801981 0.105868 0.074877 -0.325647
O52   O     O_3   0.766176 0.191031 0.128345 -0.417454
O53   O     O_2   0.178010 0.264149 0.045933 -0.185559
O54   O     O_2   0.101398 0.195421 0.076865 -0.317220
O55   O     O_3   0.187263 0.233608 0.128471 -0.419068
O56   O     O_2   0.264148 0.178010 0.954066 -0.185559
O57   O     O_R   0.052200 0.590110 0.999990 -0.568265
O58   O     O_2   0.195420 0.101398 0.923134 -0.317219
O59   O     O_3   0.233608 0.187264 0.871528 -0.419068
O60   O     O_2   0.813679 0.264745 0.954328 -0.181346
O61   O     O_2   0.894132 0.198019 0.925123 -0.325646
O62   O     O_3   0.808968 0.233825 0.871656 -0.417453
O63   O     O_2   0.735852 0.821990 0.954067 -0.185559
O64   O     O_2   0.804580 0.898602 0.923134 -0.317219
O65   O     O_3   0.766392 0.812736 0.871529 -0.419068
O66   O     O_2   0.186319 0.735255 0.954329 -0.181350
O67   O     O_2   0.105868 0.801981 0.925122 -0.325645
O68   O     O_R   0.409890 0.052200 0.999990 -0.566255
O69   O     O_3   0.191033 0.766173 0.871657 -0.417453
O70   O     O_R   0.447790 0.999910 0.564880 -0.563102
O71   O     O_R   0.999910 0.552210 0.564880 -0.559023
O72   O     O_R   0.552210 0.000090 0.564880 -0.563101
O73   O     O_R   0.090110 0.552200 0.500010 -0.568265
O74   O     O_R   0.000090 0.447790 0.564880 -0.559022
O75   O     O_R   0.447790 0.000090 0.435120 -0.559023
O76   O     O_R   0.999910 0.447790 0.435120 -0.563102
O77   O     O_R   0.552210 0.999910 0.435120 -0.559023
O78   O     O_R   0.000090 0.552210 0.435120 -0.563102
O79   O     O_R   0.947790 0.499910 0.064880 -0.563102
O80   O     O_R   0.499910 0.052210 0.064880 -0.559022
O81   O     O_R   0.052210 0.500090 0.064880 -0.563101
O82   O     O_R   0.500090 0.947790 0.064880 -0.559022
O83   O     O_R   0.947790 0.500090 0.935120 -0.559023
O84   O     O_R   0.552200 0.909890 0.500010 -0.566255
O85   O     O_R   0.499910 0.947790 0.935120 -0.563102
O86   O     O_R   0.052210 0.499910 0.935120 -0.559023
O87   O     O_R   0.500090 0.052210 0.935120 -0.563101
O88   O     O_R   0.409850 0.499950 0.462440 -0.566555
O89   O     O_R   0.499950 0.590150 0.462440 -0.569824
O90   O     O_R   0.590150 0.500050 0.462440 -0.566555
O91   O     O_R   0.500050 0.409850 0.462440 -0.569825
O92   O     O_R   0.409850 0.500050 0.537560 -0.569825
O93   O     O_R   0.499950 0.409850 0.537560 -0.566555
O94   O     O_R   0.590150 0.499950 0.537560 -0.569825
O95   O     O_R   0.909890 0.447800 0.500010 -0.568265
O96   O     O_R   0.500050 0.590150 0.537560 -0.566555
O97   O     O_R   0.909850 0.999950 0.962440 -0.566555
O98   O     O_R   0.999950 0.090150 0.962440 -0.569824
O99   O     O_R   0.090150 0.000050 0.962440 -0.566555
O100  O     O_R   0.000050 0.909850 0.962440 -0.569824
O101  O     O_R   0.909850 0.000050 0.037560 -0.569825
O102  O     O_R   0.999950 0.909850 0.037560 -0.566555
O103  O     O_R   0.090150 0.999950 0.037560 -0.569825
O104  O     O_R   0.000050 0.090150 0.037560 -0.566555
O105  O     O_2   0.337906 0.909853 0.824132 -0.502081
O106  O     O_R   0.447800 0.909890 0.499990 -0.568265
O107  O     O_2   0.831993 0.583631 0.820628 -0.434578
O108  O     O_2   0.662094 0.090147 0.824131 -0.502080
O109  O     O_2   0.168008 0.416369 0.820628 -0.434580
O110  O     O_2   0.416363 0.168005 0.179372 -0.434576
O111  O     O_2   0.909854 0.337905 0.175868 -0.502081
O112  O     O_2   0.583642 0.831997 0.179373 -0.434573
O113  O     O_2   0.090146 0.662095 0.175868 -0.502082
O114  O     O_2   0.837906 0.409853 0.324132 -0.502080
O115  O     O_2   0.331992 0.083630 0.320628 -0.434579
O116  O     O_2   0.162094 0.590147 0.324131 -0.502079
O117  O     O_R   0.090110 0.447800 0.499990 -0.566255
O118  O     O_2   0.668009 0.916375 0.320630 -0.434583
O119  O     O_2   0.916364 0.668005 0.679373 -0.434576
O120  O     O_2   0.409854 0.837905 0.675868 -0.502081
O121  O     O_2   0.083637 0.331995 0.679373 -0.434576
O122  O     O_2   0.590146 0.162095 0.675868 -0.502081
O123  O     O_2   0.291150 0.193021 0.362930 -0.256790
O124  O     O_2   0.306995 0.111618 0.417491 -0.247673
O125  O     O_3   0.228410 0.197326 0.435883 -0.406756
O126  O     O_2   0.189865 0.709515 0.362218 -0.250687
O127  O     O_2   0.107193 0.688568 0.414503 -0.288759
O128  O     O_R   0.552200 0.090110 0.499990 -0.568265
O129  O     O_3   0.188414 0.769056 0.436560 -0.410322
O130  O     O_2   0.708847 0.806980 0.362929 -0.256800
O131  O     O_2   0.693006 0.888381 0.417492 -0.247669
O132  O     O_3   0.771590 0.802671 0.435881 -0.406754
O133  O     O_2   0.810134 0.290484 0.362218 -0.250686
O134  O     O_2   0.892807 0.311433 0.414503 -0.288760
O135  O     O_3   0.811587 0.230944 0.436560 -0.410322
O136  O     O_2   0.290484 0.810134 0.637783 -0.250685
O137  O     O_2   0.311433 0.892807 0.585498 -0.288762
O138  O     O_3   0.230945 0.811587 0.563440 -0.410322
O139  O     O_R   0.909890 0.552200 0.499990 -0.566255
O140  O     O_2   0.193021 0.291149 0.637069 -0.256782
O141  O     O_2   0.111619 0.306994 0.582508 -0.247673
O142  O     O_3   0.197327 0.228409 0.564115 -0.406756
O143  O     O_2   0.709515 0.189866 0.637783 -0.250687
O144  O     O_2   0.688567 0.107193 0.585498 -0.288760
O145  O     O_3   0.769055 0.188413 0.563440 -0.410322
O146  O     O_2   0.806978 0.708850 0.637070 -0.256785
O147  O     O_2   0.888381 0.693006 0.582508 -0.247671
O148  O     O_3   0.802672 0.771590 0.564116 -0.406757
O149  O     O_2   0.791151 0.693021 0.862930 -0.256791
O150  O     O_R   0.947800 0.590110 0.000010 -0.566255
O151  O     O_2   0.806994 0.611619 0.917492 -0.247672
O152  O     O_3   0.728410 0.697328 0.935883 -0.406754
O153  O     O_2   0.689866 0.209516 0.862218 -0.250684
O154  O     O_2   0.607193 0.188567 0.914503 -0.288761
O155  O     O_3   0.688413 0.269055 0.936560 -0.410322
O156  O     O_2   0.208849 0.306979 0.862930 -0.256790
O157  O     O_2   0.193006 0.388381 0.917492 -0.247673
O158  O     O_3   0.271590 0.302672 0.935883 -0.406756
O159  O     O_2   0.310135 0.790484 0.862218 -0.250688
O160  O     O_2   0.392807 0.811431 0.914504 -0.288758
S1    S     S_3+6 0.295308 0.179117 0.411461 0.097723
S2    S     S_3+6 0.674338 0.202683 0.910322 0.091946
S3    S     S_3+6 0.204692 0.320883 0.911461 0.097724
S4    S     S_3+6 0.325662 0.797316 0.910322 0.091946
S5    S     S_3+6 0.797317 0.325662 0.089679 0.091946
S6    S     S_3+6 0.679118 0.795307 0.088538 0.097728
S7    S     S_3+6 0.202682 0.674338 0.089679 0.091946
S8    S     S_3+6 0.320882 0.204693 0.088538 0.097726
S9    S     S_3+6 0.712296 0.326661 0.576549 0.075954
S10   S     S_3+6 0.331676 0.288545 0.577091 0.073997
S11   S     S_3+6 0.287704 0.673339 0.576549 0.075955
S12   S     S_3+6 0.174338 0.702684 0.410322 0.091946
S13   S     S_3+6 0.668324 0.711455 0.577092 0.073998
S14   S     S_3+6 0.711455 0.668324 0.422908 0.073998
S15   S     S_3+6 0.326661 0.712296 0.423452 0.075955
S16   S     S_3+6 0.288546 0.331675 0.422907 0.073999
S17   S     S_3+6 0.673339 0.287704 0.423451 0.075954
S18   S     S_3+6 0.212295 0.826661 0.076549 0.075955
S19   S     S_3+6 0.831676 0.788545 0.077092 0.073995
S20   S     S_3+6 0.787704 0.173339 0.076549 0.075954
S21   S     S_3+6 0.168324 0.211455 0.077092 0.073998
S22   S     S_3+6 0.211455 0.168324 0.922908 0.073999
S23   S     S_3+6 0.704692 0.820883 0.411461 0.097723
S24   S     S_3+6 0.826661 0.212296 0.923452 0.075955
S25   S     S_3+6 0.788545 0.831676 0.922908 0.073998
S26   S     S_3+6 0.173339 0.787703 0.923452 0.075954
S27   S     S_3+6 0.825662 0.297316 0.410322 0.091946
S28   S     S_3+6 0.297317 0.825662 0.589679 0.091946
S29   S     S_3+6 0.179117 0.295307 0.588538 0.097725
S30   S     S_3+6 0.702683 0.174338 0.589679 0.091946
S31   S     S_3+6 0.820882 0.704692 0.588538 0.097725
S32   S     S_3+6 0.795308 0.679117 0.911461 0.097724

loop_
_geom_bond_atom_site_label_1
_geom_bond_atom_site_label_2
_ccdc_geom_bond_type
C112  O73   A    
C101  C107  A    
C71   C125  S    
C8    C26   A    
C99   S31   S    
C18   C47   A    
Cu12  O88   S    
C210  O101  A    
C24   S13   S    
C41   C67   A    
O44   S18   D    
O149  S32   D    
C50   C59   A    
O152  S32   S    
C144  C161  A    
C92   C109  A    
O45   S18   S    
C167  C185  A    
C94   C111  A    
C86   C178  A    
C64   C118  S    
C68   C143  A    
C131  O122  D    
C178  C200  A    
C36   C53   A    
C106  S6    S    
C116  O107  D    
C35   C139  A    
C22   H6    S    
C32   C215  S    
C112  C198  S    
C3    O76   A    
C82   C174  A    
C45   C56   A    
C78   C96   A    
C149  C167  A    
C61   C115  S    
O3    S4    S    
C68   S17   S    
O37   S16   D    
C102  S12   S    
C85   C103  A    
C93   C110  A    
O159  S4    D    
O61   S24   D    
C184  O13   A    
C115  O105  D    
C17   C30   A    
C39   C65   A    
O12   S7    S    
H96   O69   S    
C36   C62   A    
Cu2   Cu12  S    
C37   C63   A    
C206  S9    S    
C38   C64   A    
Cu9   O80   S    
C121  H51   S    
O127  S12   D    
Cu5   O73   S    
Cu11  O24   S    
C169  C187  A    
C130  H60   S    
C123  H53   S    
O27   S13   D    
O22   S10   S    
O133  S27   D    
C173  O46   A    
Cu3   O97   S    
C34   C61   A    
C89   C181  A    
C108  C113  A    
C108  S8    S    
C50   C76   A    
C42   C55   A    
C125  O115  D    
O20   S10   D    
C126  O116  D    
C213  O102  A    
C11   C27   A    
C40   C55   A    
C150  C168  A    
C126  H55   S    
C9    H12   S    
H65   O135  S    
C212  O99   A    
C49   C60   A    
C15   C39   A    
C104  S27   S    
O64   S25   D    
C35   S14   S    
C135  C206  A    
Cu8   O150  S    
H62   O125  S    
C154  C189  A    
C137  H29   S    
C83   C100  A    
O146  S31   D    
O156  S3    D    
H84   O32   S    
C205  O92   A    
Cu12  O90   S    
C127  O118  D    
Cu8   O79   S    
H66   O138  S    
Cu9   O68   S    
O16   S8    S    
C174  C200  A    
C122  O113  D    
H64   O132  S    
C160  C191  A    
C122  H52   S    
C12   H45   S    
C119  H49   S    
C119  O110  D    
C92   H22   S    
C90   C145  A    
C180  C202  A    
C168  C192  A    
C130  O121  D    
O58   S22   D    
O59   S22   S    
C24   C138  A    
O54   S21   D    
H91   O52   S    
C113  C147  A    
C66   C70   A    
C38   C53   A    
C63   C117  S    
C141  H32   S    
O17   S9    D    
H73   O158  S    
C85   H16   S    
Cu10  O13   S    
H82   O26   S    
H70   O148  S    
Cu4   O103  S    
C149  H41   S    
C196  C212  S    
C1    O128  A    
C139  C157  A    
O143  S30   D    
C91   C182  A    
O23   S11   D    
H81   O22   S    
C2    S10   S    
C18   C31   A    
Cu2   O93   S    
O148  S31   S    
C4    O79   A    
H79   O16   S    
C5    O82   A    
O158  S3    S    
C184  O35   A    
H94   O62   S    
C138  H30   S    
C103  S1    S    
C80   C97   A    
C84   C102  A    
C127  H57   S    
C214  O72   A    
C117  H47   S    
O138  S28   S    
C150  H42   S    
C118  H48   S    
C143  C160  A    
O142  S29   S    
C83   H14   S    
C6    O86   A    
C7    C26   S    
C57   C142  A    
O7    S6    D    
C162  O57   A    
H93   O59   S    
C117  O108  D    
C195  O24   A    
H95   O65   S    
C17   C45   A    
O55   S21   S    
Cu11  O82   S    
C164  C194  A    
C11   H34   S    
C39   C54   A    
C78   C170  A    
H87   O42   S    
C132  S24   S    
C77   C131  S    
C164  C181  A    
C147  C165  A    
Cu1   O75   S    
C76   C130  S    
O134  S27   D    
O10   S7    D    
C153  C170  A    
C49   C75   A    
C142  H33   S    
C121  O112  D    
C23   H7    S    
C211  O104  A    
Cu11  O46   S    
C177  C197  A    
Cu8   O83   S    
H88   O45   S    
C181  C203  A    
C67   C121  S    
C20   C44   A    
O135  S27   S    
O49   S19   S    
O124  S1    D    
C168  C186  A    
C131  H61   S    
Cu5   O139  S    
C118  O109  D    
C129  H59   S    
C7    O87   A    
C2    C97   A    
C3    O78   A    
C140  O106  A    
C129  O120  D    
C189  C205  S    
C37   C52   A    
C145  C163  A    
C213  O100  A    
C146  C164  A    
Cu10  O57   S    
C69   C72   A    
O51   S20   D    
H69   O145  S    
C8    H1    S    
C141  C158  A    
C87   C105  A    
O48   S19   D    
C98   S28   S    
C114  C134  A    
C97   S29   S    
C4    O81   A    
C175  C199  A    
C67   C73   A    
Cu11  O85   S    
O131  S23   D    
C86   H17   S    
Cu2   O92   S    
C51   C60   A    
C214  O70   A    
C14   C29   A    
C35   C100  A    
C192  C213  S    
C48   C59   A    
Cu1   O70   S    
H85   O36   S    
C110  S2    S    
C17   H89   S    
O21   S10   D    
H80   O19   S    
C1    C197  S    
C133  C150  A    
C166  C194  A    
H75   O6    S    
C176  C198  A    
Cu10  O81   S    
O34   S15   D    
C123  O114  D    
Cu1   O1    S    
Cu4   O101  S    
H77   O12   S    
C212  O103  A    
C87   C179  A    
C114  S4    S    
C19   C30   A    
C193  C210  S    
C69   C122  S    
Cu6   O128  S    
O144  S30   D    
C9    C38   A    
Cu9   Cu11  S    
O14   S8    D    
C205  O88   A    
O33   S15   D    
O30   S14   D    
Cu6   O84   S    
C156  C191  A    
C13   S11   S    
C190  C207  S    
C134  S26   S    
C133  S25   S    
C145  H37   S    
O151  S32   D    
O126  S12   D    
C173  O2    A    
C170  C197  A    
C25   C33   A    
C55   C56   A    
O145  S30   S    
C148  C166  A    
C82   C99   A    
C7    O85   A    
C142  C159  A    
Cu6   O77   S    
C95   C187  A    
Cu7   O76   S    
C124  C148  A    
C156  C174  A    
C12   C28   A    
C182  C204  A    
C165  C182  A    
C171  C198  A    
C151  O95   A    
C54   C58   A    
O136  S28   D    
O50   S20   D    
C81   C98   A    
C152  H43   S    
Cu3   O100  S    
C167  C193  A    
Cu8   O35   S    
O147  S31   D    
C157  C190  A    
H90   O49   S    
O56   S22   D    
O130  S23   D    
C21   H5    S    
C179  C201  A    
C25   H8    S    
C44   C58   A    
C163  C180  A    
C139  H31   S    
O153  S2    D    
C110  C132  A    
Cu5   O71   S    
Cu7   O95   S    
C46   C141  A    
C208  O90   A    
C4    C29   S    
C93   H24   S    
C86   C104  A    
C184  C203  S    
C40   C66   A    
C132  C149  A    
C208  O94   A    
C161  C192  A    
C151  C200  S    
C19   C43   A    
C88   C180  A    
C57   C103  A    
C57   S16   S    
C94   C186  A    
C47   C73   A    
C96   S30   S    
C94   H25   S    
O65   S25   S    
Cu3   Cu4   S    
C195  C204  S    
C14   H56   S    
C73   C127  S    
C101  S20   S    
C210  O97   A    
C81   H11   S    
C82   H13   S    
C72   C126  S    
C173  C202  S    
H76   O9    S    
C51   C77   A    
C12   C41   A    
C155  C190  A    
C48   C74   A    
C128  O119  D    
C136  C154  A    
C188  C209  S    
C134  C152  A    
C89   C107  A    
C195  O68   A    
C65   C119  S    
H72   O155  S    
O157  S3    D    
C95   H26   S    
O66   S26   D    
O137  S28   D    
Cu4   O104  S    
Cu1   O106  S    
C120  O111  D    
C78   H9    S    
C18   H2    S    
C143  H35   S    
C8    C37   A    
C109  S3    S    
C144  H36   S    
C165  C196  A    
O32   S14   S    
C9    C27   A    
Cu7   O74   S    
C91   H21   S    
Cu1   Cu6   S    
C140  O84   A    
O140  S29   D    
C91   C108  A    
C166  C183  A    
C68   C104  A    
O38   S16   D    
C33   C214  S    
O63   S25   D    
C153  C188  A    
O36   S15   S    
Cu3   O98   S    
C34   C52   A    
C79   C144  A    
C207  O96   A    
C23   C32   A    
C148  H40   S    
O31   S14   D    
C107  S5    S    
O11   S7    D    
C5    O80   A    
C152  C169  A    
C105  S7    S    
C15   C28   A    
C46   S15   S    
O43   S18   D    
C187  C204  A    
O129  S12   S    
C84   H15   S    
O67   S26   D    
C25   C49   A    
O28   S13   D    
C90   C106  A    
C79   S18   S    
O26   S11   S    
C186  C201  A    
C85   C177  A    
C62   C74   A    
O8    S6    D    
C80   C171  A    
C135  H27   S    
C84   C176  A    
Cu12  O89   S    
C47   C58   A    
C93   C185  A    
C185  C202  A    
C216  O77   A    
O19   S9    S    
C83   C175  A    
C24   C99   A    
C216  O75   A    
H71   O152  S    
O125  S1    S    
C90   S19   S    
O18   S9    D    
C162  O150  A    
C53   C59   A    
C61   C75   A    
C46   C102  A    
C15   H67   S    
C6    O83   A    
C11   C36   A    
C140  C199  S    
O25   S11   D    
H86   O39   S    
O132  S23   S    
C211  O98   A    
C163  C193  A    
H68   O142  S    
O4    S5    D    
C79   C105  A    
C44   C71   A    
C10   H23   S    
C81   C172  A    
C80   H10   S    
C13   C98   A    
C146  H38   S    
C194  C211  S    
O53   S21   D    
C70   C123  S    
C74   C128  S    
C111  S32   S    
Cu2   O96   S    
C137  C155  A    
C154  C171  A    
C52   C60   A    
O5    S5    D    
O69   S26   S    
O155  S2    S    
C14   C42   A    
C10   C26   A    
O41   S17   D    
Cu5   O78   S    
C66   C120  S    
C45   C72   A    
C159  C177  A    
C21   C50   A    
C155  C172  A    
C169  C196  A    
O47   S19   D    
C41   C54   A    
C21   C32   A    
C101  C146  A    
C162  C201  S    
C147  H39   S    
C16   H78   S    
C158  C189  A    
C20   H4    S    
C115  H44   S    
C111  C133  A    
C31   C216  S    
C151  O139  A    
C16   C29   A    
C65   C71   A    
C209  O93   A    
O40   S17   D    
C42   C69   A    
C2    C136  A    
C215  O71   A    
C13   C137  A    
C159  C188  A    
C207  O89   A    
C3    C30   S    
C62   C116  S    
C5    C28   S    
C88   C106  A    
C120  H50   S    
C6    C27   S    
O123  S1    D    
C100  S23   S    
C160  C178  A    
H83   O29   S    
C64   C76   A    
C10   C34   A    
C125  H54   S    
O6    S5    S    
C116  H46   S    
Cu12  O91   S    
H74   O3    S    
C157  C175  A    
O42   S17   S    
C158  C176  A    
C16   C40   A    
C43   C70   A    
C95   C114  A    
Cu9   O87   S    
C215  O74   A    
O39   S16   S    
C161  C179  A    
O60   S24   D    
O160  S4    D    
C113  S21   S    
H63   O129  S    
C87   H18   S    
C63   C77   A    
C138  C156  A    
C22   C33   A    
C124  S22   S    
C23   C48   A    
Cu9   O2    S    
C136  H28   S    
C96   C206  A    
C92   C183  A    
Cu8   Cu10  S    
Cu10  O86   S    
C109  C124  A    
C209  O91   A    
H92   O55   S    
Cu6   O72   S    
C135  C153  A    
C89   H20   S    
C183  C203  A    
C128  H58   S    
Cu5   Cu7   S    
C88   H19   S    
Cu7   O117  S    
Cu2   O94   S    
O141  S29   D    
Cu3   O99   S    
O9    S6    S    
C191  C208  S    
C172  C199  A    
O29   S13   S    
O62   S24   S    
C43   C56   A    
O15   S8    D    
O154  S2    D    
Cu4   O102  S    
C112  O117  A    
O52   S20   S    
C19   H3    S    
C1    O1    A    
C75   C129  S    
C22   C51   A    
C20   C31   A    
