data_mof_unit_66677.cif
_audit_creation_date              2012-12-11T18:47:33-0500
_audit_creation_method            fapswitch 2.2
_symmetry_space_group_name_H-M    P1
_symmetry_Int_Tables_number       1
_space_group_crystal_system       triclinic
_cell_length_a                    8.300648
_cell_length_b                    15.089105
_cell_length_c                    14.883309
_cell_angle_alpha                 98.651812
_cell_angle_beta                  96.891708
_cell_angle_gamma                 99.393747
_cell_volume                      1798.12211204

loop_
_atom_site_label
_atom_site_type_symbol
_atom_type_description
_atom_site_fract_x
_atom_site_fract_y
_atom_site_fract_z
_atom_type_partial_charge
Ba1   Ba    Ba6+2 0.844900 0.542440 0.457470 1.864736
Ba2   Ba    Ba6+2 0.344940 0.457640 0.542540 1.786613
C1    C     C_3   0.521948 0.819452 0.131436 0.016803
C2    C     C_R   0.114857 0.469596 0.202714 0.006314
C3    C     C_R   0.913014 0.486561 0.766591 -0.218481
C4    C     C_3   0.068245 0.719343 0.217161 0.477484
C5    C     C_R   0.815232 0.451390 0.827337 0.032007
C6    C     C_R   0.881345 0.458100 0.920111 -0.108548
C7    C     C_R   0.046657 0.503319 0.954512 0.029678
C8    C     C_R   0.139291 0.543552 0.891690 -0.031392
C9    C     C_R   0.124518 0.508582 0.047990 -0.010560
C10   C     C_R   0.297900 0.547687 0.074179 -0.106430
C11   C     C_R   0.383002 0.584993 0.006899 0.114436
C12   C     C_3   0.573999 0.780005 0.217133 0.460170
C13   C     C_R   0.298262 0.591614 0.923289 -0.001857
C14   C     C_R   0.035683 0.474500 0.115478 -0.192809
C15   C     C_R   0.286273 0.496719 0.222298 0.158857
C16   C     C_3   0.057869 0.735051 0.117690 0.346308
C17   C     C_R   0.074499 0.532100 0.796966 0.044424
C18   C     C_R   0.332917 0.823688 0.445704 -0.042188
C19   C     C_R   0.583581 0.792940 0.526903 -0.014686
C20   C     C_R   0.767068 0.232865 0.533221 -0.287787
C21   C     C_R   0.864909 0.175340 0.568134 0.014633
C22   C     C_R   0.799687 0.082799 0.562352 -0.125537
C23   C     C_3   0.336934 0.243259 0.250154 0.268510
C24   C     C_R   0.635685 0.045354 0.518975 0.031997
C25   C     C_R   0.540888 0.104617 0.479512 -0.027325
C26   C     C_R   0.564885 0.950405 0.509432 0.060148
C27   C     C_R   0.401379 0.917695 0.461307 -0.057540
C28   C     C_3   0.296437 0.739302 0.667717 0.331929
C29   C     C_R   0.311910 0.978737 0.425884 -0.058500
C30   C     C_R   0.380846 0.069283 0.433461 -0.029531
C31   C     C_R   0.651481 0.886208 0.544246 -0.149118
C32   C     C_R   0.430570 0.761962 0.471598 0.092533
C33   C     C_R   0.608517 0.198035 0.485634 -0.011794
C34   C     C_3   0.257990 0.150437 0.194153 -0.314999
C35   C     C_3   0.314301 0.843259 0.689982 0.273393
C36   C     C_3   0.916834 0.263449 0.341033 0.260810
C37   C     C_3   0.861997 0.160443 0.314240 -0.335417
C38   C     C_3   0.854662 0.790635 0.745656 0.608055
C39   C     C_3   0.790006 0.876173 0.781602 0.038778
C40   C     C_3   0.089172 0.281857 0.789698 0.406495
C41   C     C_3   0.068960 0.256455 0.883686 0.011924
C42   C     C_3   0.570835 0.219787 0.737823 0.319715
C43   C     C_3   0.520143 0.125220 0.761265 0.328150
C44   C     C_R   0.375687 0.545691 0.165163 -0.002465
Cl1   Cl    Cl    0.383007 0.886479 0.809255 -0.523639
Cl2   Cl    Cl    0.953906 0.751320 0.841189 -0.564451
Cl3   Cl    Cl    0.633056 0.115510 0.867890 -0.541886
Cl4   Cl    Cl    0.393786 0.455923 0.311595 -0.612323
Cl5   Cl    Cl    0.363991 0.645308 0.430298 -0.626792
Cl6   Cl    Cl    0.953117 0.825635 0.096460 -0.499622
H1    H     H_    0.404145 0.876144 0.650601 -0.087799
H2    H     H_    0.697917 0.891295 0.728755 0.010378
H3    H     H_    0.729924 0.866908 0.843159 0.196942
H4    H     H_    0.463941 0.754894 0.248377 -0.056767
H5    H     H_    0.247249 0.268655 0.291704 0.064810
H6    H     H_    0.360836 0.290177 0.200599 0.096029
H7    H     H_    0.233823 0.099926 0.240123 0.123815
H8    H     H_    0.139239 0.155047 0.153561 0.133699
H9    H     H_    0.341159 0.127664 0.145936 0.203966
H10   H     H_    0.443564 0.765549 0.078367 0.061027
H11   H     H_    0.182489 0.750380 0.099371 0.028394
H12   H     H_    0.195223 0.864054 0.669768 0.032042
H13   H     H_    0.186418 0.343627 0.798248 0.067922
H14   H     H_    0.970143 0.298791 0.761484 -0.168310
H15   H     H_    0.007415 0.306018 0.922742 0.029564
H16   H     H_    0.989801 0.188460 0.875544 0.173215
H17   H     H_    0.702918 0.229669 0.729122 -0.063341
H18   H     H_    0.494464 0.222212 0.671988 0.017613
H19   H     H_    0.544404 0.072632 0.706450 -0.021359
H20   H     H_    0.386193 0.112228 0.766210 0.132473
H21   H     H_    0.956256 0.670959 0.222883 0.073870
H22   H     H_    0.904849 0.448881 0.101348 0.130069
H23   H     H_    0.818554 0.293264 0.371183 0.019088
H24   H     H_    0.861748 0.479665 0.695003 0.058417
H25   H     H_    0.801926 0.425853 0.962640 0.106410
H26   H     H_    0.365921 0.629104 0.879374 0.142736
H27   H     H_    0.188142 0.957470 0.388938 0.133711
H28   H     H_    0.772751 0.906090 0.583930 0.062628
H29   H     H_    0.177564 0.687059 0.232079 -0.250148
H30   H     H_    0.818704 0.304319 0.537742 0.046729
H31   H     H_    0.881151 0.042004 0.590665 0.092908
H32   H     H_    0.304320 0.110806 0.402289 0.081944
H33   H     H_    0.994789 0.671615 0.070955 0.033659
H34   H     H_    0.029705 0.277845 0.392757 0.054998
H35   H     H_    0.419121 0.721868 0.663783 -0.007479
H36   H     H_    0.215136 0.714429 0.600667 -0.018892
H37   H     H_    0.743840 0.143933 0.266243 0.181615
H38   H     H_    0.844721 0.129079 0.375817 0.071477
H39   H     H_    0.957117 0.130277 0.280319 0.128720
H40   H     H_    0.949098 0.807701 0.701794 -0.000020
H41   H     H_    0.631965 0.845835 0.101437 0.205063
I1    I     I_    0.733380 0.887726 0.312594 -0.358234
I2    I     I_    0.988358 0.990712 0.816517 -0.237801
I3    I     I_    0.394381 0.931030 0.158509 -0.302013
I4    I     I_    0.299939 0.258346 0.965065 -0.315011
I5    I     I_    0.639538 0.613757 0.997685 -0.350057
O1    O     O_2   0.826460 0.445380 0.275370 -0.429614
O2    O     O_2   0.203825 0.176451 0.564041 -0.506618
O3    O     O_3   0.132187 0.209118 0.731925 -0.583176
O4    O     O_3   0.098920 0.448470 0.388920 -0.417998
O5    O     O_3   0.590770 0.611390 0.551120 -0.365433
O6    O     O_2   0.326540 0.275010 0.446300 -0.484302
O7    O     O_3   0.490004 0.238269 0.299935 -0.623656
O8    O     O_2   0.476626 0.449093 0.821812 -0.454599
O9    O     O_3   0.543889 0.286171 0.808597 -0.550762
O10   O     O_3   0.628660 0.613390 0.338240 -0.359802
O11   O     O_2   0.709415 0.546484 0.182097 -0.464830
O12   O     O_3   0.723466 0.720516 0.701267 -0.637435
O13   O     O_3   0.947764 0.299288 0.262132 -0.626800
O14   O     O_3   0.669159 0.713279 0.192924 -0.581017
O15   O     O_2   0.863170 0.725020 0.553760 -0.493259
O16   O     O_3   0.060910 0.661460 0.386100 -0.428653
O17   O     O_2   0.994593 0.823774 0.445595 -0.473671
O18   O     O_3   0.079032 0.801233 0.279102 -0.551721
O19   O     O_2   0.363260 0.554650 0.724690 -0.459093
O20   O     O_3   0.090800 0.551610 0.611090 -0.485235
O21   O     O_3   0.561050 0.386690 0.661770 -0.494688
O22   O     O_3   0.230524 0.700767 0.737932 -0.565732
O23   O     O_3   0.598950 0.388690 0.448890 -0.393467
O24   O     O_3   0.128800 0.338610 0.613910 -0.492283
P1    P     P_3+3 0.996570 0.418570 0.288410 1.074044
P2    P     P_3+3 0.693070 0.712070 0.580610 1.036743
P3    P     P_3+3 0.116163 0.778572 0.391253 1.041489
P4    P     P_3+3 0.193140 0.581510 0.711600 1.058189
P5    P     P_3+3 0.082248 0.222648 0.617475 0.960994
P6    P     P_3+3 0.589298 0.606178 0.218637 1.076466
P7    P     P_3+3 0.504325 0.273215 0.419791 1.002752
P8    P     P_3+3 0.600761 0.394601 0.780968 1.025248

loop_
_geom_bond_atom_site_label_1
_geom_bond_atom_site_label_2
_ccdc_geom_bond_type
C12   H4    S    
C43   H19   S    
O2    P5    D    
C34   H7    S    
Ba1   O1    S    
Ba2   O20   S    
C16   Cl6   S    
C5    C6    A    
C12   O14   S    
C20   C33   A    
C32   Cl5   S    
C23   H5    S    
C36   H34   S    
C14   H22   S    
C20   H30   S    
C21   P5    S    
C26   C27   A    
C22   H31   S    
C22   C24   A    
C8    C13   A    
C36   C37   S    
O22   P4    S    
C16   H11   S    
C1    H10   S    
C13   H26   S    
C19   C31   A    
Ba2   O4    S    
C11   I5    S    
O21   P8    S    
C38   Cl2   S    
Ba1   Ba2   S    
O24   P5    S    
C39   H3    S    
C5    P8    S    
O12   P2    S    
C41   H16   S    
C40   H13   S    
C21   C22   A    
C42   H18   S    
C1    I3    S    
Ba2   O6    S    
C35   Cl1   S    
O19   P4    D    
C33   P7    S    
C37   H38   S    
C36   H23   S    
C35   H1    S    
C4    H29   S    
C43   H20   S    
Ba1   O15   S    
O9    P8    S    
C4    C16   S    
O5    P2    S    
C37   H39   S    
Ba2   O19   S    
C18   C27   A    
Ba2   O24   S    
C30   H32   S    
C16   H33   S    
O13   P1    S    
C15   C44   A    
C10   C44   A    
C23   O7    S    
C3    C5    A    
O16   P3    S    
C6    C7    A    
O7    P7    S    
C19   C32   A    
Ba1   O10   S    
C25   C33   A    
O10   P6    S    
C28   C35   S    
C2    C14   A    
Ba1   P1    S    
Ba2   O23   S    
C9    C14   A    
O11   P6    D    
C29   C30   A    
C43   Cl3   S    
C8    C17   A    
C9    C10   A    
C24   C25   A    
C42   H17   S    
C1    H41   S    
C38   H40   S    
C7    C9    A    
C4    O18   S    
C1    C12   S    
C2    C15   A    
Ba2   P4    S    
C38   C39   S    
C26   C31   A    
O6    P7    D    
C11   C13   A    
C6    H25   S    
Ba1   O16   S    
C28   H36   S    
O4    P1    S    
C40   O3    S    
C35   H12   S    
C42   C43   S    
C4    H21   S    
O1    P1    D    
C23   H6    S    
C7    C8    A    
C42   O9    S    
C44   P6    S    
O8    P8    D    
Ba1   O5    S    
C25   C30   A    
C41   I4    S    
O23   P7    S    
C34   H8    S    
C15   Cl4   S    
C38   O12   S    
Ba2   O21   S    
C31   H28   S    
C29   H27   S    
C3    C17   A    
C17   P4    S    
C24   C26   A    
O17   P3    D    
O18   P3    S    
C3    H24   S    
C36   O13   S    
Ba1   P2    S    
C18   C32   A    
C18   P3    S    
C27   C29   A    
C39   I2    S    
O15   P2    D    
C28   O22   S    
Ba2   O5    S    
C19   P2    S    
O3    P5    S    
C12   I1    S    
Ba1   O20   S    
Ba1   O23   S    
C39   H2    S    
O14   P6    S    
C23   C34   S    
C10   C11   A    
C2    P1    S    
C41   H15   S    
C40   C41   S    
C40   H14   S    
C20   C21   A    
O20   P4    S    
C28   H35   S    
Ba1   O4    S    
C37   H37   S    
C34   H9    S    
