data_mof_unit_48414.cif
_audit_creation_date              2013-03-05T16:21:16-0500
_audit_creation_method            fapswitch 2.2
_symmetry_space_group_name_H-M    P1
_symmetry_Int_Tables_number       1
_space_group_crystal_system       triclinic
_cell_length_a                    23.374134
_cell_length_b                    29.436395
_cell_length_c                    8.3968
_cell_angle_alpha                 90.148753
_cell_angle_beta                  92.804494
_cell_angle_gamma                 89.923443
_cell_volume                      5770.4769887

loop_
_atom_site_label
_atom_site_type_symbol
_atom_site_description
_atom_site_fract_x
_atom_site_fract_y
_atom_site_fract_z
_atom_type_partial_charge
P1    P     P_3+3 0.880180 0.450420 0.058010 0.488525
P2    P     P_3+3 0.880180 0.549580 0.558010 0.467976
P3    P     P_3+3 0.380180 0.950420 0.058010 0.477311
P4    P     P_3+3 0.380180 0.049580 0.558010 0.488414
O1    O     O_2   0.885810 0.435270 0.885040 -0.335748
O2    O     O_2   0.885810 0.564730 0.385040 -0.320683
O3    O     O_2   0.385810 0.935270 0.885040 -0.333935
O4    O     O_2   0.385810 0.064730 0.385040 -0.323578
O5    O     O_3   0.933490 0.477290 0.133000 -0.382744
O6    O     O_3   0.933490 0.522710 0.633000 -0.367616
O7    O     O_3   0.433490 0.977290 0.133000 -0.387632
O8    O     O_3   0.433490 0.022710 0.633000 -0.370874
O9    O     O_3   0.980190 0.395350 0.639000 -0.366543
O10   O     O_3   0.980190 0.604650 0.139000 -0.333547
O11   O     O_3   0.480190 0.895350 0.639000 -0.369693
O12   O     O_3   0.480190 0.104650 0.139000 -0.327151
O13   O     O_2   0.882728 0.362294 0.735198 -0.309783
O14   O     O_2   0.883808 0.639259 0.246685 -0.296938
O15   O     O_2   0.382734 0.862302 0.735320 -0.314418
O16   O     O_2   0.383636 0.139146 0.245804 -0.290142
O17   O     O_3   0.819875 0.485693 0.049838 -0.605611
O18   O     O_3   0.820613 0.513641 0.547243 -0.575904
O19   O     O_3   0.319935 0.985748 0.049619 -0.605382
O20   O     O_3   0.320535 0.013729 0.547153 -0.582447
O21   O     O_3   0.958461 0.301351 0.665829 -0.459468
O22   O     O_3   0.959766 0.697701 0.164307 -0.451181
O23   O     O_3   0.458437 0.801352 0.665829 -0.468095
O24   O     O_3   0.459765 0.197704 0.165136 -0.438303
H1    H     H_    0.040219 0.326968 0.711159 0.174346
H2    H     H_    0.022475 0.680506 0.006317 0.086508
H3    H     H_    0.540190 0.826968 0.711234 0.169051
H4    H     H_    0.522786 0.180488 0.008032 0.092920
C1    C     C_3   0.042694 0.255745 0.661401 -0.937736
C2    C     C_3   0.032239 0.748846 0.087442 -0.966813
C3    C     C_3   0.542666 0.755750 0.661439 -0.932708
C4    C     C_3   0.532855 0.248653 0.090719 -0.942578
H5    H     H_    0.088706 0.256365 0.634692 0.227262
H6    H     H_    0.060032 0.739909 0.193748 0.295434
H7    H     H_    0.538225 0.746077 0.787474 0.287967
H8    H     H_    0.560133 0.239510 0.197765 0.303303
H9    H     H_    0.038307 0.246084 0.787474 0.290224
H10   H     H_    0.005842 0.779105 0.113348 0.263524
H11   H     H_    0.520319 0.729895 0.585102 0.265884
H12   H     H_    0.506621 0.279053 0.115971 0.269332
P5    P     P_3+3 0.119600 0.450040 0.631910 0.494192
P6    P     P_3+3 0.119600 0.549960 0.131910 0.504715
P7    P     P_3+3 0.619600 0.950040 0.631910 0.511989
P8    P     P_3+3 0.619600 0.049960 0.131910 0.507598
P9    P     P_3+3 0.069287 0.351571 0.078994 0.412036
P10   P     P_3+3 0.070150 0.648450 0.578709 0.518279
P11   P     P_3+3 0.569284 0.851568 0.079020 0.434484
P12   P     P_3+3 0.570107 0.148465 0.578738 0.527680
O25   O     O_2   0.113920 0.434910 0.804950 -0.324746
O26   O     O_2   0.113920 0.565090 0.304950 -0.326959
O27   O     O_2   0.613920 0.934910 0.804950 -0.326096
O28   O     O_2   0.613920 0.065090 0.304950 -0.323135
O29   O     O_3   0.019410 0.395290 0.051170 -0.333463
O30   O     O_3   0.019410 0.604710 0.551170 -0.285573
O31   O     O_3   0.519410 0.895290 0.051170 -0.344084
O32   O     O_3   0.519410 0.104710 0.551170 -0.279920
O33   O     O_2   0.112221 0.356969 0.945743 -0.382614
O34   O     O_2   0.119764 0.634048 0.474775 -0.337716
O35   O     O_2   0.612214 0.856954 0.945751 -0.385914
O36   O     O_2   0.619672 0.134179 0.474431 -0.328996
O37   O     O_3   0.177861 0.487316 0.642541 -0.503856
O38   O     O_3   0.178493 0.513190 0.140221 -0.483779
O39   O     O_3   0.677864 0.987314 0.642561 -0.510397
O40   O     O_3   0.678492 0.013190 0.140208 -0.475798
O41   O     O_3   0.034050 0.300221 0.030482 -0.570824
O42   O     O_3   0.044754 0.697682 0.478069 -0.530483
O43   O     O_3   0.534036 0.800219 0.030554 -0.577016
O44   O     O_3   0.544512 0.197714 0.478623 -0.518492
C5    C     C_3   0.993183 0.289232 0.143215 0.925785
C6    C     C_3   0.005763 0.722368 0.568660 0.900452
C7    C     C_3   0.493163 0.789248 0.143295 0.933481
C8    C     C_3   0.505564 0.222293 0.569686 0.848851
H13   H     H_    0.984925 0.317538 0.227294 -0.068830
H14   H     H_    0.014804 0.718021 0.698737 -0.815559
H15   H     H_    0.484923 0.817559 0.227373 -0.074562
H16   H     H_    0.514715 0.217859 0.699671 -1.165119
C9    C     C_3   0.013973 0.248217 0.241891 -1.115037
C10   C     C_3   0.011839 0.773078 0.530841 -0.973409
C11   C     C_3   0.513929 0.748228 0.241978 -1.145614
C12   C     C_3   0.511536 0.273030 0.532177 -0.948775
H17   H     H_    0.025995 0.219820 0.162911 0.302244
H18   H     H_    0.000292 0.779459 0.403200 0.281613
H19   H     H_    0.525914 0.719818 0.163009 0.304170
H20   H     H_    0.499640 0.279498 0.404797 0.289397
H21   H     H_    0.051261 0.257348 0.320730 0.244775
H22   H     H_    0.056205 0.785162 0.555653 0.248540
H23   H     H_    0.551234 0.757342 0.320777 0.249628
H24   H     H_    0.555955 0.285096 0.556151 0.253182
C13   C     C_3   0.164612 0.471981 0.210649 0.336163
C14   C     C_3   0.162502 0.528843 0.708971 0.420145
C15   C     C_3   0.664621 0.971986 0.210696 0.263780
C16   C     C_3   0.662498 0.028848 0.708927 0.435614
H25   H     H_    0.136977 0.477029 0.312564 0.115118
H26   H     H_    0.134747 0.524062 0.810594 0.092784
H27   H     H_    0.636983 0.977042 0.312602 0.127984
H28   H     H_    0.634735 0.024076 0.810538 0.086925
H29   H     H_    0.142479 0.449735 0.120215 0.149967
H30   H     H_    0.139913 0.549956 0.616388 0.141302
H31   H     H_    0.642493 0.949728 0.120290 0.162328
H32   H     H_    0.639917 0.049953 0.616306 0.137932
C17   C     C_3   0.220215 0.449426 0.271313 -0.645895
C18   C     C_3   0.217191 0.552839 0.768716 -0.739914
C19   C     C_3   0.720228 0.949445 0.271396 -0.617604
C20   C     C_3   0.717182 0.052849 0.768677 -0.744255
H33   H     H_    0.236721 0.466584 0.381973 0.267604
H34   H     H_    0.234115 0.536628 0.880382 0.288010
H35   H     H_    0.736732 0.966620 0.382025 0.265800
H36   H     H_    0.734096 0.036652 0.880378 0.287048
H37   H     H_    0.213267 0.412944 0.295670 0.173431
H38   H     H_    0.208926 0.589328 0.790773 0.185376
H39   H     H_    0.713287 0.912966 0.295818 0.169713
H40   H     H_    0.708915 0.089341 0.790676 0.189898
H41   H     H_    0.253355 0.452177 0.181723 0.286572
H42   H     H_    0.250592 0.550123 0.679883 0.293492
H43   H     H_    0.753366 0.952187 0.181798 0.284184
H44   H     H_    0.750592 0.050124 0.679872 0.292657
Ba1   Ba    Ba6+2 0.999920 0.467660 0.844980 1.223548
Ba2   Ba    Ba6+2 0.999920 0.532340 0.344980 1.180989
Ba3   Ba    Ba6+2 0.499920 0.967660 0.844980 1.395752
Ba4   Ba    Ba6+2 0.499920 0.032340 0.344980 1.152725
C21   C     C_3   0.833690 0.528062 0.988185 0.343870
C22   C     C_3   0.835991 0.470795 0.491552 0.281292
C23   C     C_3   0.333887 0.028160 0.988535 0.343664
C24   C     C_3   0.335882 0.970762 0.492513 0.310065
H45   H     H_    0.849118 0.523705 0.866733 0.054266
H46   H     H_    0.854223 0.474024 0.373133 0.060502
H47   H     H_    0.349549 0.023886 0.867308 0.051532
H48   H     H_    0.353672 0.973725 0.373439 0.049759
H49   H     H_    0.866878 0.545270 0.066070 0.116700
H50   H     H_    0.867392 0.454141 0.576212 0.143080
H51   H     H_    0.366945 0.045312 0.067003 0.115769
H52   H     H_    0.367609 0.954375 0.576901 0.134242
C25   C     C_3   0.779687 0.557462 0.978740 0.086713
C26   C     C_3   0.782000 0.441884 0.476040 0.109210
C27   C     C_3   0.279898 0.057575 0.978561 0.093435
C28   C     C_3   0.281978 0.941700 0.479608 0.098996
H53   H     H_    0.745736 0.540836 0.901204 0.065428
H54   H     H_    0.752135 0.458373 0.386067 0.048776
H55   H     H_    0.246148 0.041073 0.900005 0.064532
H56   H     H_    0.252003 0.957516 0.388356 0.048587
H57   H     H_    0.789235 0.589855 0.919284 0.049075
H58   H     H_    0.792520 0.407563 0.431790 0.039905
H59   H     H_    0.289623 0.090068 0.920019 0.046899
H60   H     H_    0.292625 0.907089 0.438301 0.037682
O45   O     O_3   0.066460 0.522600 0.056690 -0.385836
O46   O     O_3   0.066460 0.477400 0.556690 -0.380612
O47   O     O_3   0.566460 0.022600 0.056690 -0.382805
O48   O     O_3   0.566460 0.977400 0.556690 -0.384927
P13   P     P_3+3 0.926773 0.646056 0.115108 0.531002
P14   P     P_3+3 0.927886 0.353639 0.610902 0.441814
P15   P     P_3+3 0.426835 0.146097 0.114917 0.539133
P16   P     P_3+3 0.427871 0.853648 0.610970 0.448326
C29   C     C_3   0.016683 0.302418 0.631681 0.420265
C30   C     C_3   0.994147 0.709168 0.038249 0.438015
C31   C     C_3   0.516661 0.802423 0.631722 0.433523
C32   C     C_3   0.494566 0.209213 0.040017 0.439043
H61   H     H_    0.022329 0.311992 0.505566 0.037492
H62   H     H_    0.966640 0.719437 0.932760 0.057230
H63   H     H_    0.522320 0.812003 0.505619 0.031013
H64   H     H_    0.467362 0.219752 0.934292 0.061541
H65   H     H_    0.020320 0.229884 0.585148 0.268360
H66   H     H_    0.059782 0.756763 0.988166 0.215486
H67   H     H_    0.588689 0.756377 0.634861 0.223908
H68   H     H_    0.560965 0.256469 0.992610 0.214998
H69   H     H_    0.979587 0.236600 0.318863 0.273786
H70   H     H_    0.982735 0.793389 0.603705 0.247436
H71   H     H_    0.479539 0.736636 0.318981 0.278678
H72   H     H_    0.482632 0.293289 0.605804 0.254315
C33   C     C_R   0.746361 0.295227 0.018479 0.031200
C34   C     C_R   0.749464 0.704995 0.507693 0.133355
C35   C     C_R   0.246349 0.795230 0.018602 0.006175
C36   C     C_R   0.249455 0.204989 0.507659 0.115349
C37   C     C_R   0.757888 0.333143 0.922981 -0.160324
C38   C     C_R   0.756323 0.663348 0.426079 -0.162119
C39   C     C_R   0.257893 0.833132 0.923055 -0.157581
C40   C     C_R   0.256182 0.163276 0.426310 -0.140171
C41   C     C_R   0.166079 0.766646 0.837084 0.547925
C42   C     C_R   0.181681 0.239655 0.296586 0.637148
C43   C     C_R   0.666077 0.266634 0.836950 0.557297
C44   C     C_R   0.681665 0.739637 0.296668 0.640377
C45   C     C_R   0.205977 0.760947 0.968734 -0.065931
C46   C     C_R   0.213975 0.241737 0.445740 -0.152469
C47   C     C_R   0.705987 0.260941 0.968602 -0.072852
C48   C     C_R   0.713972 0.741733 0.445800 -0.181931
C49   C     C_R   0.139362 0.728712 0.767690 -0.302372
C50   C     C_R   0.152288 0.278023 0.238624 -0.423566
C51   C     C_R   0.639334 0.228702 0.767640 -0.295872
C52   C     C_R   0.652269 0.778006 0.238697 -0.412648
C53   C     C_R   0.138142 0.686938 0.846429 -0.009518
C54   C     C_R   0.146632 0.317330 0.329330 -0.040822
C55   C     C_R   0.638129 0.186930 0.846390 0.007164
C56   C     C_R   0.646624 0.817319 0.329383 -0.038424
C57   C     C_R   0.170525 0.682016 0.992812 -0.023289
C58   C     C_R   0.177309 0.320734 0.477940 0.013739
C59   C     C_R   0.670525 0.182011 0.992748 -0.031390
C60   C     C_R   0.677292 0.820721 0.478015 0.016859
C61   C     C_R   0.205183 0.719059 0.052561 -0.010386
C62   C     C_R   0.211872 0.283220 0.535002 0.024628
C63   C     C_R   0.705188 0.219056 0.052461 -0.010896
C64   C     C_R   0.711841 0.783203 0.535108 0.028916
C65   C     C_R   0.103155 0.650819 0.786871 0.144589
C66   C     C_R   0.108642 0.352325 0.277567 0.296420
C67   C     C_R   0.603146 0.150809 0.786854 0.147105
C68   C     C_R   0.608646 0.852320 0.277592 0.290662
C69   C     C_R   0.097079 0.612122 0.881615 -0.406392
C70   C     C_R   0.099539 0.389209 0.378162 -0.606946
C71   C     C_R   0.597070 0.112115 0.881608 -0.400426
C72   C     C_R   0.599549 0.889209 0.378170 -0.608427
C73   C     C_R   0.130785 0.604940 0.022519 0.194093
C74   C     C_R   0.132916 0.395976 0.519399 0.299970
C75   C     C_R   0.630781 0.104937 0.022503 0.197656
C76   C     C_R   0.632916 0.895972 0.519426 0.297242
C77   C     C_R   0.170857 0.639492 0.074568 -0.065219
C78   C     C_R   0.174706 0.362119 0.567059 -0.212585
C79   C     C_R   0.670857 0.139489 0.074524 -0.068447
C80   C     C_R   0.674689 0.862105 0.567134 -0.227779
C81   C     C_R   0.777970 0.290758 0.165755 0.052052
C82   C     C_R   0.780274 0.709838 0.657589 0.060313
C83   C     C_R   0.277944 0.790767 0.165896 0.046858
C84   C     C_R   0.280366 0.209880 0.657389 0.064920
C85   C     C_R   0.817590 0.325315 0.217971 -0.015460
C86   C     C_R   0.817545 0.674353 0.716888 0.076306
C87   C     C_R   0.317544 0.825335 0.218133 0.016783
C88   C     C_R   0.317692 0.174423 0.716614 0.079979
C89   C     C_R   0.826007 0.364216 0.122084 -0.007324
C90   C     C_R   0.824633 0.634343 0.626293 -0.052726
C91   C     C_R   0.325953 0.864238 0.122246 -0.023327
C92   C     C_R   0.324724 0.134383 0.626142 -0.049332
C93   C     C_R   0.793590 0.368065 0.978018 -0.053893
C94   C     C_R   0.790958 0.628729 0.486481 -0.086654
C95   C     C_R   0.293576 0.868063 0.978118 -0.056418
C96   C     C_R   0.290913 0.128698 0.486596 -0.086338
H73   H     H_    0.067847 0.585762 0.839505 0.167122
H74   H     H_    0.068078 0.414507 0.340806 0.191362
H75   H     H_    0.567831 0.085757 0.839516 0.169593
H76   H     H_    0.568098 0.914512 0.340793 0.187595
H77   H     H_    0.116130 0.733559 0.656402 0.190851
H78   H     H_    0.128632 0.274479 0.126222 0.214342
H79   H     H_    0.616097 0.233545 0.656345 0.195110
H80   H     H_    0.628606 0.774463 0.126310 0.212663
H81   H     H_    0.796777 0.397159 0.901653 0.193784
H82   H     H_    0.792028 0.597849 0.417780 0.198313
H83   H     H_    0.296780 0.897150 0.901757 0.193301
H84   H     H_    0.291900 0.097775 0.418065 0.196571
C97   C     C_R   0.211877 0.633769 0.203085 0.305169
C98   C     C_R   0.214648 0.367417 0.697796 0.388649
C99   C     C_R   0.711881 0.133770 0.203032 0.337566
C100  C     C_R   0.714608 0.867391 0.697935 0.390970
C101  C     C_R   0.242382 0.670873 0.266049 -0.183161
C102  C     C_R   0.246199 0.330433 0.756075 -0.190478
C103  C     C_R   0.742393 0.170875 0.265960 -0.189404
C104  C     C_R   0.746121 0.830392 0.756294 -0.203711
C105  C     C_R   0.238691 0.714110 0.196263 0.015813
C106  C     C_R   0.243479 0.287491 0.682643 -0.019616
C107  C     C_R   0.738701 0.214108 0.196156 0.031428
C108  C     C_R   0.743407 0.787455 0.682829 -0.013658
C109  C     C_R   0.771575 0.251281 0.259101 0.146114
C110  C     C_R   0.775238 0.750136 0.747827 0.091756
C111  C     C_R   0.271557 0.751285 0.259226 0.144585
C112  C     C_R   0.275353 0.250191 0.747579 0.096962
C113  C     C_R   0.799032 0.250008 0.412336 -0.232354
C114  C     C_R   0.801866 0.751686 0.902782 -0.171666
C115  C     C_R   0.299018 0.750011 0.412455 -0.201687
C116  C     C_R   0.302043 0.251770 0.902451 -0.147052
C117  C     C_R   0.848749 0.320869 0.366053 0.004132
C118  C     C_R   0.847936 0.678885 0.866452 0.024326
C119  C     C_R   0.348708 0.820888 0.366195 0.034467
C120  C     C_R   0.348174 0.179005 0.866027 0.042813
C121  C     C_R   0.836749 0.283963 0.464321 -0.074665
C122  C     C_R   0.837249 0.716927 0.960429 -0.235577
C123  C     C_R   0.336725 0.783973 0.464448 -0.172129
C124  C     C_R   0.337500 0.217050 0.959991 -0.259381
C125  C     C_R   0.890622 0.353617 0.411990 0.107206
C126  C     C_R   0.888189 0.645235 0.917109 0.132459
C127  C     C_R   0.390572 0.853642 0.412124 0.117823
C128  C     C_R   0.388457 0.145376 0.916636 0.131946
C129  C     C_R   0.901846 0.389592 0.310043 -0.431254
C130  C     C_R   0.899284 0.608774 0.816645 -0.508826
C131  C     C_R   0.401756 0.889638 0.310237 -0.454965
C132  C     C_R   0.399501 0.108885 0.816250 -0.494330
C133  C     C_R   0.868781 0.396603 0.169004 0.276234
C134  C     C_R   0.866855 0.601915 0.674585 0.340759
C135  C     C_R   0.368707 0.896637 0.169174 0.282303
C136  C     C_R   0.366973 0.101973 0.674379 0.331693
H85   H     H_    0.856695 0.280292 0.582213 0.203822
H86   H     H_    0.856492 0.720752 0.079266 0.209001
H87   H     H_    0.356673 0.780302 0.582337 0.223941
H88   H     H_    0.356802 0.220909 0.078742 0.220336
H89   H     H_    0.934167 0.414273 0.346806 0.167731
H90   H     H_    0.931375 0.583969 0.854082 0.184990
H91   H     H_    0.434067 0.914327 0.347007 0.168488
H92   H     H_    0.431579 0.084073 0.853712 0.185041
H93   H     H_    0.740734 0.336284 0.802063 0.177542
H94   H     H_    0.737483 0.655332 0.311869 0.191730
H95   H     H_    0.240716 0.836275 0.802145 0.180646
H96   H     H_    0.237106 0.155135 0.312484 0.185550
H97   H     H_    0.273657 0.663728 0.361633 0.159932
H98   H     H_    0.276865 0.337570 0.853063 0.150811
H99   H     H_    0.773671 0.163731 0.361534 0.160015
H100  H     H_    0.776758 0.837512 0.853369 0.149909
H101  H     H_    0.791411 0.223154 0.496008 0.159711
H102  H     H_    0.794852 0.779089 0.985103 0.135329
H103  H     H_    0.291409 0.723151 0.496113 0.156773
H104  H     H_    0.295034 0.279171 0.984783 0.135780
O49   O     O_3   0.762563 0.568123 0.133809 -0.648117
C137  C     C_3   0.717260 0.539911 0.179448 0.314968
H105  H     H_    0.721308 0.536189 0.310936 0.098529
H106  H     H_    0.719101 0.504942 0.128629 0.106339
C138  C     C_3   0.659550 0.562202 0.135430 -0.385534
H107  H     H_    0.657020 0.595220 0.199140 0.234445
H108  H     H_    0.655800 0.568586 0.004968 0.203740
C139  C     C_3   0.609828 0.532212 0.181218 -0.905294
H109  H     H_    0.611427 0.498935 0.118816 0.250641
H110  H     H_    0.568668 0.549182 0.146362 0.276896
H111  H     H_    0.611580 0.526566 0.311993 0.268664
O50   O     O_3   0.758692 0.437799 0.627618 -0.608050
C140  C     C_3   0.698815 0.430949 0.613156 0.234497
H112  H     H_    0.687027 0.408393 0.711592 0.118929
H113  H     H_    0.684363 0.413374 0.500244 0.094744
C141  C     C_3   0.667764 0.476373 0.631027 -0.308375
H114  H     H_    0.679653 0.491228 0.749807 0.206913
H115  H     H_    0.681142 0.500404 0.538378 0.198328
C142  C     C_3   0.602927 0.470578 0.615571 -1.018069
H116  H     H_    0.589902 0.455239 0.498353 0.282916
H117  H     H_    0.581939 0.504277 0.624920 0.283774
H118  H     H_    0.588292 0.448597 0.712555 0.284421
O51   O     O_3   0.262315 0.067976 0.133387 -0.651747
C143  C     C_3   0.217071 0.039508 0.177705 0.307781
H119  H     H_    0.220870 0.035607 0.309124 0.100403
H120  H     H_    0.219242 0.004621 0.126357 0.109209
C144  C     C_3   0.159294 0.061618 0.133060 -0.385637
H121  H     H_    0.156177 0.094332 0.198413 0.232124
H122  H     H_    0.156021 0.068573 0.002930 0.204945
C145  C     C_3   0.109638 0.031082 0.175431 -0.907537
H123  H     H_    0.111745 0.998170 0.110864 0.250544
H124  H     H_    0.068444 0.047995 0.140536 0.277981
H125  H     H_    0.110941 0.024700 0.305764 0.269484
O52   O     O_3   0.258769 0.938707 0.631646 -0.608267
C146  C     C_3   0.198991 0.931325 0.618157 0.222630
H126  H     H_    0.187452 0.910126 0.720460 0.118123
H127  H     H_    0.184909 0.912110 0.508315 0.095976
C147  C     C_3   0.167282 0.976726 0.628003 -0.277811
H128  H     H_    0.179514 0.993646 0.743054 0.205989
H129  H     H_    0.179738 0.999263 0.529921 0.194133
C148  C     C_3   0.102525 0.970204 0.616486 -1.076979
H130  H     H_    0.089206 0.952375 0.503963 0.289858
H131  H     H_    0.081047 0.003861 0.617810 0.292542
H132  H     H_    0.088718 0.950241 0.719665 0.292315
N1    N     N_R   0.232156 0.590075 0.252466 0.261797
O53   O     O_R   0.268614 0.569508 0.164808 -0.359903
O54   O     O_R   0.230828 0.579096 0.401999 -0.377555
N2    N     N_R   0.232380 0.410923 0.756381 0.260406
O55   O     O_R   0.269383 0.433367 0.676711 -0.367299
O56   O     O_R   0.228721 0.419768 0.907231 -0.397518
N3    N     N_R   0.732150 0.090078 0.252461 0.255054
O57   O     O_R   0.768615 0.069502 0.164850 -0.364731
O58   O     O_R   0.730808 0.079111 0.402002 -0.377833
N4    N     N_R   0.732357 0.910893 0.756518 0.259737
O59   O     O_R   0.769352 0.933335 0.676813 -0.371648
O60   O     O_R   0.728713 0.919739 0.907372 -0.400623
O61   O     O_3   0.148921 0.808815 0.778001 -0.685199
C149  C     C_3   0.124164 0.835590 0.898249 0.114100
H133  H     H_    0.150894 0.866261 0.920288 0.120715
H134  H     H_    0.121274 0.818357 0.015802 0.108406
C150  C     C_3   0.064254 0.850979 0.841007 -0.267389
H135  H     H_    0.066273 0.868062 0.723572 0.214268
H136  H     H_    0.036025 0.820905 0.826603 0.211673
C151  C     C_3   0.038470 0.883456 0.960151 -0.898356
H137  H     H_    0.034212 0.866277 0.076612 0.259593
H138  H     H_    0.995306 0.894411 0.914156 0.278851
H139  H     H_    0.065890 0.914010 0.978082 0.242357
O62   O     O_3   0.167751 0.198589 0.223544 -0.676086
C152  C     C_3   0.182713 0.197278 0.061649 0.091337
H140  H     H_    0.219069 0.173297 0.050728 0.155421
H141  H     H_    0.196692 0.230421 0.013150 0.119651
C153  C     C_3   0.131533 0.179785 0.959434 -0.245997
H142  H     H_    0.115470 0.147752 0.010073 0.213768
H143  H     H_    0.096550 0.205162 0.961154 0.214980
C154  C     C_3   0.147178 0.171215 0.787839 -1.046478
H144  H     H_    0.161023 0.203372 0.733445 0.280441
H145  H     H_    0.109203 0.158179 0.717502 0.299908
H146  H     H_    0.182203 0.145735 0.783681 0.274132
O63   O     O_3   0.649018 0.308790 0.777565 -0.680077
C155  C     C_3   0.624236 0.335664 0.897506 0.130284
H147  H     H_    0.650543 0.366659 0.917554 0.117762
H148  H     H_    0.622055 0.318772 0.015885 0.109845
C156  C     C_3   0.563902 0.350279 0.841322 -0.274438
H149  H     H_    0.565173 0.366874 0.722846 0.218545
H150  H     H_    0.536098 0.319896 0.829468 0.217470
C157  C     C_3   0.538126 0.383039 0.959549 -0.875991
H151  H     H_    0.534741 0.366372 0.077258 0.263347
H152  H     H_    0.494580 0.393317 0.914506 0.281838
H153  H     H_    0.565055 0.413961 0.974576 0.240102
O64   O     O_3   0.667726 0.698555 0.223706 -0.670254
C158  C     C_3   0.682579 0.697248 0.061706 0.061462
H154  H     H_    0.718861 0.673210 0.050534 0.159239
H155  H     H_    0.696623 0.730374 0.013233 0.123887
C159  C     C_3   0.631309 0.679858 0.959620 -0.233614
H156  H     H_    0.615129 0.647872 0.010319 0.213653
H157  H     H_    0.596429 0.705321 0.961366 0.211462
C160  C     C_3   0.646892 0.671221 0.788002 -1.029457
H158  H     H_    0.660896 0.703325 0.733558 0.277322
H159  H     H_    0.608845 0.658295 0.717711 0.294546
H160  H     H_    0.681790 0.645632 0.783828 0.270644
N5    N     N_R   0.938966 0.278511 0.057102 0.219314
O65   O     O_R   0.912980 0.310032 0.974185 -0.337747
O66   O     O_R   0.916524 0.238038 0.058474 -0.396692
N6    N     N_R   0.947239 0.707410 0.527446 0.253645
O67   O     O_R   0.935820 0.664445 0.526475 -0.336759
O68   O     O_R   0.906162 0.736080 0.491223 -0.392410
N7    N     N_R   0.438940 0.778546 0.057194 0.222889
O69   O     O_R   0.412958 0.810081 0.974337 -0.339386
O70   O     O_R   0.416483 0.738077 0.058529 -0.396548
N8    N     N_R   0.447026 0.207333 0.528654 0.261609
O71   O     O_R   0.435827 0.164331 0.524511 -0.324398
O72   O     O_R   0.405728 0.236059 0.495526 -0.377597

loop_
_geom_bond_atom_site_label_1
_geom_bond_atom_site_label_2
_geom_bond_distance
_ccdc_geom_bond_type
C156  C157  1.526577 S    
C97   C101  1.393946 A    
C118  C122  1.397504 A    
C2    H10   1.109983 S    
C28   O52   1.414322 S    
C101  H97   1.079738 S    
C111  C115  1.410034 A    
C115  C123  1.388977 A    
C70   H74   1.082059 S    
O19   C23   1.396011 S    
C15   H27   1.106722 S    
C81   C85   1.430060 A    
C4    H68   1.103457 S    
C97   N1    1.425760 S    
C151  H137  1.110907 S    
C46   C62   1.433181 A    
P7    O39   1.748751 S    
C20   H44   1.108527 S    
C152  C153  1.527018 S    
C125  C129  1.396569 A    
C141  H114  1.110917 S    
C34   C82   1.426111 A    
O42   C6    1.414383 S    
C127  C131  1.396538 A    
P4    O8    1.580501 S    
C55   C59   1.419234 A    
C93   H81   1.076051 S    
P11   O35   1.547735 D    
C150  C151  1.526612 S    
C119  C127  1.414057 A    
C16   C20   1.523973 S    
P9    O41   1.759660 S    
C18   H42   1.108524 S    
C78   C98   1.414301 A    
C58   C78   1.430845 A    
C121  H85   1.078998 S    
C43   O63   1.389237 S    
C84   C88   1.433772 A    
C83   C111  1.415557 A    
N1    O54   1.299185 A    
C63   C107  1.413787 A    
C50   C54   1.393273 A    
O27   Ba3   2.867373 S    
O30   Ba2   2.765782 S    
O40   C15   1.396450 S    
Ba2   O45   2.953761 S    
P16   C127  1.845380 S    
C13   H29   1.110388 S    
C144  H122  1.111149 S    
O52   C146  1.413374 S    
P5    Ba1   3.431694 S    
C69   C73   1.405294 A    
P13   C126  1.852339 S    
P12   O44   1.766643 S    
P7    Ba3   3.431694 S    
C68   C72   1.396336 A    
P7    C76   1.881938 S    
O12   P15   1.748508 S    
C108  C110  1.421047 A    
C80   C100  1.414330 A    
C49   H77   1.067376 S    
C60   C80   1.430825 A    
C4    H12   1.109964 S    
C154  H144  1.107646 S    
C114  H102  1.078525 S    
Ba2   O46   2.816430 S    
C38   C94   1.382525 A    
O23   P16   1.749558 S    
C158  H155  1.113651 S    
Ba3   O48   2.955384 S    
C41   C45   1.421100 A    
O21   P14   1.749595 S    
C105  C111  1.423619 A    
C106  C112  1.420939 A    
C12   H20   1.108773 S    
O3    Ba3   2.869238 S    
C107  C109  1.423585 A    
C37   C93   1.388816 A    
C11   H23   1.101521 S    
C81   C109  1.415536 A    
C151  H139  1.110754 S    
C39   H95   1.077501 S    
P10   O42   1.766818 S    
C1    H9    1.106479 S    
O61   C149  1.423857 S    
C86   C118  1.418345 A    
C118  C126  1.416991 A    
C141  C142  1.524483 S    
Ba1   O45   2.813514 S    
O22   C30   1.402134 S    
O12   Ba4   2.770063 S    
C23   H47   1.105300 S    
O9    P14   1.741293 S    
C104  H100  1.078682 S    
P3    O7    1.580531 S    
C157  H151  1.110918 S    
C144  H121  1.111182 S    
C21   H45   1.105292 S    
P9    C66   1.864575 S    
C14   H30   1.109430 S    
C140  H112  1.107064 S    
P8    O47   1.585446 S    
N3    O57   1.300839 A    
C22   H46   1.105183 S    
P6    Ba2   3.434227 S    
C123  H87   1.078995 S    
C42   C50   1.397332 A    
N5    O65   1.294265 A    
C160  H158  1.107661 S    
C7    H15   1.113474 S    
C26   O50   1.414223 S    
C153  H142  1.108839 S    
C30   H62   1.111084 S    
C87   C91   1.420982 A    
C148  H130  1.110917 S    
C96   H84   1.076459 S    
O7    Ba4   2.815398 S    
C44   O64   1.386199 S    
Ba3   Ba4   4.614441 S    
C27   O51   1.415152 S    
C139  H111  1.109790 S    
C17   H37   1.107401 S    
N6    O67   1.292884 A    
C69   H73   1.081819 S    
C83   C87   1.430035 A    
C138  H108  1.111153 S    
N4    O59   1.300982 A    
O23   C31   1.404814 S    
C158  H154  1.111104 S    
C92   C96   1.390789 A    
P9    O29   1.743797 S    
P4    Ba4   3.431039 S    
C7    N7    1.462376 S    
P12   O32   1.758536 S    
C129  H89   1.082295 S    
C27   H55   1.114362 S    
C131  H91   1.082297 S    
C155  H147  1.108827 S    
C58   C62   1.436708 A    
N7    O70   1.302708 A    
C90   C94   1.390683 A    
C65   C69   1.402440 A    
C3    H11   1.108465 S    
C102  H98   1.078674 S    
C140  C141  1.531074 S    
P8    C75   1.887738 S    
P5    O25   1.532819 D    
C120  C128  1.416891 A    
C132  H92   1.082246 S    
C67   C71   1.402399 A    
C40   H96   1.061667 S    
C77   C97   1.418268 A    
C59   C63   1.434138 A    
C15   H31   1.110388 S    
N8    O72   1.302678 A    
C53   C65   1.417337 A    
C59   C79   1.429064 A    
C143  H119  1.108971 S    
N3    O58   1.299187 A    
C74   C78   1.438336 A    
C160  H160  1.111315 S    
C142  H117  1.110364 S    
C86   C90   1.414344 A    
C48   C64   1.433103 A    
C11   H71   1.110584 S    
C56   C68   1.414500 A    
P2    O18   1.748447 S    
C8    N8    1.462692 S    
O9    Ba1   2.764103 S    
C66   C70   1.396354 A    
C147  H129  1.109034 S    
H2    C30   1.112120 S    
C149  H134  1.115979 S    
C60   C64   1.436700 A    
P6    C73   1.887764 S    
C98   N2    1.425488 S    
C116  C124  1.387809 A    
N2    O56   1.299370 A    
C152  H140  1.111128 S    
C117  C125  1.414085 A    
P7    O48   1.585425 S    
C122  H86   1.079963 S    
C149  C150  1.526692 S    
C40   C96   1.382590 A    
C153  C154  1.524095 S    
C113  C121  1.388961 A    
Ba4   O47   2.953761 S    
C148  H132  1.109314 S    
C9    H69   1.110584 S    
C146  H127  1.116701 S    
P5    O37   1.748746 S    
C13   H25   1.106724 S    
C147  C148  1.524363 S    
C159  H156  1.108857 S    
C156  H150  1.107657 S    
C17   H33   1.109196 S    
C33   C47   1.430467 A    
C35   C83   1.415462 A    
C36   C84   1.426147 A    
C61   C105  1.413780 A    
C19   H35   1.109199 S    
P14   C125  1.845524 S    
C1    H65   1.108479 S    
C76   C80   1.438360 A    
C12   H72   1.110038 S    
C145  H125  1.109802 S    
C145  H124  1.110270 S    
C24   C28   1.523177 S    
C154  H146  1.111313 S    
C54   C58   1.411851 A    
O8    Ba3   2.818328 S    
C26   H58   1.107038 S    
C155  C156  1.526693 S    
C16   H28   1.106280 S    
C151  H138  1.110269 S    
C31   H63   1.110662 S    
C89   C93   1.400398 A    
C51   C55   1.398622 A    
C152  H141  1.113698 S    
C115  H103  1.079691 S    
C101  C105  1.403299 A    
C36   C40   1.415855 A    
P6    O45   1.585446 S    
C141  H115  1.109326 S    
O20   C24   1.396708 S    
O2    Ba2   2.866290 S    
O22   P13   1.745063 S    
C91   C95   1.400314 A    
C12   H24   1.106716 S    
C9    H17   1.110052 S    
C150  H136  1.107655 S    
C98   C102  1.390652 A    
C11   H19   1.110038 S    
O10   Ba2   2.770063 S    
O16   P15   1.542599 D    
P12   C67   1.876799 S    
C143  C144  1.528826 S    
C33   C81   1.415516 A    
C8    C12   1.535112 S    
P1    C133  1.866085 S    
N1    O53   1.300838 A    
C84   C112  1.413818 A    
P3    C135  1.866258 S    
P11   O43   1.759663 S    
P1    O1    1.529976 D    
C32   H64   1.111008 S    
C25   H57   1.105529 S    
C6    C10   1.535142 S    
P6    O38   1.748809 S    
P3    O3    1.529976 D    
C24   H52   1.110916 S    
P4    O20   1.748319 S    
C14   H26   1.106277 S    
C47   C63   1.422037 A    
C139  H110  1.110283 S    
P5    O46   1.585425 S    
C42   C46   1.431541 A    
C45   C61   1.421972 A    
C5    H13   1.113458 S    
C149  H133  1.108637 S    
C41   C49   1.392563 A    
C14   C18   1.523972 S    
P3    Ba3   3.433518 S    
O24   P15   1.745296 S    
C44   C52   1.397387 A    
O41   C5    1.415651 S    
C42   O62   1.386035 S    
C34   C38   1.415675 A    
C56   C60   1.411902 A    
C9    H21   1.101518 S    
C79   C99   1.418251 A    
C37   H93   1.077380 S    
O15   P16   1.540757 D    
C17   H41   1.109055 S    
C92   C136  1.417679 A    
C57   C77   1.429045 A    
O13   P14   1.540793 D    
C19   H43   1.109056 S    
C82   C110  1.413801 A    
C1    C29   1.517950 S    
C137  H106  1.114873 S    
P2    Ba2   3.431039 S    
O31   Ba3   2.771762 S    
Ba3   O47   2.813514 S    
P9    O33   1.547733 D    
C131  C135  1.397679 A    
P10   O30   1.758869 S    
C8    H16   1.109902 S    
C132  C136  1.396111 A    
P1    O5    1.580531 S    
P12   O36   1.543450 D    
C5    N5    1.462394 S    
O4    Ba4   2.866290 S    
H1    C29   1.110351 S    
C21   C25   1.528477 S    
C10   H18   1.108795 S    
C1    H5    1.109492 S    
C20   H36   1.108549 S    
C3    H7    1.106447 S    
O51   C143  1.414795 S    
C109  C113  1.410044 A    
C75   C79   1.436308 A    
C35   C45   1.430345 A    
C99   C103  1.393915 A    
C52   C56   1.393309 A    
C120  C124  1.397458 A    
P6    O26   1.530522 D    
P5    C74   1.881946 S    
C99   N3    1.425753 S    
P8    O40   1.748812 S    
C85   C117  1.416189 A    
Ba1   Ba2   4.614441 S    
C72   H76   1.082058 S    
C15   C19   1.524493 S    
C5    C9    1.531210 S    
N8    O71   1.292972 A    
C50   H78   1.075165 S    
C26   H54   1.114899 S    
O17   C21   1.395912 S    
C29   H61   1.110663 S    
C88   C92   1.414322 A    
C153  H143  1.107410 S    
C103  H99   1.079736 S    
C25   H53   1.114440 S    
C137  H105  1.109201 S    
C130  H90   1.082246 S    
C28   H56   1.114988 S    
C157  H153  1.110776 S    
C144  C145  1.525312 S    
C10   H22   1.106719 S    
C117  C121  1.402818 A    
C51   H79   1.067456 S    
C20   H40   1.107818 S    
N6    O68   1.302773 A    
C142  H116  1.110892 S    
O25   Ba1   2.867373 S    
C94   H82   1.076253 S    
C64   C108  1.417212 A    
C7    C11   1.531195 S    
C138  H107  1.111110 S    
N4    O60   1.299368 A    
C114  C122  1.387928 A    
C85   C89   1.420979 A    
C25   O49   1.415141 S    
C55   C67   1.417282 A    
C155  H148  1.116009 S    
P8    Ba4   3.434227 S    
C6    H14   1.109990 S    
C102  C106  1.405130 A    
C139  H109  1.111152 S    
C2    H66   1.103439 S    
C137  C138  1.528685 S    
C158  C159  1.527023 S    
C71   C75   1.405293 A    
C146  H126  1.107229 S    
C10   H70   1.110079 S    
P1    O17   1.748335 S    
C52   H80   1.075138 S    
P3    O19   1.748168 S    
O24   C32   1.402293 S    
P4    O4    1.532276 D    
O6    Ba1   2.818328 S    
C28   H60   1.107347 S    
C6    N6    1.462672 S    
C156  H149  1.111128 S    
O49   C137  1.414760 S    
C119  C123  1.402840 A    
C27   H59   1.105503 S    
P4    C136  1.857177 S    
O11   Ba3   2.764103 S    
C18   H38   1.107813 S    
C143  H120  1.114819 S    
C43   C47   1.421246 A    
C62   C106  1.417153 A    
O18   C22   1.396704 S    
C160  H159  1.110133 S    
C82   C86   1.433798 A    
O1    Ba1   2.869238 S    
Ba1   O46   2.955384 S    
O32   Ba4   2.765782 S    
C34   C48   1.444354 A    
O38   C13   1.396445 S    
C72   C76   1.401212 A    
C140  H113  1.116802 S    
C3    H67   1.109489 S    
C57   C61   1.434125 A    
N5    O66   1.302707 A    
O28   Ba4   2.870354 S    
C100  C104  1.390729 A    
C13   C17   1.524490 S    
O26   Ba2   2.870354 S    
C89   C133  1.423297 A    
C148  H131  1.110340 S    
C91   C135  1.423235 A    
P2    O2    1.532276 D    
C23   C27   1.528513 S    
C24   H48   1.105186 S    
C22   H50   1.110922 S    
C95   H83   1.075912 S    
C116  H104  1.078517 S    
O5    Ba2   2.815398 S    
C159  H157  1.107347 S    
C54   C66   1.414457 A    
C103  C107  1.403297 A    
C4    H8    1.109773 S    
C113  H101  1.079692 S    
C39   C95   1.388808 A    
C73   C77   1.436292 A    
P11   C68   1.864631 S    
C138  C139  1.525154 S    
C35   C39   1.409924 A    
C70   C74   1.401224 A    
C44   C48   1.431553 A    
C88   C120  1.418364 A    
C154  H145  1.110135 S    
P15   C128  1.852255 S    
C49   C53   1.398634 A    
C159  C160  1.524172 S    
N7    O69   1.294250 A    
C33   C37   1.409929 A    
C112  C116  1.415213 A    
C90   C134  1.417702 A    
O44   C8    1.414364 S    
C38   H94   1.061630 S    
C19   H39   1.107403 S    
O11   P16   1.741296 S    
O14   P13   1.542565 D    
C157  H152  1.110270 S    
C2    C30   1.513890 S    
C87   C119  1.416127 A    
O37   C14   1.396127 S    
C130  C134  1.396037 A    
O10   P13   1.748564 S    
O21   C29   1.404838 S    
O39   C16   1.396141 S    
P10   O34   1.543385 D    
C71   H75   1.081820 S    
P11   O31   1.743854 S    
C104  C108  1.405127 A    
P2    O6    1.580501 S    
O62   C152  1.420556 S    
P7    O27   1.532819 D    
C150  H135  1.111148 S    
C18   H34   1.108550 S    
C21   H49   1.111626 S    
P8    O28   1.530522 D    
C22   C26   1.523178 S    
P1    Ba1   3.433518 S    
C2    H6    1.109971 S    
C128  C132  1.395289 A    
C43   C51   1.392520 A    
C110  C114  1.415252 A    
C142  H118  1.108795 S    
C36   C46   1.444477 A    
P2    C134  1.857212 S    
C100  N4    1.425495 S    
O50   C140  1.413578 S    
C16   H32   1.109451 S    
O43   C7    1.415661 S    
C147  H128  1.110827 S    
C53   C57   1.419272 A    
N2    O55   1.300981 A    
Ba4   O48   2.816430 S    
C23   H51   1.111581 S    
C3    C31   1.517889 S    
C4    C32   1.514276 S    
O29   Ba1   2.771762 S    
C124  H88   1.079923 S    
P10   C65   1.876886 S    
C145  H123  1.111169 S    
C126  C130  1.395276 A    
C146  C147  1.531332 S    
C41   O61   1.389305 S    
O64   C158  1.420659 S    
H3    C31   1.110350 S    
O63   C155  1.423840 S    
H4    C32   1.112169 S    
C129  C133  1.397745 A    
