data_mof_unit_55784.cif
_audit_creation_date              2012-12-10T17:47:49-0500
_audit_creation_method            fapswitch 2.2
_symmetry_space_group_name_H-M    P1
_symmetry_Int_Tables_number       1
_space_group_crystal_system       triclinic
_cell_length_a                    14.71747
_cell_length_b                    14.45434
_cell_length_c                    14.349044
_cell_angle_alpha                 77.71247
_cell_angle_beta                  102.402219
_cell_angle_gamma                 114.766225
_cell_volume                      2680.95796748

loop_
_atom_site_label
_atom_site_type_symbol
_atom_type_description
_atom_site_fract_x
_atom_site_fract_y
_atom_site_fract_z
_atom_type_partial_charge
C1    C     C_R   0.880461 0.310952 0.511186 0.811232
C2    C     C_R   0.119539 0.689049 0.488812 0.811235
C3    C     C_R   0.640694 0.071023 0.510803 0.049590
C4    C     C_R   0.359314 0.928970 0.489203 0.049585
C5    C     C_R   0.668847 0.003787 0.476279 0.062610
C6    C     C_R   0.331160 0.996216 0.523709 0.062616
C7    C     C_R   0.538203 0.041364 0.523220 0.037390
C8    C     C_R   0.461805 0.958623 0.476791 0.037383
C9    C     C_R   0.491206 0.909225 0.419639 0.159445
C10   C     C_R   0.508799 0.090761 0.580369 0.159438
C11   C     C_R   0.592619 0.923934 0.429312 -0.203578
C12   C     C_R   0.407388 0.076065 0.570681 -0.203576
C13   C     C_R   0.717661 0.669785 0.342043 0.030508
C14   C     C_R   0.282332 0.330206 0.657949 0.030505
C15   C     C_R   0.798900 0.639857 0.370469 0.055026
C16   C     C_R   0.201097 0.360140 0.629527 0.055024
C17   C     C_R   0.714641 0.509912 0.490318 0.008727
C18   C     C_R   0.285359 0.490087 0.509681 0.008725
C19   C     C_R   0.629532 0.537036 0.466602 -0.045541
C20   C     C_R   0.370463 0.462956 0.533391 -0.045540
C21   C     C_R   0.631235 0.617056 0.388913 0.106082
C22   C     C_R   0.368758 0.382933 0.611078 0.106081
C23   C     C_R   0.000018 0.499985 0.668895 0.811192
C24   C     C_R   0.999982 0.500015 0.331105 0.811183
C25   C     C_R   0.542948 0.486681 0.516078 0.097270
C26   C     C_R   0.457045 0.513308 0.483912 0.097267
C27   C     C_R   0.460217 0.588872 0.402953 -0.231282
C28   C     C_R   0.539772 0.411110 0.597032 -0.231270
C29   C     C_R   0.546099 0.641269 0.358312 -0.168528
C30   C     C_R   0.453891 0.358714 0.641674 -0.168541
C31   C     C_1   0.000027 0.499991 0.771229 -0.187346
C32   C     C_1   0.999973 0.500008 0.228771 -0.187349
C33   C     C_1   0.000015 0.499997 0.856635 0.008426
C34   C     C_1   0.999985 0.500003 0.143365 0.008426
C35   C     C_1   0.000003 0.499999 0.957294 0.021357
C36   C     C_1   0.999996 0.500000 0.042706 0.021357
C37   C     C_R   0.813625 0.200348 0.509240 -0.114317
C38   C     C_R   0.186378 0.799654 0.490753 -0.114332
C39   C     C_R   0.772532 0.025705 0.477748 0.192309
C40   C     C_R   0.227472 0.974310 0.522216 0.192312
C41   C     C_R   0.845589 0.126425 0.490533 0.159817
C42   C     C_R   0.154411 0.873592 0.509427 0.159813
C43   C     C_R   0.712869 0.170556 0.520835 -0.284229
C44   C     C_R   0.287140 0.829435 0.479182 -0.284223
Cu1   Cu    Cu3+1 0.081740 0.475690 0.523180 0.935645
Cu2   Cu    Cu3+1 0.918260 0.524310 0.476820 0.935647
H1    H     H_    0.612028 0.881866 0.388060 0.179399
H2    H     H_    0.387977 0.118137 0.611928 0.179395
H3    H     H_    0.396464 0.608456 0.370896 0.129700
H4    H     H_    0.603521 0.391518 0.629084 0.129693
H5    H     H_    0.310807 0.771350 0.469188 0.185358
H6    H     H_    0.689207 0.228635 0.530855 0.185350
H7    H     H_    0.543651 0.699593 0.297706 0.181348
H8    H     H_    0.456336 0.300386 0.702275 0.181347
H9    H     H_    0.281368 0.551896 0.454254 0.127914
H10   H     H_    0.718637 0.448109 0.545750 0.127917
H11   H     H_    0.134514 0.320519 0.665142 0.154381
H12   H     H_    0.865482 0.679478 0.334854 0.154374
N1    N     N_R   0.795420 0.560790 0.441960 -0.187875
N2    N     N_R   0.204580 0.439210 0.558040 -0.187874
O1    O     O_R   0.977910 0.338120 0.530560 -0.578292
O2    O     O_R   0.022090 0.661880 0.469440 -0.578294
O3    O     O_R   0.839850 0.379180 0.491410 -0.576359
O4    O     O_R   0.160150 0.620820 0.508590 -0.576361
O5    O     O_R   0.069040 0.479460 0.643530 -0.551714
O6    O     O_R   0.930960 0.520540 0.356470 -0.551713
O7    O     O_R   0.930990 0.520530 0.604380 -0.563763
O8    O     O_R   0.069010 0.479470 0.395620 -0.563764
C45   C     C_3   0.045216 0.843120 0.522103 -0.802816
H13   H     H_    0.022357 0.774928 0.578159 0.237111
H14   H     H_    0.030993 0.902665 0.546731 0.225386
H15   H     H_    0.995404 0.825767 0.452645 0.243831
C46   C     C_3   0.954773 0.156914 0.477813 -0.802829
H16   H     H_    0.977616 0.225124 0.421774 0.237100
H17   H     H_    0.004608 0.174245 0.547263 0.243835
H18   H     H_    0.968981 0.097385 0.453136 0.225399
C47   C     C_3   0.805191 0.942096 0.467582 -0.862460
H19   H     H_    0.869365 0.940975 0.524342 0.236675
H20   H     H_    0.745483 0.863765 0.478671 0.237031
H21   H     H_    0.827854 0.955825 0.395303 0.258600
C48   C     C_3   0.194816 0.057927 0.532361 -0.862441
H22   H     H_    0.130672 0.059071 0.475569 0.236674
H23   H     H_    0.172107 0.044187 0.604621 0.258592
H24   H     H_    0.254539 0.136255 0.521307 0.237026
C49   C     C_3   0.421854 0.854750 0.336593 -0.867588
H25   H     H_    0.398947 0.770595 0.355944 0.216966
H26   H     H_    0.354163 0.874017 0.314075 0.247203
H27   H     H_    0.461548 0.879624 0.272332 0.247537
C50   C     C_3   0.578142 0.145219 0.663428 -0.867595
H28   H     H_    0.645836 0.125958 0.685941 0.247200
H29   H     H_    0.601045 0.229375 0.644094 0.216967
H30   H     H_    0.538442 0.120324 0.727686 0.247548
I1    I     I_    0.733345 0.794828 0.228727 -0.429355
I2    I     I_    0.266644 0.205156 0.771258 -0.429337

loop_
_geom_bond_atom_site_label_1
_geom_bond_atom_site_label_2
_ccdc_geom_bond_type
C7    C10   A    
Cu1   N2    S    
Cu2   N1    S    
C27   C29   A    
C46   H16   S    
C11   H1    S    
C35   C36   T    
C4    C8    A    
C48   H22   S    
C7    C8    A    
C39   C41   A    
C47   H19   S    
C25   C28   A    
C30   H8    S    
C3    C43   A    
C26   C27   A    
C20   C26   A    
Cu2   O2    S    
C39   C47   S    
C19   C21   A    
Cu2   O6    S    
C3    C7    A    
C6    C12   A    
C33   C35   S    
C43   H6    S    
C49   H27   S    
C16   N2    A    
C23   O7    A    
C45   H14   S    
C9    C49   S    
C28   H4    S    
C10   C50   S    
C8    C9    A    
C31   C33   T    
C50   H29   S    
C18   C20   A    
C1    C37   S    
Cu1   O1    S    
C40   C42   A    
C46   H17   S    
C1    O3    A    
C48   H23   S    
C2    O4    A    
C47   H20   S    
C49   H26   S    
C6    C40   A    
C4    C6    A    
C4    C44   A    
C25   C26   A    
Cu1   Cu2   S    
C21   C29   A    
C42   C45   S    
C13   I1    S    
C23   C31   S    
C37   C43   A    
C45   H15   S    
C24   C32   S    
C38   C44   A    
C2    C38   S    
Cu1   O8    S    
C13   C21   A    
C50   H30   S    
C9    C11   A    
C17   H10   S    
C49   H25   S    
C10   C12   A    
C18   H9    S    
C17   N1    A    
C44   H5    S    
C18   N2    A    
C20   C22   A    
C13   C15   A    
Cu1   O5    S    
C15   H12   S    
C14   C16   A    
C48   H24   S    
C47   H21   S    
C22   C30   A    
C15   N1    A    
C40   C48   S    
C3    C5    A    
C1    O1    A    
C5    C11   A    
C24   O6    A    
Cu1   O4    S    
Cu2   O3    S    
C14   C22   A    
C5    C39   A    
Cu2   O7    S    
C23   O5    A    
C29   H7    S    
C28   C30   A    
C17   C19   A    
C12   H2    S    
C34   C36   S    
C16   H11   S    
C37   C41   A    
C45   H13   S    
C19   C25   A    
C24   O8    A    
C41   C46   S    
C38   C42   A    
C2    O2    A    
C46   H18   S    
C50   H28   S    
C14   I2    S    
C27   H3    S    
C32   C34   T    
