data_mof_unit_47848.cif
_audit_creation_date              2012-12-11T14:14:13-0500
_audit_creation_method            fapswitch 2.2
_symmetry_space_group_name_H-M    P1
_symmetry_Int_Tables_number       1
_space_group_crystal_system       monoclinic
_cell_length_a                    17.010969
_cell_length_b                    7.250197
_cell_length_c                    16.979335
_cell_angle_alpha                 90.0
_cell_angle_beta                  99.629356
_cell_angle_gamma                 90.0
_cell_volume                      2064.60517995

loop_
_atom_site_label
_atom_site_type_symbol
_atom_type_description
_atom_site_fract_x
_atom_site_fract_y
_atom_site_fract_z
_atom_type_partial_charge
O1    O     O_R   0.414560 0.494370 0.416770 -0.547116
O2    O     O_R   0.585440 0.994370 0.583230 -0.547116
O3    O     O_R   0.578370 0.819590 0.429320 -0.534852
O4    O     O_R   0.421630 0.319590 0.570680 -0.534852
C1    C     C_R   0.602969 0.654805 0.412212 0.757789
C2    C     C_R   0.397031 0.154805 0.587788 0.757789
O5    O     O_R   0.414740 0.823790 0.407360 -0.529032
O6    O     O_R   0.585260 0.323790 0.592640 -0.529032
O7    O     O_R   0.420650 0.998510 0.561120 -0.542486
O8    O     O_R   0.579350 0.498510 0.438880 -0.542485
C3    C     C_R   0.387338 0.654832 0.385838 0.784752
C4    C     C_R   0.612662 0.154832 0.614162 0.784752
O9    O     O_3   0.502130 0.662240 0.550470 -0.381105
O10   O     O_3   0.497870 0.162240 0.449530 -0.381106
V1    V     V_3+5 0.499600 0.935390 0.490640 1.481286
V2    V     V_3+5 0.500400 0.435390 0.509360 1.481287
C5    C     C_2   0.803610 0.266763 0.766742 0.011601
C6    C     C_2   0.196390 0.766763 0.233258 0.011601
C7    C     C_2   0.820988 0.119014 0.816602 -0.288027
C8    C     C_2   0.179012 0.619014 0.183398 -0.288027
H1    H     H_    0.780385 0.002902 0.812238 0.120904
H2    H     H_    0.219615 0.502902 0.187762 0.120905
C9    C     C_2   0.726911 0.282454 0.709220 -0.177305
C10   C     C_2   0.273089 0.782454 0.290779 -0.177306
C11   C     C_2   0.682472 0.137678 0.678861 -0.244700
C12   C     C_2   0.317528 0.637678 0.321139 -0.244699
C13   C     C_R   0.336631 0.141005 0.641321 -0.081413
C14   C     C_R   0.663369 0.641005 0.358679 -0.081413
C15   C     C_R   0.168772 0.122846 0.865649 -0.168652
C16   C     C_R   0.831228 0.622846 0.134351 -0.168652
C17   C     C_R   0.309520 0.181091 0.857941 -0.083047
C18   C     C_R   0.690480 0.681087 0.142058 -0.083046
C19   C     C_R   0.247326 0.162158 0.903891 -0.070900
C20   C     C_R   0.752674 0.662154 0.096109 -0.070900
C21   C     C_R   0.152825 0.089902 0.782479 -0.076885
C22   C     C_R   0.847176 0.589904 0.217521 -0.076885
C23   C     C_R   0.215868 0.099783 0.737018 0.116191
C24   C     C_R   0.784132 0.599784 0.262982 0.116190
C25   C     C_R   0.292712 0.164348 0.772726 0.008388
C26   C     C_R   0.707288 0.664346 0.227273 0.008388
C27   C     C_R   0.350312 0.204142 0.721703 -0.059839
C28   C     C_R   0.649688 0.704140 0.278296 -0.059839
C29   C     C_R   0.264713 0.054204 0.611245 -0.212073
C30   C     C_R   0.735287 0.554207 0.388755 -0.212073
C31   C     C_R   0.204473 0.039746 0.656937 -0.095022
C32   C     C_R   0.795528 0.539750 0.343064 -0.095022
H3    H     H_    0.253952 0.002370 0.550503 0.124187
H4    H     H_    0.746049 0.502375 0.449498 0.124187
O11   O     O_R   0.920750 0.773600 0.061260 -0.527451
O12   O     O_R   0.079250 0.273600 0.938740 -0.527451
O13   O     O_R   0.085340 0.439850 0.092570 -0.556266
O14   O     O_R   0.914660 0.939850 0.907430 -0.556266
C33   C     C_R   0.110762 0.609177 0.116159 0.753900
C34   C     C_R   0.889238 0.109177 0.883841 0.753901
O15   O     O_R   0.921720 0.444130 0.070790 -0.546265
O16   O     O_R   0.078280 0.944130 0.929210 -0.546266
O17   O     O_R   0.914480 0.269530 0.916840 -0.515238
O18   O     O_R   0.085520 0.769530 0.083160 -0.515238
C35   C     C_R   0.896470 0.612672 0.086122 0.665031
C36   C     C_R   0.103530 0.112672 0.913878 0.665032
O19   O     O_3   0.997840 0.601520 0.949550 -0.369027
O20   O     O_3   0.002160 0.101520 0.050450 -0.369026
V3    V     V_3+5 0.000400 0.328340 0.009360 1.488201
V4    V     V_3+5 0.999600 0.828340 0.990640 1.488200
C37   C     C_2   0.859831 0.422915 0.764360 0.452408
H5    H     H_    0.836690 0.559754 0.748186 0.011398
O21   O     O_2   0.931879 0.398740 0.775086 -0.508718
C38   C     C_2   0.140170 0.922916 0.235639 0.452409
H6    H     H_    0.163310 0.059755 0.251813 0.011397
O22   O     O_2   0.068121 0.898741 0.224914 -0.508718
C39   C     C_2   0.068868 0.053864 0.743896 0.413540
H7    H     H_    0.029935 0.970794 0.774020 0.053822
O23   O     O_2   0.041182 0.124597 0.680000 -0.506151
C40   C     C_2   0.931133 0.553869 0.256104 0.413542
H8    H     H_    0.970066 0.470799 0.225981 0.053821
O24   O     O_2   0.958818 0.624604 0.319999 -0.506151
H9    H     H_    0.709811 0.419158 0.686231 0.132348
H10   H     H_    0.290189 0.919158 0.313769 0.132348
H11   H     H_    0.700904 0.998726 0.696978 0.127609
H12   H     H_    0.299096 0.498726 0.303022 0.127609
C41   C     C_2   0.420094 0.325023 0.749413 0.444937
H13   H     H_    0.413330 0.443405 0.786826 0.036279
O25   O     O_2   0.485811 0.290819 0.733188 -0.509951
C42   C     C_2   0.579905 0.825018 0.250586 0.444937
H14   H     H_    0.586668 0.943399 0.213172 0.036281
O26   O     O_2   0.514188 0.790813 0.266811 -0.509952
C43   C     C_2   0.392475 0.200838 0.901208 0.480824
H15   H     H_    0.406770 0.306110 0.946801 0.092618
O27   O     O_2   0.444497 0.094180 0.888499 -0.490013
C44   C     C_2   0.607525 0.700830 0.098792 0.480822
H16   H     H_    0.593229 0.806100 0.053198 0.092618
O28   O     O_2   0.555503 0.594171 0.111501 -0.490013
H17   H     H_    0.149796 0.973824 0.629284 0.167014
H18   H     H_    0.850205 0.473830 0.370716 0.167014
C45   C     C_2   0.263490 0.176751 0.993031 0.354295
H19   H     H_    0.220029 0.239859 0.024597 0.049145
O29   O     O_2   0.323705 0.111602 0.032433 -0.506934
C46   C     C_2   0.736510 0.676745 0.006968 0.354297
H20   H     H_    0.779971 0.739854 0.975403 0.049143
O30   O     O_2   0.676295 0.611593 0.967566 -0.506934

loop_
_geom_bond_atom_site_label_1
_geom_bond_atom_site_label_2
_ccdc_geom_bond_type
C43   H15   S    
O15   C35   A    
C45   H19   S    
O1    C3    A    
C31   H17   S    
C2    O7    A    
C41   H13   S    
C25   C27   A    
O5    C3    A    
C5    C9    S    
C40   O24   D    
C6    C10   S    
C21   C23   A    
C42   O26   D    
C6    C38   S    
C15   C19   A    
C14   C28   A    
C20   C46   S    
C18   C44   S    
C30   C32   A    
C38   H6    S    
C37   O21   D    
O15   V3    S    
C17   C19   A    
C26   C28   A    
O2    C4    A    
O6    V2    S    
O11   V4    S    
O12   V3    S    
C19   C45   S    
C41   O25   D    
O14   C34   A    
O17   V3    S    
O18   V4    S    
C17   C43   S    
C40   H8    S    
C16   C20   A    
C28   C42   S    
C42   H14   S    
O4    C2    A    
O14   V4    S    
C39   O23   D    
C3    C12   S    
C14   C30   A    
C12   H12   S    
O16   C36   A    
O13   C33   A    
C18   C20   A    
O4    V2    S    
O19   V4    S    
O20   V3    S    
C1    C14   S    
C13   C27   A    
C44   O28   D    
C2    C13   S    
C32   H18   S    
C15   C36   S    
O6    C4    A    
C27   C41   S    
C16   C35   S    
O16   V4    S    
O13   V3    S    
O1    V2    S    
C9    H9    S    
O2    V1    S    
C29   C31   A    
C22   C40   S    
C7    C34   S    
C10   H10   S    
C8    H2    S    
C37   H5    S    
C46   O30   D    
C43   O27   D    
C23   C31   A    
O3    V1    S    
C7    H1    S    
C11   H11   S    
C10   C12   D    
C8    C33   S    
O3    C1    A    
C33   O18   A    
C45   O29   D    
C15   C21   A    
C5    C37   S    
O11   C35   A    
C16   C22   A    
C4    C11   S    
O12   C36   A    
C22   C24   A    
O7    V1    S    
C39   H7    S    
C23   C25   A    
O8    V2    S    
C24   C26   A    
C44   H16   S    
O5    V1    S    
C5    C7    D    
C17   C25   A    
C6    C8    D    
C18   C26   A    
C24   C32   A    
C21   C39   S    
C13   C29   A    
C1    O8    A    
C9    C11   D    
C38   O22   D    
C46   H20   S    
O9    V2    S    
O10   V1    S    
C29   H3    S    
C30   H4    S    
C34   O17   A    
