data_mof_unit_18066.cif
_audit_creation_date              2012-12-11T16:08:50-0500
_audit_creation_method            fapswitch 2.2
_symmetry_space_group_name_H-M    P1
_symmetry_Int_Tables_number       1
_space_group_crystal_system       triclinic
_cell_length_a                    12.946662
_cell_length_b                    13.268548
_cell_length_c                    27.682995
_cell_angle_alpha                 94.968333
_cell_angle_beta                  89.78018
_cell_angle_gamma                 119.299525
_cell_volume                      4127.47630802

loop_
_atom_site_label
_atom_site_type_symbol
_atom_type_description
_atom_site_fract_x
_atom_site_fract_y
_atom_site_fract_z
_atom_type_partial_charge
C1    C     C_R   0.630737 0.894093 0.428334 0.541886
C2    C     C_R   0.579260 0.333468 0.229238 0.219688
C3    C     C_R   0.574564 0.321793 0.278994 -0.023926
C4    C     C_R   0.667614 0.322054 0.304447 -0.068931
C5    C     C_R   0.680392 0.345655 0.204404 0.017328
C6    C     C_1   0.692475 0.367739 0.153977 0.011627
C7    C     C_1   0.654548 0.299448 0.354597 -0.002008
C8    C     C_1   0.702545 0.394607 0.113059 0.039975
C9    C     C_R   0.167646 0.746953 0.350921 0.229171
C10   C     C_R   0.170904 0.746171 0.300074 0.013245
C11   C     C_R   0.176188 0.749473 0.198383 0.016196
C12   C     C_R   0.601655 0.222568 0.440716 0.548555
C13   C     C_R   0.179046 0.659752 0.220001 -0.027980
C14   C     C_R   0.173245 0.655185 0.269834 0.255706
C15   C     C_R   0.172213 0.746764 0.147820 0.202448
C16   C     C_R   0.135092 0.817225 0.126405 0.029421
C17   C     C_R   0.189473 0.939804 0.359220 0.205866
C18   C     C_R   0.185944 0.940773 0.308020 -0.034915
C19   C     C_R   0.178728 0.843596 0.278631 -0.099465
C20   C     C_R   0.198399 0.037792 0.284873 0.314920
C21   C     C_R   0.193151 0.033644 0.234142 0.244012
C22   C     C_R   0.170587 0.931086 0.205210 -0.055146
C23   C     C_R   0.265996 0.874992 0.426197 0.580671
C24   C     C_R   0.175061 0.841494 0.227493 -0.064249
C25   C     C_R   0.139180 0.912983 0.154804 0.179738
C26   C     C_R   0.198742 0.850881 0.379449 0.003227
C27   C     C_R   0.762088 0.935517 0.358569 0.197500
C28   C     C_R   0.757806 0.928455 0.308020 -0.039170
C29   C     C_R   0.746273 0.917748 0.205963 0.000962
C30   C     C_R   0.832052 0.019811 0.233727 0.256200
C31   C     C_R   0.836584 0.023566 0.283847 -0.019554
C32   C     C_R   0.735817 0.909604 0.154967 0.172972
C33   C     C_R   0.676238 0.799654 0.128869 0.045555
C34   C     C_R   0.627431 0.898102 0.564574 0.545717
C35   C     C_R   0.584326 0.745824 0.356922 0.220544
C36   C     C_R   0.588985 0.730479 0.305870 0.049593
C37   C     C_R   0.671310 0.826201 0.281368 -0.066981
C38   C     C_R   0.511604 0.624820 0.278030 0.293070
C39   C     C_R   0.511522 0.618345 0.227661 -0.081504
C40   C     C_R   0.590858 0.713114 0.203297 -0.041551
C41   C     C_R   0.669670 0.818973 0.230182 -0.051678
C42   C     C_R   0.597691 0.702017 0.152561 0.198626
C43   C     C_R   0.663533 0.854177 0.382238 -0.017208
C44   C     C_R   0.736030 0.296388 0.653872 0.242059
C45   C     C_R   0.601086 0.224336 0.579376 0.578453
C46   C     C_R   0.743168 0.297935 0.704968 0.003071
C47   C     C_R   0.759092 0.310631 0.807182 0.026861
C48   C     C_R   0.847776 0.304041 0.778743 0.303952
C49   C     C_R   0.842029 0.304595 0.728647 -0.017068
C50   C     C_R   0.777242 0.348692 0.857283 0.177421
C51   C     C_R   0.685141 0.356409 0.882823 0.034479
C52   C     C_R   0.531006 0.252835 0.658828 -0.119423
C53   C     C_R   0.536630 0.254900 0.709006 0.038217
C54   C     C_R   0.643809 0.279592 0.732455 0.017768
C55   C     C_R   0.433805 0.223899 0.735294 0.271485
C56   C     C_R   0.271287 0.879280 0.563329 0.552555
C57   C     C_R   0.440569 0.224649 0.786068 0.240806
C58   C     C_R   0.552823 0.270379 0.810471 0.010482
C59   C     C_R   0.651860 0.286765 0.783424 -0.039267
C60   C     C_R   0.570403 0.305622 0.860637 0.231411
C61   C     C_R   0.627067 0.266945 0.631007 0.034933
C62   C     C_1   0.224463 0.863778 0.610596 0.075735
C63   C     C_R   0.251165 0.813320 0.730475 0.248779
C64   C     C_R   0.238882 0.808618 0.781224 0.212337
C65   C     C_R   0.093489 0.874907 0.777363 0.275172
C66   C     C_R   0.105612 0.879714 0.727118 0.246487
C67   C     C_1   0.635251 0.271152 0.395267 0.053295
C68   C     C_R   0.183386 0.847944 0.703855 0.013330
C69   C     C_R   0.159128 0.838383 0.804249 0.012214
C70   C     C_1   0.136150 0.821764 0.854753 0.133465
C71   C     C_1   0.199784 0.855270 0.652519 0.113196
C72   C     C_1   0.107230 0.801010 0.895644 0.102129
C73   C     C_1   0.645831 0.860648 0.609087 0.078473
C74   C     C_R   0.650623 0.882953 0.736100 0.209162
C75   C     C_R   0.660973 0.864810 0.784162 -0.074495
C76   C     C_R   0.702172 0.708589 0.757948 0.262595
C77   C     C_R   0.691671 0.726513 0.708720 0.280768
C78   C     C_R   0.767065 0.333595 0.280096 -0.067802
C79   C     C_R   0.666742 0.814665 0.698342 0.073121
C80   C     C_R   0.687168 0.779002 0.795300 0.019971
C81   C     C_1   0.704612 0.768996 0.845575 0.080996
C82   C     C_1   0.656959 0.836136 0.648873 0.122762
C83   C     C_1   0.722709 0.762749 0.887514 0.069484
C84   C     C_R   0.066613 0.773796 0.079152 0.557100
C85   C     C_R   0.716637 0.441029 0.067197 0.549564
C86   C     C_R   0.718807 0.782120 0.081046 0.595693
C87   C     C_R   0.057742 0.766833 0.941575 0.539495
C88   C     C_R   0.710126 0.431318 0.929329 0.586568
C89   C     C_R   0.774219 0.346051 0.230305 0.243818
C90   C     C_R   0.748179 0.754956 0.936833 0.546900
Cr1   Cr    Cr6+3 0.416430 0.829200 0.492370 1.130102
Cr2   Cr    Cr6+3 0.674630 0.087020 0.504170 1.160263
Cr3   Cr    Cr6+3 0.408920 0.083740 0.503490 1.135041
Cr4   Cr    Cr6+3 0.914010 0.832750 0.013970 1.141384
Cr5   Cr    Cr6+3 0.922310 0.578600 0.003000 1.148304
Cr6   Cr    Cr6+3 0.656280 0.574630 0.003870 1.129236
H1    H     H_    0.838613 0.332139 0.299660 0.203999
H2    H     H_    0.902862 0.103431 0.303582 0.235505
H3    H     H_    0.448558 0.536997 0.207822 0.207653
H4    H     H_    0.912568 0.302132 0.708413 0.175744
H5    H     H_    0.447482 0.231007 0.640893 0.213697
H6    H     H_    0.649933 0.918991 0.813023 0.185663
H7    H     H_    0.496804 0.310933 0.297819 0.231479
H8    H     H_    0.182052 0.589722 0.197928 0.237128
O1    O     O_R   0.296680 0.802170 0.437540 -0.441283
O2    O     O_R   0.662610 0.183990 0.557860 -0.432208
O3    O     O_R   0.500730 0.201280 0.562180 -0.527534
O4    O     O_R   0.312500 0.978850 0.548170 -0.487024
O5    O     O_3   0.499990 0.999990 0.500010 -0.304875
O6    O     O_R   0.820790 0.857990 0.068830 -0.454736
O7    O     O_R   0.016700 0.827330 0.062850 -0.441145
O8    O     O_R   0.041970 0.673520 0.060040 -0.487571
O9    O     O_R   0.817980 0.483660 0.048840 -0.468291
O10   O     O_R   0.637200 0.461990 0.052510 -0.490964
O11   O     O_R   0.664790 0.681920 0.057970 -0.444847
O12   O     O_R   0.525380 0.838530 0.443500 -0.489060
O13   O     O_R   0.815840 0.852920 0.961840 -0.465783
O14   O     O_R   0.012100 0.822630 0.963670 -0.507538
O15   O     O_R   0.037010 0.668460 0.953040 -0.453826
O16   O     O_R   0.813390 0.478970 0.949660 -0.451800
O17   O     O_R   0.632250 0.456930 0.945520 -0.465560
O18   O     O_R   0.660200 0.677230 0.958780 -0.483582
O19   O     O_3   0.830870 0.661990 0.006950 -0.330462
O20   O     O_R   0.702130 0.995190 0.446810 -0.442613
O21   O     O_R   0.661770 0.181390 0.458760 -0.485065
O22   O     O_R   0.499820 0.198480 0.455280 -0.469366
O23   O     O_R   0.311660 0.976250 0.449080 -0.458211
O24   O     O_R   0.297580 0.804960 0.544440 -0.484241
O25   O     O_R   0.526220 0.841130 0.542590 -0.500745
O26   O     O_R   0.703030 0.997990 0.553710 -0.467942
O27   O     O_3   0.218319 0.134600 0.214079 -0.580227
H9    H     H_    0.261014 0.137862 0.183960 0.373701
Cl1   Cl    Cl    0.237970 0.174807 0.316136 -0.330157
Cl2   Cl    Cl    0.159623 0.032519 0.399667 -0.391878
Cl3   Cl    Cl    0.783316 0.033856 0.122729 -0.466262
Cl4   Cl    Cl    0.891758 0.045409 0.391659 -0.440165
O28   O     O_3   0.918607 0.115141 0.213689 -0.553711
H10   H     H_    0.951307 0.086114 0.187111 0.367124
O29   O     O_3   0.531233 0.596178 0.125705 -0.640447
H11   H     H_    0.540159 0.537067 0.141993 0.322076
Cl5   Cl    Cl    0.417538 0.493497 0.302903 -0.341707
Cl6   Cl    Cl    0.902626 0.363133 0.201485 -0.435929
O30   O     O_3   0.499534 0.657469 0.381213 -0.570282
H12   H     H_    0.531694 0.663957 0.414482 0.338719
Cl7   Cl    Cl    0.921244 0.405099 0.885007 -0.471367
O31   O     O_3   0.831403 0.318923 0.625376 -0.654865
H13   H     H_    0.904690 0.378595 0.643563 0.329090
O32   O     O_3   0.937210 0.289617 0.797785 -0.588745
H14   H     H_    0.902535 0.235620 0.823292 0.374287
O33   O     O_3   0.480030 0.304417 0.887438 -0.589960
H15   H     H_    0.450794 0.349436 0.870700 0.368055
Cl8   Cl    Cl    0.306945 0.153336 0.817001 -0.496930
O34   O     O_3   0.327716 0.189277 0.710106 -0.664331
H16   H     H_    0.270142 0.194193 0.732391 0.400734
O35   O     O_3   0.327321 0.784541 0.705367 -0.647235
H17   H     H_    0.368916 0.760608 0.727630 0.388074
O36   O     O_3   0.483751 0.333288 0.206991 -0.655350
H18   H     H_    0.492710 0.334291 0.171539 0.324930
Cl9   Cl    Cl    0.321444 0.764939 0.816430 -0.544428
Cl10  Cl    Cl    0.996437 0.915941 0.806790 -0.469890
Cl11  Cl    Cl    0.022874 0.925157 0.693292 -0.462637
Cl12  Cl    Cl    0.618122 0.993252 0.724436 -0.590496
Cl13  Cl    Cl    0.735961 0.600938 0.773589 -0.635265
O37   O     O_3   0.705690 0.661434 0.670079 -0.656887
H19   H     H_    0.720382 0.601290 0.681945 0.376207
O38   O     O_3   0.195008 0.668290 0.120410 -0.646737
H20   H     H_    0.228922 0.701899 0.089741 0.352071
Cl14  Cl    Cl    0.104349 0.617932 0.380670 -0.423806
Cl15  Cl    Cl    0.182614 0.537929 0.290631 -0.348566
O39   O     O_3   0.102907 0.981281 0.133435 -0.650933
H21   H     H_    0.056304 0.000576 0.157108 0.346540

loop_
_geom_bond_atom_site_label_1
_geom_bond_atom_site_label_2
_ccdc_geom_bond_type
C25   O39   S    
C66   C68   A    
O36   H18   S    
C11   C13   A    
Cr1   O1    S    
C35   C36   A    
Cr2   O21   S    
C53   C54   A    
C45   O2    A    
C4    C78   A    
C46   C49   A    
C84   O8    A    
Cr6   O17   S    
C5    C6    S    
C17   C26   A    
C85   O10   A    
C86   O6    A    
C8    C85   S    
C29   C32   A    
Cr5   O8    S    
C4    C7    S    
Cr3   O4    S    
C30   C31   A    
Cr4   O13   S    
C65   C69   A    
Cr2   O5    S    
C23   C26   S    
C12   O22   A    
O39   H21   S    
C58   C60   A    
O30   H12   S    
C23   O1    A    
C57   Cl8   S    
C11   C24   A    
C16   C84   S    
Cr1   O12   S    
C18   C19   A    
C31   H2    S    
C45   C61   S    
C2    O36   S    
Cr3   O22   S    
C56   O4    A    
C11   C15   A    
C1    C43   S    
C21   O27   S    
C34   O25   A    
C22   C25   A    
C75   H6    S    
C44   O31   S    
Cr6   O11   S    
C1    O12   A    
C20   Cl1   S    
C88   O16   A    
C35   C43   A    
C75   C80   A    
C10   C19   A    
C18   C20   A    
Cr4   O19   S    
C77   O37   S    
C40   C42   A    
C30   O28   S    
C21   C22   A    
C90   O18   A    
Cr6   O10   S    
C69   C70   S    
C14   Cl15  S    
C81   C83   T    
C44   C46   A    
C9    C26   A    
C17   C18   A    
C47   C50   A    
C54   C59   A    
C53   C55   A    
C78   C89   A    
C12   C67   S    
C52   H5    S    
C84   O7    A    
C28   C31   A    
C74   C75   A    
C90   O13   A    
O32   H14   S    
C87   O14   A    
Cr1   O24   S    
C39   C40   A    
C74   Cl12  S    
C80   C81   S    
C6    C8    T    
C12   O21   A    
Cr5   O15   S    
C58   C59   A    
C47   C59   A    
Cr4   O6    S    
C66   Cl11  S    
C86   O11   A    
C89   Cl6   S    
Cr2   O26   S    
C33   C86   S    
Cr3   O23   S    
C87   O15   A    
C29   C30   A    
C27   C43   A    
C32   Cl3   S    
C39   H3    S    
C47   C48   A    
Cr4   O7    S    
C46   C54   A    
C78   H1    S    
C35   O30   S    
C50   C51   A    
C77   C79   A    
C15   O38   S    
C60   O33   S    
C64   C69   A    
C76   C77   A    
C13   H8    S    
C65   Cl10  S    
C50   Cl7   S    
Cr2   O2    S    
C40   C41   A    
Cr2   O20   S    
C74   C79   A    
C55   C57   A    
C10   C14   A    
O38   H20   S    
Cr5   O16   S    
C38   Cl5   S    
C22   C24   A    
C2    C5    A    
C33   C42   A    
C3    C4    A    
C27   Cl4   S    
C73   C82   T    
O35   H17   S    
C72   C87   S    
C52   C53   A    
C23   O23   A    
O31   H13   S    
C9    C10   A    
C3    H7    S    
C16   C25   A    
C55   O34   S    
C83   C90   S    
C63   C68   A    
O37   H19   S    
Cr6   O19   S    
C29   C41   A    
C42   O29   S    
C9    Cl14  S    
C76   C80   A    
C88   O17   A    
C51   C88   S    
C79   C82   S    
O29   H11   S    
Cr1   O25   S    
C44   C61   A    
O28   H10   S    
Cr6   O18   S    
C52   C61   A    
C32   C33   A    
Cr1   O5    S    
C85   O9    A    
C19   C24   A    
C1    O20   A    
C63   O35   S    
Cr3   O3    S    
C49   H4    S    
Cr4   O14   S    
C57   C58   A    
C38   C39   A    
C28   C37   A    
Cr5   O9    S    
C68   C71   S    
C48   C49   A    
C48   O32   S    
C64   Cl9   S    
C36   C38   A    
C62   C71   T    
C2    C3    A    
C56   C62   S    
C56   O24   A    
C37   C41   A    
O27   H9    S    
C34   C73   S    
C7    C67   T    
C63   C64   A    
C45   O3    A    
C20   C21   A    
C34   O26   A    
C36   C37   A    
C65   C66   A    
Cr3   O5    S    
C17   Cl2   S    
O33   H15   S    
C76   Cl13  S    
C70   C72   T    
C51   C60   A    
O34   H16   S    
C13   C14   A    
C5    C89   A    
C15   C16   A    
Cr5   O19   S    
C27   C28   A    
