data_mof_unit_47427.cif
_audit_creation_date              2012-12-10T17:21:38-0500
_audit_creation_method            fapswitch 2.2
_symmetry_space_group_name_H-M    P1
_symmetry_Int_Tables_number       1
_space_group_crystal_system       triclinic
_cell_length_a                    10.744553
_cell_length_b                    10.855464
_cell_length_c                    9.572862
_cell_angle_alpha                 90.83193
_cell_angle_beta                  90.301879
_cell_angle_gamma                 92.915954
_cell_volume                      1114.96754459

loop_
_atom_site_label
_atom_site_type_symbol
_atom_type_description
_atom_site_fract_x
_atom_site_fract_y
_atom_site_fract_z
_atom_type_partial_charge
C1    C     C_R   0.510846 0.263453 0.499668 0.784543
C2    C     C_3   0.877906 0.490901 0.499874 -0.011574
C3    C     C_3   0.933288 0.620442 0.545545 -0.419734
C4    C     C_3   0.926298 0.461935 0.348238 -0.053796
C5    C     C_R   0.604047 0.129162 0.745350 -0.143369
C6    C     C_R   0.600283 0.073794 0.875596 -0.140757
C7    C     C_R   0.540665 0.958257 0.889655 -0.159217
C8    C     C_R   0.496608 0.892868 0.771412 -0.154172
C9    C     C_R   0.512308 0.942315 0.635659 0.096529
C10   C     C_R   0.548299 0.068568 0.626811 0.082560
C11   C     C_R   0.524619 0.130250 0.500689 -0.122173
C12   C     C_R   0.260000 0.497490 0.499411 0.863211
C13   C     C_R   0.496708 0.062250 0.378405 -0.211396
C14   C     C_R   0.486558 0.934978 0.381379 -0.170678
C15   C     C_R   0.493242 0.873048 0.508471 -0.077851
C16   C     C_R   0.669091 0.662028 0.147567 -0.174159
C17   C     C_R   0.753327 0.739123 0.076650 -0.224276
C18   C     C_R   0.753475 0.738552 0.932701 -0.163070
C19   C     C_R   0.669040 0.661228 0.858909 -0.099114
C20   C     C_R   0.583235 0.579304 0.926799 0.208565
C21   C     C_R   0.583208 0.579455 0.076530 0.209890
C22   C     C_R   0.421160 0.424088 0.072273 -0.063353
C23   C     C_R   0.495175 0.737941 0.502132 0.828577
C24   C     C_R   0.421184 0.424136 0.924181 -0.050629
C25   C     C_R   0.739734 0.494786 0.500207 0.750512
C26   C     C_3   0.069363 0.387125 0.587900 -0.479156
C27   C     C_3   0.926185 0.391836 0.601624 0.247534
C28   C     C_3   0.076401 0.619021 0.559449 0.222850
C29   C     C_3   0.070154 0.476310 0.346842 -0.375148
C30   C     C_3   0.122072 0.495787 0.497967 -0.012472
Cu1   Cu    Cu3+1 0.499990 0.499990 0.640660 0.947988
Cu2   Cu    Cu3+1 0.500010 0.500010 0.359340 0.936441
H1    H     H_    0.114309 0.389804 0.692961 0.219424
H2    H     H_    0.891297 0.532818 0.276767 0.196049
H3    H     H_    0.906571 0.689381 0.467269 0.182125
H4    H     H_    0.481539 0.107382 0.279980 0.164086
H5    H     H_    0.651942 0.218904 0.738484 0.189395
H6    H     H_    0.639844 0.122346 0.966306 0.143565
H7    H     H_    0.530436 0.918058 0.992100 0.144788
H8    H     H_    0.445805 0.806809 0.790725 0.179361
H9    H     H_    0.470297 0.885101 0.283570 0.168551
H10   H     H_    0.356580 0.361969 0.126339 0.133604
H11   H     H_    0.092581 0.297870 0.538250 0.151871
H12   H     H_    0.675633 0.671853 0.257797 0.198846
H13   H     H_    0.818177 0.800685 0.134150 0.163183
H14   H     H_    0.818065 0.799992 0.877480 0.157108
H15   H     H_    0.673911 0.671141 0.749000 0.190807
H16   H     H_    0.356637 0.361995 0.867295 0.143129
H17   H     H_    0.882179 0.299680 0.574222 0.099436
H18   H     H_    0.101936 0.625586 0.672291 0.160441
H19   H     H_    0.893786 0.650230 0.646984 0.191863
H20   H     H_    0.099393 0.556379 0.281209 0.216945
H21   H     H_    0.111358 0.394278 0.297726 0.174681
N1    N     N_R   0.501200 0.501210 0.147910 -0.197297
N2    N     N_R   0.501250 0.501290 0.852040 -0.202409
O1    O     O_R   0.499990 0.319640 0.618810 -0.583414
O2    O     O_R   0.500000 0.319660 0.381240 -0.589354
O3    O     O_R   0.317680 0.499970 0.618790 -0.590184
O4    O     O_R   0.317700 0.499990 0.381210 -0.568938
O5    O     O_R   0.500000 0.680340 0.618760 -0.621622
O6    O     O_R   0.500010 0.680360 0.381190 -0.591414
O7    O     O_R   0.682300 0.500010 0.618790 -0.550373
O8    O     O_R   0.682320 0.500030 0.381210 -0.616018
Cl1   Cl    Cl    0.148699 0.752572 0.478464 -0.677234
Cl2   Cl    Cl    0.887719 0.420021 0.781562 -0.701348
C31   C     C_3   0.880179 0.332161 0.290919 -0.441431
C32   C     C_3   0.881045 0.326343 0.131430 -0.715063
H22   H     H_    0.815601 0.392485 0.088647 0.281152
H23   H     H_    0.976124 0.348702 0.091184 0.265930
H24   H     H_    0.850576 0.231987 0.094841 0.233486
H25   H     H_    0.939267 0.259470 0.331726 0.206238
H26   H     H_    0.783810 0.307191 0.325074 0.216935

loop_
_geom_bond_atom_site_label_1
_geom_bond_atom_site_label_2
_ccdc_geom_bond_type
Cu1   O5    S    
Cu2   O6    S    
C2    C4    S    
C6    H6    S    
C31   H25   S    
C16   C21   A    
C27   Cl2   S    
C5    H5    S    
Cu1   O1    S    
C9    C10   A    
C16   H12   S    
C26   H1    S    
C4    C29   S    
C1    C11   S    
C3    H3    S    
C2    C27   S    
C12   O3    A    
C32   H24   S    
C22   C24   A    
C15   C23   S    
C17   C18   A    
C9    C15   A    
C5    C10   A    
C22   N1    A    
C22   H10   S    
C13   C14   A    
C24   N2    A    
C4    C31   S    
C23   O5    A    
C11   C13   A    
Cu1   O7    S    
C26   C27   S    
C29   C30   S    
C29   H21   S    
Cu2   O2    S    
C20   N2    A    
C28   H18   S    
C5    C6    A    
C28   Cl1   S    
Cu1   O3    S    
C28   C30   S    
C3    C28   S    
C1    O1    A    
C17   H13   S    
C26   H11   S    
C26   C30   S    
C2    C25   S    
C2    C3    S    
C25   O7    A    
C14   H9    S    
C21   N1    A    
C4    H2    S    
C10   C11   A    
C23   O6    A    
C27   H17   S    
C32   H22   S    
C24   H16   S    
C18   H14   S    
C7    C8    A    
C31   C32   S    
C20   C21   A    
C13   H4    S    
C18   C19   A    
C25   O8    A    
C19   H15   S    
Cu2   N1    S    
C3    H19   S    
C14   C15   A    
C16   C17   A    
C7    H7    S    
C8    H8    S    
Cu2   O4    S    
Cu1   N2    S    
C12   O4    A    
C12   C30   S    
Cu1   Cu2   S    
C31   H26   S    
C6    C7    A    
C19   C20   A    
Cu2   O8    S    
C8    C9    A    
C32   H23   S    
C29   H20   S    
C1    O2    A    
