data_mof_unit_39751.cif
_audit_creation_date              2012-12-10T17:25:32-0500
_audit_creation_method            fapswitch 2.2
_symmetry_space_group_name_H-M    P1
_symmetry_Int_Tables_number       1
_space_group_crystal_system       triclinic
_cell_length_a                    10.099592
_cell_length_b                    10.870559
_cell_length_c                    23.442645
_cell_angle_alpha                 89.463902
_cell_angle_beta                  81.984676
_cell_angle_gamma                 95.314266
_cell_volume                      2536.98073029

loop_
_atom_site_label
_atom_site_type_symbol
_atom_type_description
_atom_site_fract_x
_atom_site_fract_y
_atom_site_fract_z
_atom_type_partial_charge
C1    C     C_R   0.556337 0.732305 0.496855 0.993379
C2    C     C_R   0.443693 0.267632 0.503747 0.991516
C3    C     C_R   0.567832 0.408801 0.759012 -0.064224
C4    C     C_R   0.433266 0.598142 0.241715 -0.068359
C5    C     C_R   0.562265 0.404512 0.699242 -0.166853
C6    C     C_R   0.438995 0.600031 0.301546 -0.171516
C7    C     C_R   0.505112 0.500071 0.672266 -0.190515
C8    C     C_R   0.495465 0.502892 0.327702 -0.189294
C9    C     C_R   0.457061 0.599522 0.704328 0.240098
C10   C     C_R   0.543209 0.404543 0.294780 0.240760
C11   C     C_R   0.462721 0.602471 0.762914 -0.086345
C12   C     C_R   0.537206 0.403841 0.236196 -0.086027
C13   C     C_R   0.516109 0.508165 0.790253 0.170547
C14   C     C_R   0.483908 0.499416 0.209686 0.174894
C15   C     C_2   0.588584 0.863880 0.495572 -0.302137
C16   C     C_2   0.411634 0.135962 0.507195 -0.296780
C17   C     C_2   0.487364 0.934440 0.505455 -0.128431
C18   C     C_2   0.513274 0.065376 0.501029 -0.131120
C19   C     C_2   0.927218 0.509807 0.504585 -0.090441
C20   C     C_2   0.072779 0.490190 0.495417 -0.089438
C21   C     C_R   0.501331 0.499916 0.610391 0.956173
C22   C     C_R   0.498766 0.500511 0.389605 0.956988
C23   C     C_R   0.402501 0.418847 0.124779 0.610310
C24   C     C_R   0.595147 0.590730 0.875303 0.599904
C25   C     C_R   0.582059 0.579341 0.116145 0.552876
C26   C     C_R   0.415633 0.430222 0.883788 0.553263
C27   C     C_R   0.580761 0.591364 0.056411 -0.073984
C28   C     C_R   0.415807 0.418915 0.943630 -0.071347
C29   C     C_R   0.496657 0.503661 0.030188 0.005019
C30   C     C_R   0.499730 0.506721 0.969889 0.006239
C31   C     C_R   0.409703 0.412765 0.064414 -0.088025
C32   C     C_R   0.586788 0.597565 0.935677 -0.085498
C33   C     C_R   0.659777 0.687867 0.022663 -0.099674
C34   C     C_R   0.336019 0.322937 0.977441 -0.096926
C35   C     C_R   0.662813 0.690932 0.962467 -0.097591
C36   C     C_R   0.332843 0.319970 0.037642 -0.099605
H1    H     H_    0.119925 0.614153 0.552648 0.191243
H2    H     H_    0.880078 0.385852 0.447351 0.191456
H3    H     H_    0.424005 0.678038 0.787834 0.192121
H4    H     H_    0.575299 0.328886 0.210641 0.193848
H5    H     H_    0.617654 0.103940 0.492504 0.197461
H6    H     H_    0.383282 0.895822 0.515700 0.200526
H7    H     H_    0.307488 0.096960 0.515405 0.160512
H8    H     H_    0.692466 0.902919 0.485636 0.161918
H9    H     H_    0.109065 0.423151 0.464437 0.169503
H10   H     H_    0.890931 0.576842 0.535567 0.169199
N1    N     N_R   0.489616 0.499030 0.148537 -0.342241
N2    N     N_R   0.508776 0.509998 0.851449 -0.344928
N3    N     N_2   0.842710 0.448880 0.476480 -0.187457
N4    N     N_2   0.157290 0.551120 0.523520 -0.187121
O1    O     O_R   0.431060 0.692470 0.504730 -0.606171
O2    O     O_R   0.568940 0.307530 0.495270 -0.606014
O3    O     O_R   0.651120 0.659650 0.489640 -0.614067
O4    O     O_R   0.348880 0.340350 0.510360 -0.614542
O5    O     O_R   0.389950 0.516450 0.591390 -0.565756
O6    O     O_R   0.610050 0.483550 0.408610 -0.565868
O7    O     O_R   0.610020 0.483630 0.576300 -0.627363
O8    O     O_R   0.389980 0.516370 0.423700 -0.626122
O9    O     O_2   0.308173 0.347719 0.160037 -0.492311
O10   O     O_2   0.689988 0.661567 0.840157 -0.497929
O11   O     O_2   0.675017 0.645841 0.142253 -0.503115
O12   O     O_2   0.323246 0.363419 0.857490 -0.499502
Zn1   Zn    Zn3+2 0.353060 0.521920 0.510080 1.016312
Zn2   Zn    Zn3+2 0.646940 0.478080 0.489920 1.015879
C37   C     C_2   0.728725 0.793792 0.049944 1.021987
O13   O     O_2   0.662263 0.865241 0.078962 -0.544686
O14   O     O_R   0.868955 0.811197 0.042405 -0.720291
H11   H     H_    0.903895 0.886555 0.062919 0.361901
C38   C     C_2   0.266129 0.217383 0.950280 1.021158
O15   O     O_2   0.331851 0.144902 0.921600 -0.549618
O16   O     O_R   0.125852 0.201378 0.957647 -0.716812
H12   H     H_    0.090208 0.126099 0.937278 0.363872
C39   C     C_2   0.735688 0.799450 0.929062 1.019717
O17   O     O_2   0.672430 0.874779 0.908157 -0.564996
O18   O     O_R   0.875981 0.814827 0.921616 -0.715491
H13   H     H_    0.913813 0.892305 0.898290 0.362438
C40   C     C_2   0.258603 0.212086 0.071055 1.017939
O19   O     O_2   0.320772 0.135193 0.091471 -0.553303
O20   O     O_R   0.118256 0.199002 0.078971 -0.715611
H14   H     H_    0.079386 0.121709 0.102222 0.362103
C41   C     C_2   0.621903 0.308263 0.789747 1.004211
O21   O     O_2   0.696200 0.333615 0.825789 -0.577403
O22   O     O_R   0.586084 0.184622 0.778134 -0.727522
H15   H     H_    0.628457 0.125086 0.802058 0.384710
C42   C     C_2   0.379434 0.699778 0.211585 1.008815
O23   O     O_2   0.409700 0.807582 0.222675 -0.532298
O24   O     O_R   0.296058 0.672001 0.169664 -0.771066
H16   H     H_    0.267553 0.748706 0.151674 0.374445
C43   C     C_2   0.615736 0.300958 0.665123 1.014382
O25   O     O_2   0.730189 0.275046 0.667425 -0.588599
O26   O     O_R   0.534830 0.233090 0.630583 -0.783532
H17   H     H_    0.582000 0.164206 0.610098 0.350942
C44   C     C_2   0.386459 0.702729 0.336591 1.008520
O27   O     O_2   0.271815 0.728991 0.335084 -0.584390
O28   O     O_R   0.468461 0.769295 0.371122 -0.785351
H18   H     H_    0.421824 0.837548 0.392415 0.351783
Br1   Br    Br    0.389151 0.737843 0.669975 -0.433076
Br2   Br    Br    0.610919 0.264734 0.327967 -0.422183

loop_
_geom_bond_atom_site_label_1
_geom_bond_atom_site_label_2
_ccdc_geom_bond_type
O24   H16   S    
C44   O27   D    
C27   C29   A    
C39   O17   D    
C19   C20   S    
C41   O21   D    
C19   H10   S    
C33   C37   S    
H2    N3    S    
C40   O19   D    
C27   C33   A    
C23   O9    S    
C15   H8    S    
C36   C40   S    
O3    Zn2   S    
O4    Zn1   S    
C7    C9    A    
C38   O16   S    
C1    O3    A    
C17   H6    S    
C20   N4    D    
O28   H18   S    
C37   O14   S    
O5    Zn1   S    
C3    C41   S    
C8    C22   S    
O6    Zn2   S    
C1    C15   S    
C43   O26   S    
C2    C16   S    
C25   N1    A    
C20   H9    S    
C3    C13   A    
C26   N2    A    
C40   O20   S    
C28   C34   A    
C44   O28   S    
N3    Zn2   S    
N4    Zn1   S    
C39   O18   S    
C10   C12   A    
C41   O22   S    
C42   O24   S    
C23   N1    A    
O14   H11   S    
C24   N2    A    
C32   C35   A    
O1    Zn1   S    
C4    C6    A    
C2    O4    A    
C18   H5    S    
O26   H17   S    
C21   O5    A    
C22   O6    A    
C4    C42   S    
C42   O23   D    
C23   C31   A    
C12   H4    S    
O18   H13   S    
C24   C32   A    
C21   O7    A    
C29   C30   A    
C1    O1    A    
C19   N3    D    
O22   H15   S    
C34   C38   S    
C24   O10   S    
C6    C44   S    
C17   C18   S    
C25   O11   S    
C11   H3    S    
C9    C11   A    
C16   H7    S    
C2    O2    A    
C16   C18   D    
C12   C14   A    
O2    Zn2   S    
O7    Zn2   S    
C5    C7    A    
O8    Zn1   S    
C15   C17   D    
C35   C39   S    
C9    Br1   S    
C3    C5    A    
C22   O8    A    
C13   N2    S    
C6    C8    A    
C14   N1    S    
C25   C27   A    
C10   Br2   S    
C26   C28   A    
C28   C30   A    
C26   O12   S    
O16   H12   S    
C29   C31   A    
C7    C21   S    
C30   C32   A    
H1    N4    S    
C11   C13   A    
C33   C35   A    
C34   C36   A    
C4    C14   A    
C38   O15   D    
O20   H14   S    
C8    C10   A    
C37   O13   D    
C31   C36   A    
C43   O25   D    
C5    C43   S    
