data_mof_unit_8015.cif
_audit_creation_date              2012-12-11T15:15:13-0500
_audit_creation_method            fapswitch 2.2
_symmetry_space_group_name_H-M    P1
_symmetry_Int_Tables_number       1
_space_group_crystal_system       triclinic
_cell_length_a                    18.847206
_cell_length_b                    18.870264
_cell_length_c                    20.346491
_cell_angle_alpha                 107.094047
_cell_angle_beta                  106.387585
_cell_angle_gamma                 111.144564
_cell_volume                      5807.29487383

loop_
_atom_site_label
_atom_site_type_symbol
_atom_type_description
_atom_site_fract_x
_atom_site_fract_y
_atom_site_fract_z
_atom_type_partial_charge
C1    C     C_R   0.084837 0.087896 0.353316 -0.142924
C2    C     C_R   0.757298 0.994511 0.549422 0.075881
C3    C     C_R   0.756879 0.791217 0.273167 0.021073
C4    C     C_R   0.961797 0.217435 0.463876 0.074336
C5    C     C_R   0.229315 0.229392 0.644744 -0.144951
C6    C     C_R   0.915255 0.755578 0.490918 0.146605
C7    C     C_R   0.175517 0.928780 0.480172 -0.128754
C8    C     C_R   0.036041 0.052687 0.717541 -0.126673
C9    C     C_R   0.968064 0.911847 0.653214 -0.091576
C10   C     C_R   0.245257 0.069896 0.544948 -0.132670
C11   C     C_R   0.151676 0.223058 0.708813 -0.144109
C12   C     C_R   0.761403 0.925856 0.505092 -0.132814
C13   C     C_R   0.998115 0.762771 0.431449 -0.182869
C14   C     C_R   0.227178 0.274622 0.710750 0.047259
C15   C     C_R   0.944027 0.708625 0.450260 0.033527
C16   C     C_R   0.253296 0.997413 0.535110 0.073031
C17   C     C_R   0.025373 0.978985 0.724677 0.016088
C18   C     C_R   0.875512 0.575823 0.461106 -0.221598
C19   C     C_R   0.916115 0.617580 0.425088 0.134575
C20   C     C_R   0.937590 0.574259 0.371572 -0.258877
C21   C     C_R   0.926063 0.493380 0.360194 0.138492
C22   C     C_R   0.886578 0.453229 0.398209 0.027167
C23   C     C_R   0.839206 0.815566 0.281347 -0.123126
C24   C     C_R   0.856683 0.492888 0.445176 0.126941
C25   C     C_R   0.959406 0.454983 0.316689 -0.205489
C26   C     C_R   0.961452 0.381953 0.317557 -0.204414
C27   C     C_R   0.928297 0.345726 0.360428 0.140346
C28   C     C_R   0.885686 0.378246 0.396618 0.029335
C29   C     C_R   0.850498 0.341358 0.438554 0.140959
C30   C     C_R   0.810991 0.375651 0.476885 -0.210686
C31   C     C_R   0.815607 0.452234 0.481495 -0.191047
C32   C     C_R   0.945315 0.284388 0.375248 -0.258331
C33   C     C_R   0.920384 0.256608 0.426029 0.114836
C34   C     C_R   0.947443 0.193885 0.519410 -0.131771
C35   C     C_R   0.864760 0.277813 0.449771 -0.254943
C36   C     C_R   0.329706 0.915762 0.551818 -0.258085
C37   C     C_R   0.330105 0.993846 0.572828 0.112475
C38   C     C_R   0.406616 0.069064 0.622123 -0.245267
C39   C     C_R   0.483003 0.067974 0.637845 0.132170
C40   C     C_R   0.482250 0.990406 0.606055 0.027358
C41   C     C_R   0.405448 0.913578 0.566631 0.146378
C42   C     C_R   0.559500 0.143975 0.677826 -0.268880
C43   C     C_R   0.634279 0.144532 0.678936 0.019215
C44   C     C_R   0.631933 0.067853 0.639448 0.115244
C45   C     C_R   0.760715 0.809510 0.346003 -0.072711
C46   C     C_R   0.556704 0.990264 0.606642 0.000923
C47   C     C_R   0.553663 0.913039 0.567537 0.150562
C48   C     C_R   0.478881 0.836266 0.535659 -0.203068
C49   C     C_R   0.404972 0.836522 0.535320 -0.206953
C50   C     C_R   0.700465 0.067555 0.625880 -0.248806
C51   C     C_R   0.693822 0.991816 0.578752 0.106296
C52   C     C_R   0.622675 0.914333 0.554534 -0.251768
C53   C     C_R   0.281965 0.366320 0.760344 0.142594
C54   C     C_R   0.253451 0.413777 0.802358 -0.187794
C55   C     C_R   0.307065 0.499504 0.851828 -0.160123
C56   C     C_R   0.025311 0.200739 0.454428 -0.128527
C57   C     C_R   0.390203 0.538975 0.860362 0.229816
C58   C     C_R   0.416706 0.493326 0.814527 -0.180527
C59   C     C_R   0.363263 0.407533 0.765254 -0.178385
C60   C     C_R   0.614021 0.698804 0.063620 -0.153113
C61   C     C_R   0.685147 0.732028 0.131298 -0.183873
C62   C     C_R   0.606261 0.754772 0.203307 -0.166453
C63   C     C_R   0.534746 0.721077 0.135321 -0.186857
C64   C     C_R   0.537630 0.691958 0.064860 0.226322
C65   C     C_2   0.454857 0.622019 0.924502 -0.231650
C66   C     C_2   0.457503 0.640777 0.994458 -0.218817
C67   C     C_R   0.830907 0.065871 0.569530 -0.148552
C68   C     C_R   0.681808 0.759022 0.201861 0.146122
C69   C     C_R   0.095356 0.025023 0.229081 0.144428
C70   C     C_R   0.049282 0.959397 0.154598 -0.195470
C71   C     C_R   0.080288 0.961864 0.100468 -0.167640
C72   C     C_R   0.159049 0.028750 0.120411 0.222955
C73   C     C_R   0.205108 0.094736 0.194555 -0.176971
C74   C     C_R   0.173777 0.092724 0.248888 -0.181604
C75   C     C_R   0.191913 0.042563 0.917356 -0.193700
C76   C     C_R   0.150652 0.044467 0.849858 -0.169100
C77   C     C_R   0.043778 0.898596 0.800306 -0.180541
C78   C     C_R   0.014633 0.947813 0.288905 -0.140657
C79   C     C_R   0.085217 0.896714 0.867855 -0.169137
C80   C     C_R   0.157038 0.969972 0.928200 0.208789
C81   C     C_2   0.183518 0.038386 0.059958 -0.292114
C82   C     C_2   0.181574 0.975000 0.005525 -0.012767
C83   C     C_R   0.074078 0.973720 0.792151 0.144686
C84   C     C_R   0.061222 0.021289 0.285350 0.046345
H1    H     H_    0.132087 0.153051 0.375046 0.088263
H2    H     H_    0.158000 0.862598 0.458476 0.096555
H3    H     H_    0.077868 0.116812 0.761449 0.098361
H4    H     H_    0.949672 0.845892 0.637318 0.122089
H5    H     H_    0.292731 0.134649 0.583594 0.095516
H6    H     H_    0.122851 0.242297 0.744604 0.087744
H7    H     H_    0.021671 0.744921 0.390222 0.101734
H8    H     H_    0.864729 0.609265 0.506804 0.156614
H9    H     H_    0.968843 0.605116 0.342983 0.118417
H10   H     H_    0.989089 0.484552 0.286439 0.128766
H11   H     H_    0.721635 0.859940 0.489030 0.119685
H12   H     H_    0.993141 0.356751 0.288389 0.130798
H13   H     H_    0.984362 0.264782 0.352939 0.120405
H14   H     H_    0.840393 0.253020 0.484889 0.118186
H15   H     H_    0.783045 0.347257 0.508665 0.130320
H16   H     H_    0.790807 0.481655 0.516436 0.141709
H17   H     H_    0.271099 0.856710 0.517553 0.119040
H18   H     H_    0.407820 0.129466 0.642439 0.117364
H19   H     H_    0.560565 0.203592 0.704082 0.132028
H20   H     H_    0.756242 0.127284 0.647210 0.130982
H21   H     H_    0.860464 0.812442 0.237153 0.092562
H22   H     H_    0.617529 0.855092 0.520371 0.124442
H23   H     H_    0.476262 0.776495 0.506702 0.133907
H24   H     H_    0.346495 0.776980 0.505956 0.131065
H25   H     H_    0.190232 0.385003 0.798033 0.112449
H26   H     H_    0.741635 0.733317 0.127537 0.110481
H27   H     H_    0.601543 0.776077 0.256594 0.113432
H28   H     H_    0.401842 0.605809 0.000799 0.133179
H29   H     H_    0.480774 0.522655 0.820523 0.111710
H30   H     H_    0.618388 0.673911 0.010674 0.110285
H31   H     H_    0.386910 0.372904 0.733322 0.111178
H32   H     H_    0.902393 0.197075 0.541331 0.096221
H33   H     H_    0.510205 0.657447 0.918056 0.132086
H34   H     H_    0.284411 0.534055 0.885180 0.114009
H35   H     H_    0.476238 0.715162 0.137620 0.116426
H36   H     H_    0.987900 0.907521 0.137479 0.115535
H37   H     H_    0.177540 0.102321 0.844179 0.117453
H38   H     H_    0.985479 0.842775 0.756560 0.122892
H39   H     H_    0.264384 0.148435 0.209841 0.123029
H40   H     H_    0.248043 0.099422 0.962976 0.122302
H41   H     H_    0.210951 0.144023 0.306069 0.114312
H42   H     H_    0.709087 0.799809 0.361729 0.100092
H43   H     H_    0.184344 0.092582 0.050902 0.141571
H44   H     H_    0.040760 0.913481 0.042053 0.118892
H45   H     H_    0.056972 0.840241 0.875327 0.118328
H46   H     H_    0.052230 0.210983 0.415689 0.096977
H47   H     H_    0.855726 0.129007 0.612976 0.088410
H48   H     H_    0.999128 0.884579 0.252083 0.090585
H49   H     H_    0.270941 0.255518 0.620914 0.091095
N1    N     N_R   0.052580 0.056040 0.395500 -0.037696
N2    N     N_R   0.954640 0.834860 0.500130 -0.056232
N3    N     N_R   0.122510 0.958490 0.460420 -0.040706
N4    N     N_R   0.990180 0.030970 0.644220 -0.041480
N5    N     N_R   0.947420 0.943960 0.604500 -0.031209
N6    N     N_R   0.165270 0.045500 0.500140 -0.041358
N7    N     N_R   0.109790 0.150600 0.644220 -0.038383
N8    N     N_R   0.002890 0.838860 0.460420 -0.048473
N9    N     N_R   0.834730 0.954500 0.499860 -0.037676
N10   N     N_R   0.890210 0.849400 0.355780 -0.040346
N11   N     N_R   0.997110 0.161140 0.539580 -0.041647
N12   N     N_R   0.841950 0.845400 0.395490 -0.031337
N13   N     N_R   0.045360 0.165140 0.499870 -0.040845
N14   N     N_R   0.877490 0.041510 0.539580 -0.041273
N15   N     N_R   0.009820 0.969030 0.355780 -0.037804
N16   N     N_R   0.158050 0.154600 0.604510 -0.037168
Ni1   Ni    Ni4+2 0.104370 0.104380 0.500010 0.209613
Ni2   Ni    Ni4+2 0.895630 0.895620 0.499990 0.252643
Ni3   Ni    Ni4+2 0.006300 0.904810 0.408930 0.211572
Ni4   Ni    Ni4+2 0.993700 0.095190 0.591070 0.209660
I1    I     I_    0.794145 0.710350 0.491394 -0.521014
N17   N     N_3   0.711213 0.223499 0.716251 -0.223234
H50   H     H_    0.701632 0.262624 0.691548 0.103736
H51   H     H_    0.723573 0.252255 0.773592 0.110682
N18   N     N_3   0.187521 0.905213 0.016842 -0.212484
H52   H     H_    0.135889 0.870476 0.024538 0.102165
H53   H     H_    0.242541 0.929663 0.066272 0.125214

loop_
_geom_bond_atom_site_label_1
_geom_bond_atom_site_label_2
_ccdc_geom_bond_type
N18   H53   S    
C20   H9    S    
C50   H20   S    
N17   H51   S    
C73   C74   A    
C3    C23   A    
C19   C20   A    
C61   C68   A    
C43   C44   A    
C2    C12   A    
C42   H19   S    
C81   C82   D    
C53   C59   A    
C53   C54   A    
C1    C84   A    
C15   C19   S    
C34   N11   A    
C26   C27   A    
C37   C38   A    
C45   N12   A    
C76   H37   S    
C36   C37   A    
C9    H4    S    
C38   C39   A    
C82   N18   S    
C11   C14   A    
C48   H23   S    
C7    H2    S    
C77   C83   A    
C34   H32   S    
C79   H45   S    
C5    N16   A    
C32   H13   S    
C18   C19   A    
C46   C47   A    
N11   Ni4   S    
C78   H48   S    
C77   H38   S    
C6    C15   A    
N13   Ni1   S    
C60   H30   S    
C62   H27   S    
C3    C68   S    
C10   H5    S    
C70   H36   S    
C73   H39   S    
C58   H29   S    
C12   H11   S    
C70   C71   A    
C13   N8    A    
C39   C42   A    
C35   H14   S    
C75   C80   A    
C72   C81   S    
C78   N15   A    
C16   C37   S    
C11   N7    A    
C52   H22   S    
C25   H10   S    
C22   C28   A    
C21   C22   A    
C4    C56   A    
C26   H12   S    
C23   N10   A    
C36   C41   A    
N3    N6    A    
C43   N17   S    
C61   H26   S    
C76   C83   A    
C41   C49   A    
N3    Ni3   S    
C44   C46   A    
C49   H24   S    
C77   C79   A    
C1    H1    S    
C4    C34   A    
C51   C52   A    
N11   N13   A    
C2    C67   A    
C39   C40   A    
C58   C59   A    
C63   C64   A    
C30   H15   S    
C3    C45   A    
C75   H40   S    
C54   H25   S    
N10   Ni3   S    
C60   C61   A    
C17   C83   S    
C64   C66   S    
N9    Ni2   S    
C5    H49   S    
C75   C76   A    
C6    N2    A    
C63   H35   S    
C9    N5    A    
C47   C48   A    
N2    N8    A    
C45   H42   S    
C62   C63   A    
C50   C51   A    
N4    Ni4   S    
C69   C74   A    
C36   H17   S    
N12   Ni2   S    
C31   H16   S    
C5    C14   A    
C6    I1    S    
N7    Ni4   S    
C9    C17   A    
C7    C16   A    
C13   C15   A    
C67   N14   A    
N18   H52   S    
C18   C24   A    
C71   H44   S    
C42   C43   A    
C40   C46   A    
C1    N1    A    
C28   C29   A    
N17   H50   S    
C44   C50   A    
N10   N12   A    
C4    C33   S    
C21   C25   A    
C54   C55   A    
C48   C49   A    
C27   C32   A    
N9    N14   A    
C67   H47   S    
N15   Ni3   S    
C57   C65   S    
C72   C73   A    
C47   C52   A    
N5    Ni2   S    
N1    N15   A    
N4    N5    A    
C29   C35   A    
N6    Ni1   S    
C8    C17   A    
C62   C68   A    
C60   C64   A    
C8    H3    S    
C18   H8    S    
C32   C33   A    
C55   C57   A    
C25   C26   A    
C24   C31   A    
C7    N3    A    
C38   H18   S    
C69   C84   S    
C10   C16   A    
N16   Ni1   S    
C11   H6    S    
C57   C58   A    
C30   C31   A    
N2    Ni2   S    
C33   C35   A    
C80   C82   S    
C12   N9    A    
C22   C24   A    
C56   N13   A    
C69   C70   A    
N14   Ni4   S    
C56   H46   S    
C23   H21   S    
C2    C51   S    
C29   C30   A    
C79   C80   A    
C74   H41   S    
C78   C84   A    
C13   H7    S    
C14   C53   S    
C71   C72   A    
C20   C21   A    
C59   H31   S    
C65   C66   D    
C10   N6    A    
C27   C28   A    
C65   H33   S    
C8    N4    A    
C40   C41   A    
C66   H28   S    
N7    N16   A    
C81   H43   S    
N8    Ni3   S    
C55   H34   S    
N1    Ni1   S    
