data_mof_unit_40175.cif
_audit_creation_date              2012-12-11T14:38:12-0500
_audit_creation_method            fapswitch 2.2
_symmetry_space_group_name_H-M    P1
_symmetry_Int_Tables_number       1
_space_group_crystal_system       triclinic
_cell_length_a                    19.546026
_cell_length_b                    11.182465
_cell_length_c                    19.638077
_cell_angle_alpha                 90.000474
_cell_angle_beta                  96.758221
_cell_angle_gamma                 89.99995
_cell_volume                      4262.52349501

loop_
_atom_site_label
_atom_site_type_symbol
_atom_type_description
_atom_site_fract_x
_atom_site_fract_y
_atom_site_fract_z
_atom_type_partial_charge
C1    C     C_R   0.723901 0.956252 0.361159 0.608931
C2    C     C_R   0.276098 0.956249 0.638841 0.608949
C3    C     C_R   0.225660 0.451916 0.359496 0.632833
C4    C     C_R   0.774340 0.451916 0.640503 0.632830
C5    C     C_3   0.677076 0.434540 0.459179 -0.249891
C6    C     C_3   0.322925 0.434537 0.540821 -0.249881
C7    C     C_3   0.192443 0.982134 0.453435 -0.266091
C8    C     C_3   0.807547 0.982150 0.546569 -0.266045
C9    C     C_3   0.821415 0.481540 0.531758 0.234881
C10   C     C_3   0.178586 0.481536 0.468242 0.234884
C11   C     C_3   0.329577 0.966136 0.531893 0.248215
C12   C     C_3   0.670420 0.966132 0.468108 0.248221
C13   C     C_3   0.767621 0.290123 0.554875 0.136788
C14   C     C_3   0.232380 0.290121 0.445122 0.136787
C15   C     C_3   0.255064 0.795008 0.554407 0.144480
C16   C     C_3   0.744941 0.795010 0.445591 0.144479
C17   C     C_3   0.761512 0.423503 0.567823 0.091459
C18   C     C_3   0.238489 0.423500 0.432176 0.091457
C19   C     C_3   0.263612 0.928835 0.566094 0.083229
C20   C     C_3   0.736388 0.928838 0.433906 0.083234
C21   C     C_3   0.745905 0.391006 0.435877 -0.036498
C22   C     C_3   0.254096 0.391001 0.564121 -0.036498
C23   C     C_3   0.246585 0.892162 0.434787 -0.049041
C24   C     C_3   0.753413 0.892160 0.565213 -0.049042
C25   C     C_3   0.801902 0.486226 0.453897 -0.241682
C26   C     C_3   0.198099 0.486221 0.546103 -0.241678
C27   C     C_3   0.319056 0.944838 0.454807 -0.205280
C28   C     C_3   0.680935 0.944805 0.545189 -0.205272
C29   C     C_3   0.768497 0.275485 0.477173 -0.217462
C30   C     C_3   0.231504 0.275481 0.522823 -0.217471
C31   C     C_3   0.235706 0.777576 0.477017 -0.169082
C32   C     C_3   0.764303 0.777577 0.522982 -0.169090
C33   C     C_3   0.555186 0.235220 0.952904 -0.245829
C34   C     C_3   0.571875 0.236964 0.030970 -0.219126
C35   C     C_3   0.055172 0.735230 0.952907 -0.245712
C36   C     C_3   0.071851 0.737004 0.030973 -0.219158
C37   C     C_3   0.428141 0.236869 0.969026 -0.219116
C38   C     C_3   0.508960 0.041168 0.039159 -0.233326
C39   C     C_3   0.928129 0.736851 0.969025 -0.219174
C40   C     C_3   0.008982 0.541177 0.039156 -0.233286
C41   C     C_3   0.491148 0.041171 0.960818 -0.233370
C42   C     C_3   0.444824 0.235121 0.047092 -0.245824
C43   C     C_3   0.991139 0.541174 0.960820 -0.233293
C44   C     C_3   0.944805 0.735093 0.047093 -0.245692
C45   C     C_R   0.535757 0.180440 0.338273 0.568169
C46   C     C_R   0.464243 0.180439 0.661728 0.568173
C47   C     C_R   0.035763 0.680417 0.338270 0.578108
C48   C     C_R   0.964237 0.680417 0.661730 0.578105
C49   C     C_3   0.485563 0.172095 0.933885 0.054197
C50   C     C_3   0.514478 0.172094 0.066104 0.054205
C51   C     C_3   0.985556 0.672096 0.933886 0.054429
C52   C     C_3   0.014467 0.672096 0.066106 0.054432
C53   C     C_1   0.780490 0.473504 0.914487 -0.018439
C54   C     C_1   0.219509 0.473508 0.085513 -0.018452
C55   C     C_1   0.280495 0.973521 0.914490 -0.019448
C56   C     C_1   0.719509 0.973504 0.085510 -0.019469
C57   C     C_1   0.758334 0.434608 0.041553 -0.047367
C58   C     C_1   0.241665 0.434612 0.958446 -0.047366
C59   C     C_1   0.258339 0.934623 0.041557 -0.047274
C60   C     C_1   0.741663 0.934620 0.958443 -0.047277
C61   C     C_1   0.769965 0.457000 0.973056 -0.050932
C62   C     C_1   0.230034 0.457004 0.026944 -0.050937
C63   C     C_1   0.269971 0.957018 0.973059 -0.050929
C64   C     C_1   0.730032 0.957007 0.026941 -0.050939
C65   C     C_1   0.748555 0.407537 0.099062 -0.012453
C66   C     C_1   0.251444 0.407540 0.900938 -0.012450
C67   C     C_1   0.248558 0.907546 0.099064 -0.012334
C68   C     C_1   0.751442 0.907547 0.900934 -0.012331
C69   C     C_R   0.738624 0.359775 0.362425 0.565284
C70   C     C_R   0.261376 0.359772 0.637574 0.565290
C71   C     C_R   0.238574 0.859593 0.362115 0.562169
C72   C     C_R   0.761426 0.859593 0.637886 0.562163
C73   C     C_R   0.705579 0.995822 0.154562 0.543847
C74   C     C_R   0.294427 0.995841 0.845440 0.543846
C75   C     C_R   0.205576 0.495832 0.154561 0.540570
C76   C     C_R   0.794423 0.495830 0.845439 0.540582
C77   C     C_R   0.534386 0.179103 0.140117 0.527107
C78   C     C_R   0.465642 0.179101 0.859874 0.527066
C79   C     C_R   0.034374 0.679102 0.140120 0.525186
C80   C     C_R   0.965641 0.679101 0.859873 0.525170
C81   C     C_R   0.736730 0.360355 0.164621 0.537893
C82   C     C_R   0.263269 0.360355 0.835379 0.537895
C83   C     C_R   0.236731 0.860357 0.164622 0.536246
C84   C     C_R   0.763268 0.860360 0.835376 0.536250
C85   C     C_1   0.486288 0.173502 0.594730 0.039549
C86   C     C_1   0.513713 0.173503 0.405270 0.039537
C87   C     C_1   0.986075 0.673302 0.594656 0.039886
C88   C     C_1   0.013925 0.673304 0.405344 0.039884
C89   C     C_1   0.503808 0.170785 0.464698 0.003985
C90   C     C_1   0.496193 0.170784 0.535303 0.003986
C91   C     C_1   0.003971 0.670369 0.464741 -0.020376
C92   C     C_1   0.996030 0.670368 0.535259 -0.020376
C93   C     C_3   0.687236 0.460395 0.536320 -0.295908
C94   C     C_3   0.312765 0.460390 0.463680 -0.295897
C95   C     C_3   0.194820 0.986376 0.531741 -0.291297
C96   C     C_3   0.805177 0.986385 0.468262 -0.291270
Cr1   Cr    Cr6+3 0.765780 0.160710 0.267420 1.031544
Cr2   Cr    Cr6+3 0.234220 0.160710 0.732580 1.031546
Cr3   Cr    Cr6+3 0.265780 0.660710 0.267420 1.033671
Cr4   Cr    Cr6+3 0.734220 0.660710 0.732580 1.033668
Cr5   Cr    Cr6+3 0.612200 0.009560 0.248850 1.055073
Cr6   Cr    Cr6+3 0.387800 0.009560 0.751150 1.055078
Cr7   Cr    Cr6+3 0.112200 0.509560 0.248850 1.071615
Cr8   Cr    Cr6+3 0.887800 0.509560 0.751150 1.071611
Cr9   Cr    Cr6+3 0.616030 0.323720 0.248510 1.038084
Cr10  Cr    Cr6+3 0.383970 0.323720 0.751490 1.038086
Cr11  Cr    Cr6+3 0.116030 0.823720 0.248510 1.043009
Cr12  Cr    Cr6+3 0.883970 0.823720 0.751490 1.043010
H1    H     H_    0.674380 0.554327 0.545636 0.168426
H2    H     H_    0.325622 0.554324 0.454362 0.168423
H3    H     H_    0.183748 0.074718 0.550340 0.161562
H4    H     H_    0.816250 0.074724 0.449661 0.161559
H5    H     H_    0.822613 0.256656 0.468281 0.164363
H6    H     H_    0.177388 0.256650 0.531715 0.164359
H7    H     H_    0.262495 0.700501 0.458609 0.210178
H8    H     H_    0.737516 0.700497 0.541388 0.210190
H9    H     H_    0.868316 0.424348 0.540320 0.220448
H10   H     H_    0.131685 0.424344 0.459679 0.220446
H11   H     H_    0.374276 0.910271 0.552978 0.217660
H12   H     H_    0.625720 0.910280 0.447014 0.217653
H13   H     H_    0.848280 0.468546 0.427509 0.107867
H14   H     H_    0.151720 0.468539 0.572489 0.107868
H15   H     H_    0.359520 0.882182 0.441005 0.128944
H16   H     H_    0.640485 0.882111 0.558970 0.128951
H17   H     H_    0.553362 0.328685 0.933235 0.144073
H18   H     H_    0.622586 0.192908 0.045592 0.105883
H19   H     H_    0.053348 0.828687 0.933228 0.144396
H20   H     H_    0.122574 0.692988 0.045601 0.105831
H21   H     H_    0.596584 0.187448 0.929469 0.120830
H22   H     H_    0.577212 0.331836 0.048003 0.151265
H23   H     H_    0.096571 0.687452 0.929481 0.121033
H24   H     H_    0.077163 0.831881 0.048002 0.151430
H25   H     H_    0.422767 0.331732 0.952003 0.151262
H26   H     H_    0.558675 0.993276 0.052423 0.142256
H27   H     H_    0.922750 0.831704 0.952002 0.151419
H28   H     H_    0.058719 0.493378 0.052392 0.142270
H29   H     H_    0.446601 0.328585 0.066773 0.144060
H30   H     H_    0.531520 0.991963 0.936635 0.130874
H31   H     H_    0.946572 0.828564 0.066775 0.144357
H32   H     H_    0.031489 0.491933 0.936616 0.131071
H33   H     H_    0.441463 0.993220 0.947554 0.142309
H34   H     H_    0.403446 0.187273 0.070521 0.120829
H35   H     H_    0.941436 0.493248 0.947578 0.142315
H36   H     H_    0.903429 0.687226 0.070522 0.121034
H37   H     H_    0.468610 0.991883 0.063337 0.130902
H38   H     H_    0.377451 0.192759 0.954398 0.105880
H39   H     H_    0.968674 0.491828 0.063351 0.131118
H40   H     H_    0.877449 0.692731 0.954395 0.105829
H41   H     H_    0.648693 0.408062 0.561432 0.105602
H42   H     H_    0.351307 0.408055 0.438566 0.105597
H43   H     H_    0.150338 0.933959 0.546480 0.100733
H44   H     H_    0.849661 0.933967 0.453530 0.100721
H45   H     H_    0.636861 0.364293 0.448401 0.170222
H46   H     H_    0.363143 0.364290 0.551602 0.170224
H47   H     H_    0.139277 0.958919 0.430570 0.175057
H48   H     H_    0.860716 0.958954 0.569439 0.175068
H49   H     H_    0.658320 0.516003 0.430524 0.217779
H50   H     H_    0.341678 0.516007 0.569478 0.217781
H51   H     H_    0.206183 0.067184 0.432928 0.227705
H52   H     H_    0.793790 0.067197 0.567073 0.227690
H53   H     H_    0.325222 0.029800 0.426647 0.140933
H54   H     H_    0.674742 0.029740 0.573360 0.140948
H55   H     H_    0.781807 0.574025 0.437331 0.181841
H56   H     H_    0.218193 0.574020 0.562671 0.181832
H57   H     H_    0.723882 0.240093 0.572820 0.133539
H58   H     H_    0.276119 0.240093 0.427176 0.133524
H59   H     H_    0.213101 0.762400 0.583382 0.111296
H60   H     H_    0.786902 0.762405 0.416615 0.111295
H61   H     H_    0.735541 0.201904 0.458221 0.208873
H62   H     H_    0.264459 0.201898 0.541773 0.208870
H63   H     H_    0.179450 0.763707 0.470571 0.185926
H64   H     H_    0.820562 0.763718 0.529428 0.185918
O1    O     O_R   0.783100 0.287550 0.345460 -0.530593
O2    O     O_R   0.216900 0.287550 0.654540 -0.530591
O3    O     O_R   0.283100 0.787550 0.345460 -0.525974
O4    O     O_R   0.716900 0.787550 0.654540 -0.525976
O5    O     O_R   0.554710 0.081900 0.170950 -0.531043
O6    O     O_R   0.445290 0.081900 0.829050 -0.531048
O7    O     O_R   0.054710 0.581900 0.170950 -0.533029
O8    O     O_R   0.945290 0.581900 0.829050 -0.533029
O9    O     O_R   0.545650 0.284910 0.163740 -0.524714
O10   O     O_R   0.454350 0.284910 0.836260 -0.524709
O11   O     O_R   0.045650 0.784910 0.163740 -0.525426
O12   O     O_R   0.954350 0.784910 0.836260 -0.525427
O13   O     O_R   0.677950 0.374280 0.185410 -0.498910
O14   O     O_R   0.322050 0.374280 0.814590 -0.498898
O15   O     O_R   0.177950 0.874280 0.185410 -0.499596
O16   O     O_R   0.822050 0.874280 0.814590 -0.499590
O17   O     O_3   0.664670 0.164660 0.254930 -0.279921
O18   O     O_3   0.335330 0.164660 0.745070 -0.279912
O19   O     O_3   0.164670 0.664660 0.254930 -0.276372
O20   O     O_3   0.835330 0.664660 0.745070 -0.276360
O21   O     O_R   0.760020 0.037400 0.337700 -0.521868
O22   O     O_R   0.239980 0.037400 0.662300 -0.521865
O23   O     O_R   0.260020 0.537400 0.337700 -0.517474
O24   O     O_R   0.739980 0.537400 0.662300 -0.517473
O25   O     O_R   0.666600 0.921990 0.332020 -0.450240
O26   O     O_R   0.333400 0.921990 0.667980 -0.450223
O27   O     O_R   0.166600 0.421990 0.332020 -0.410239
O28   O     O_R   0.833400 0.421990 0.667980 -0.410239
O29   O     O_R   0.557260 0.082670 0.312540 -0.472068
O30   O     O_R   0.442740 0.082670 0.687460 -0.472057
O31   O     O_R   0.057260 0.582670 0.312540 -0.459905
O32   O     O_R   0.942740 0.582670 0.687460 -0.459908
O33   O     O_R   0.548410 0.285740 0.316480 -0.516267
O34   O     O_R   0.451590 0.285740 0.683520 -0.516275
O35   O     O_R   0.048410 0.785740 0.316480 -0.514015
O36   O     O_R   0.951590 0.785740 0.683520 -0.514018
O37   O     O_R   0.680500 0.375040 0.327000 -0.482034
O38   O     O_R   0.319500 0.375040 0.673000 -0.482036
O39   O     O_R   0.180500 0.875040 0.327000 -0.481515
O40   O     O_R   0.819500 0.875040 0.673000 -0.481518
O41   O     O_R   0.780350 0.286720 0.192720 -0.514065
O42   O     O_R   0.219650 0.286720 0.807280 -0.514073
O43   O     O_R   0.280350 0.786720 0.192720 -0.516028
O44   O     O_R   0.719650 0.786720 0.807280 -0.516031
O45   O     O_R   0.757470 0.036630 0.196110 -0.492818
O46   O     O_R   0.242530 0.036630 0.803890 -0.492817
O47   O     O_R   0.257470 0.536630 0.196110 -0.497522
O48   O     O_R   0.742530 0.536630 0.803890 -0.497529
O49   O     O_R   0.663840 0.921160 0.179280 -0.505549
O50   O     O_R   0.336160 0.921160 0.820720 -0.505537
O51   O     O_R   0.163840 0.421160 0.179280 -0.508346
O52   O     O_R   0.836160 0.421160 0.820720 -0.508348
F1    F     F_    0.350768 0.081506 0.546321 -0.711594
F2    F     F_    0.649236 0.081507 0.453697 -0.711613
F3    F     F_    0.844789 0.586537 0.560770 -0.705687
F4    F     F_    0.155212 0.586533 0.439232 -0.705687
F5    F     F_    0.829188 0.247557 0.589048 -0.675155
F6    F     F_    0.170814 0.247552 0.410947 -0.675156
F7    F     F_    0.314659 0.732243 0.576919 -0.684459
F8    F     F_    0.685345 0.732243 0.423081 -0.684458

loop_
_geom_bond_atom_site_label_1
_geom_bond_atom_site_label_2
_ccdc_geom_bond_type
C58   C62   S    
C39   C51   S    
C67   C83   S    
C8    C24   S    
Cr11  O15   S    
C9    H9    S    
C14   C18   S    
C93   H41   S    
C35   C36   S    
C8    C96   S    
Cr12  O36   S    
C83   O15   A    
Cr10  O38   S    
Cr7   O19   S    
C9    C25   S    
C70   O2    A    
C36   H20   S    
C76   O52   A    
C15   C19   S    
C40   H28   S    
C11   C19   S    
Cr3   O43   S    
C48   O36   A    
C82   O14   A    
C80   O8    A    
C13   C29   S    
C16   C20   S    
C25   H55   S    
C72   O40   A    
Cr5   O17   S    
C74   O46   A    
Cr6   O26   S    
Cr2   O2    S    
Cr5   O25   S    
Cr7   O7    S    
Cr11  O39   S    
C6    H50   S    
Cr9   O13   S    
C6    C22   S    
Cr3   O23   S    
Cr9   O37   S    
C49   C78   S    
Cr2   O22   S    
C3    C18   S    
C46   O34   A    
C48   O32   A    
C95   H3    S    
Cr1   O21   S    
C37   C42   S    
C51   C80   S    
Cr10  O10   S    
C21   C25   S    
C13   F5    S    
Cr7   O51   S    
C43   C51   S    
C82   O42   A    
C55   C74   S    
C43   H35   S    
C58   C66   T    
C40   C43   S    
C81   O41   A    
C79   O11   A    
C6    C94   S    
Cr8   O20   S    
C55   C63   T    
C39   H40   S    
C42   H34   S    
C77   O9    A    
C56   C64   T    
C78   O6    A    
C73   O49   A    
C23   C27   S    
C37   H38   S    
C14   H58   S    
C52   C79   S    
Cr11  O35   S    
C36   C52   S    
C11   F1    S    
C46   C85   S    
C59   C67   T    
C5    C93   S    
C44   C52   S    
C7    H47   S    
Cr1   O17   S    
C20   C96   S    
C46   O30   A    
C75   O51   A    
C12   H12   S    
C87   C92   T    
C42   H29   S    
C10   F4    S    
Cr8   O28   S    
C15   H59   S    
Cr4   O20   S    
C69   O1    A    
C14   C30   S    
C31   H7    S    
C22   C70   S    
Cr12  O40   S    
C11   C27   S    
Cr9   O9    S    
Cr7   O31   S    
Cr4   O24   S    
C24   C72   S    
C10   C18   S    
C7    H51   S    
C34   C50   S    
Cr1   O1    S    
Cr12  O12   S    
C28   H54   S    
C68   C84   S    
Cr9   O17   S    
Cr10  O14   S    
C38   C41   S    
C11   H11   S    
C91   C92   S    
C81   O13   A    
C27   H15   S    
C39   H27   S    
C54   C62   T    
C40   C52   S    
C21   C29   S    
C15   C31   S    
C16   F8    S    
C3    O23   A    
C21   C69   S    
C78   O10   A    
C5    C21   S    
C23   C31   S    
C1    O21   A    
C24   C32   S    
C38   H37   S    
C41   H33   S    
C10   H10   S    
C23   C71   S    
C66   C82   S    
C37   C49   S    
C13   H57   S    
C88   C91   T    
C75   O47   A    
C34   H18   S    
C12   C20   S    
C33   H17   S    
C33   C34   S    
C48   C87   S    
C47   O31   A    
C43   H32   S    
C9    F3    S    
Cr7   O27   S    
C32   H8    S    
C3    O27   A    
C57   C61   S    
C73   O45   A    
C34   H22   S    
C41   H30   S    
C6    H46   S    
Cr12  O20   S    
Cr2   O18   S    
C42   C50   S    
C30   H62   S    
C4    C17   S    
Cr11  O11   S    
C9    C17   S    
C33   H21   S    
Cr3   O47   S    
C44   H31   S    
C5    H49   S    
C25   H13   S    
Cr2   O46   S    
C35   C51   S    
Cr6   O6    S    
Cr1   O45   S    
C84   O16   A    
C53   C76   S    
C17   C93   S    
Cr10  O18   S    
C39   C44   S    
C53   C61   T    
C8    H52   S    
C50   C77   S    
Cr8   O32   S    
C12   F2    S    
C35   H19   S    
C19   C95   S    
Cr6   O50   S    
C30   H6    S    
Cr5   O49   S    
C4    O24   A    
C29   H5    S    
Cr4   O44   S    
C1    C20   S    
C45   O33   A    
C56   C73   S    
C22   C30   S    
C40   H39   S    
C15   F7    S    
C2    C19   S    
C2    O26   A    
Cr12  O16   S    
C1    O25   A    
C24   C28   S    
C80   O12   A    
C57   C65   T    
C86   C89   T    
Cr10  O34   S    
C83   O43   A    
C85   C90   T    
C28   H16   S    
Cr9   O33   S    
Cr4   O4    S    
C38   C50   S    
C32   H64   S    
C47   O35   A    
C16   C32   S    
C41   C49   S    
C7    C95   S    
C74   O50   A    
C59   C63   S    
C96   H4    S    
C13   C17   S    
C60   C64   S    
C60   C68   T    
C29   H61   S    
C47   C88   S    
C36   H24   S    
C45   C86   S    
Cr6   O30   S    
C35   H23   S    
C94   H2    S    
Cr5   O29   S    
C27   H53   S    
Cr3   O19   S    
C10   C26   S    
Cr8   O8    S    
C7    C23   S    
C31   H63   S    
C16   H60   S    
C18   C94   S    
C26   H56   S    
Cr6   O18   S    
C71   O3    A    
C69   O37   A    
C37   H25   S    
C38   H26   S    
Cr2   O42   S    
C8    H48   S    
C72   O4    A    
C77   O5    A    
C14   F6    S    
Cr3   O3    S    
Cr5   O5    S    
C2    O22   A    
C54   C75   S    
C5    H45   S    
C94   H42   S    
C4    O28   A    
C79   O7    A    
C95   H43   S    
Cr4   O48   S    
C45   O29   A    
C22   C26   S    
Cr11  O19   S    
C65   C81   S    
C76   O48   A    
C71   O39   A    
Cr1   O41   S    
C44   H36   S    
C26   H14   S    
C70   O38   A    
C12   C28   S    
C89   C90   S    
C33   C49   S    
Cr8   O52   S    
C84   O44   A    
C93   H1    S    
C96   H44   S    
