data_mof_unit_22189.cif
_audit_creation_date              2012-12-11T14:21:02-0500
_audit_creation_method            fapswitch 2.2
_symmetry_space_group_name_H-M    P1
_symmetry_Int_Tables_number       1
_space_group_crystal_system       triclinic
_cell_length_a                    11.523046
_cell_length_b                    11.534135
_cell_length_c                    19.541609
_cell_angle_alpha                 90.586705
_cell_angle_beta                  90.368895
_cell_angle_gamma                 59.828415
_cell_volume                      2245.25941245

loop_
_atom_site_label
_atom_site_type_symbol
_atom_type_description
_atom_site_fract_x
_atom_site_fract_y
_atom_site_fract_z
_atom_type_partial_charge
C1    C     C_R   0.615461 0.085439 0.606155 0.560504
C2    C     C_1   0.642069 0.703807 0.668009 0.001597
C3    C     C_1   0.126705 0.198472 0.859294 0.002803
C4    C     C_1   0.171742 0.170271 0.727701 -0.032570
C5    C     C_1   0.150279 0.182054 0.798944 -0.031727
C6    C     C_1   0.195506 0.161033 0.667377 0.001629
C7    C     C_1   0.667996 0.181915 0.864505 -0.001036
C8    C     C_1   0.633506 0.136720 0.736610 -0.032835
C9    C     C_1   0.647623 0.161516 0.806229 -0.030898
C10   C     C_1   0.625317 0.114318 0.676888 -0.000056
C11   C     C_R   0.646993 0.676544 0.193361 0.003506
C12   C     C_R   0.612987 0.745596 0.598580 0.538033
C13   C     C_R   0.555191 0.656735 0.234076 0.018969
C14   C     C_R   0.583411 0.629541 0.303489 0.021008
C15   C     C_R   0.732581 0.721169 0.296175 -0.088958
C16   C     C_R   0.731552 0.715294 0.225435 0.075642
C17   C     C_R   0.438599 0.659134 0.208101 -0.080492
C18   C     C_R   0.374288 0.605737 0.245470 -0.103998
C19   C     C_R   0.416605 0.560035 0.311367 -0.073351
C20   C     C_R   0.520980 0.571126 0.340514 -0.068904
C21   C     C_R   0.659707 0.677750 0.335596 -0.041449
C22   C     C_R   0.139106 0.208059 0.195826 -0.003631
C23   C     C_R   0.241064 0.145351 0.598190 0.542184
C24   C     C_R   0.121920 0.314432 0.240650 0.010178
C25   C     C_R   0.109297 0.300893 0.311259 0.069381
C26   C     C_R   0.201463 0.061384 0.293075 -0.156902
C27   C     C_R   0.178423 0.082100 0.223284 -0.161110
C28   C     C_R   0.118810 0.432677 0.218709 -0.112542
C29   C     C_R   0.081634 0.540511 0.263414 -0.148573
C30   C     C_R   0.043817 0.534943 0.329978 -0.102972
C31   C     C_R   0.053573 0.416828 0.354039 0.126376
C32   C     C_R   0.167921 0.169979 0.337579 0.013843
C33   C     C_R   0.690185 0.177360 0.197522 0.013143
C34   C     C_R   0.645546 0.115607 0.403958 0.547589
C35   C     C_R   0.802357 0.080502 0.237794 0.038857
C36   C     C_R   0.794208 0.093770 0.309102 -0.011258
C37   C     C_R   0.553669 0.244251 0.298414 -0.147197
C38   C     C_R   0.567090 0.258659 0.229131 -0.153525
C39   C     C_R   0.921097 0.969284 0.211091 -0.112660
C40   C     C_R   0.031301 0.890941 0.252737 -0.104585
C41   C     C_R   0.028141 0.915686 0.322698 0.270601
C42   C     C_R   0.910793 0.024812 0.349670 -0.085297
C43   C     C_R   0.666848 0.162073 0.338759 -0.002030
C44   C     C_R   0.081704 0.231028 0.928572 0.545798
C45   C     C_R   0.619832 0.735227 0.403579 0.528321
C46   C     C_R   0.683420 0.604736 0.929534 0.543364
C47   C     C_R   0.706703 0.205517 0.930793 0.546023
C48   C     C_R   0.083513 0.237293 0.125963 0.545685
C49   C     C_R   0.678925 0.616242 0.124752 0.540004
C50   C     C_R   0.710708 0.209080 0.127593 0.541997
C51   C     C_R   0.238702 0.142405 0.403021 0.576909
C52   C     C_1   0.669445 0.647006 0.860200 0.003707
C53   C     C_1   0.655137 0.683897 0.728499 -0.033541
C54   C     C_1   0.662935 0.667177 0.799768 -0.032355
Cr1   Cr    Cr6+3 0.404720 0.198220 0.499960 1.011058
Cr2   Cr    Cr6+3 0.698290 0.897110 0.500380 0.992227
Cr3   Cr    Cr6+3 0.396970 0.904720 0.499610 1.012181
Cr4   Cr    Cr6+3 0.926180 0.151990 0.028120 1.017528
Cr5   Cr    Cr6+3 0.921330 0.451820 0.027470 1.015836
Cr6   Cr    Cr6+3 0.626260 0.446870 0.028710 1.021953
H1    H     H_    0.785020 0.767015 0.319963 0.166376
H2    H     H_    0.077418 0.630594 0.245525 0.126876
H3    H     H_    0.008466 0.621808 0.363249 0.115046
H4    H     H_    0.453578 0.293684 0.319837 0.140286
H5    H     H_    0.929510 0.932774 0.159322 0.153660
H6    H     H_    0.480354 0.328805 0.199711 0.124937
H7    H     H_    0.119643 0.809405 0.229839 0.104438
H8    H     H_    0.906156 0.052171 0.403096 0.109889
H9    H     H_    0.395854 0.702039 0.158909 0.126814
H10   H     H_    0.293064 0.597679 0.222685 0.086014
H11   H     H_    0.365882 0.519655 0.340493 0.113960
H12   H     H_    0.549705 0.538561 0.392808 0.112882
H13   H     H_    0.250858 0.959565 0.311740 0.192648
H14   H     H_    0.151362 0.441779 0.168411 0.138905
H15   H     H_    0.195634 0.998741 0.190408 0.126751
O1    O     O_R   0.267740 0.231960 0.575440 -0.515450
O2    O     O_R   0.685970 0.784660 0.430010 -0.515237
O3    O     O_R   0.502530 0.767000 0.423990 -0.511833
O4    O     O_R   0.288330 0.026350 0.429250 -0.496087
O5    O     O_3   0.499990 0.000020 0.499980 -0.262492
O6    O     O_R   0.821500 0.119340 0.952830 -0.507309
O7    O     O_R   0.037130 0.162530 0.957360 -0.494870
O8    O     O_R   0.056440 0.344740 0.951340 -0.506787
O9    O     O_R   0.797900 0.560360 0.957470 -0.495611
O10   O     O_R   0.596130 0.579390 0.952730 -0.508163
O11   O     O_R   0.639060 0.321160 0.958670 -0.493543
O12   O     O_R   0.527280 0.186640 0.570530 -0.492198
O13   O     O_R   0.821240 0.124200 0.104370 -0.537554
O14   O     O_R   0.036890 0.167040 0.097840 -0.497966
O15   O     O_R   0.056180 0.349610 0.102880 -0.530261
O16   O     O_R   0.797660 0.564870 0.097950 -0.499456
O17   O     O_R   0.595880 0.584250 0.104270 -0.531209
O18   O     O_R   0.638830 0.325670 0.099150 -0.493922
O19   O     O_3   0.824590 0.350230 0.028100 -0.243971
O20   O     O_R   0.728090 0.003450 0.576380 -0.509627
O21   O     O_R   0.682970 0.789190 0.570490 -0.511470
O22   O     O_R   0.499290 0.771880 0.575530 -0.512101
O23   O     O_R   0.285330 0.030870 0.569730 -0.499951
O24   O     O_R   0.270980 0.227080 0.423890 -0.506450
O25   O     O_R   0.530280 0.182120 0.430050 -0.503965
O26   O     O_R   0.731330 0.998570 0.424830 -0.530454
N1    N     N_3   0.004488 0.415074 0.421071 -0.621586
H16   H     H_    0.050166 0.448571 0.456280 0.240975
H17   H     H_    0.901549 0.484236 0.421862 0.221554
O27   O     O_3   0.141276 0.830100 0.361254 -0.573962
C55   C     C_3   0.111498 0.824650 0.430911 -0.007857
H18   H     H_    0.018146 0.819270 0.436893 0.134040
H19   H     H_    0.102092 0.913445 0.458881 0.144831
C56   C     C_3   0.225029 0.699554 0.463534 -0.359882
H20   H     H_    0.321670 0.697240 0.456979 0.187609
H21   H     H_    0.205412 0.699598 0.519096 0.099506
H22   H     H_    0.231649 0.608571 0.439821 0.128130
N2    N     N_3   0.805516 0.762796 0.187717 -0.650722
H23   H     H_    0.884133 0.683077 0.161529 0.254299
H24   H     H_    0.741201 0.833385 0.152161 0.227543

loop_
_geom_bond_atom_site_label_1
_geom_bond_atom_site_label_2
_ccdc_geom_bond_type
C18   H10   S    
Cr2   O20   S    
C22   C48   S    
C25   C31   A    
C41   C42   A    
Cr3   O4    S    
C19   H11   S    
C35   C36   A    
C23   O1    A    
C44   O8    A    
C2    C12   S    
C16   N2    S    
C53   C54   S    
C26   C32   A    
C26   C27   A    
C29   C30   A    
C41   O27   S    
C14   C21   A    
C28   C29   A    
Cr5   O8    S    
Cr2   O26   S    
C44   O7    A    
C56   H21   S    
C30   C31   A    
C55   H18   S    
Cr3   O23   S    
C15   C16   A    
C46   C52   S    
C26   H13   S    
Cr2   O21   S    
C18   C19   A    
C1    O12   A    
C29   H2    S    
C36   C42   A    
C38   H6    S    
C8    C9    S    
C40   H7    S    
Cr1   O25   S    
C34   O25   A    
C45   O3    A    
Cr5   O19   S    
C50   O13   A    
C46   O10   A    
Cr6   O18   S    
C25   C32   A    
C28   H14   S    
C48   O15   A    
C30   H3    S    
C42   H8    S    
C39   H5    S    
Cr3   O5    S    
C49   O16   A    
C27   H15   S    
C52   C54   T    
C21   C45   S    
Cr6   O17   S    
C51   O24   A    
C3    C44   S    
C34   O26   A    
C34   C43   S    
C31   N1    S    
C14   C20   A    
C24   C25   A    
C4    C6    T    
Cr4   O6    S    
C39   C40   A    
Cr6   O11   S    
C33   C50   S    
Cr2   O2    S    
Cr5   O15   S    
C7    C47   S    
C37   C43   A    
C35   C39   A    
C47   O11   A    
C32   C51   S    
C37   C38   A    
C11   C49   S    
C11   C16   A    
C1    O20   A    
Cr3   O22   S    
C17   C18   A    
C15   H1    S    
Cr5   O16   S    
Cr5   O9    S    
N1    H17   S    
C12   O22   A    
C46   O9    A    
Cr1   O1    S    
C40   C41   A    
C22   C27   A    
C22   C24   A    
C56   H22   S    
C49   O17   A    
C37   H4    S    
N2    H23   S    
C7    C9    T    
C17   H9    S    
Cr3   O3    S    
C12   O21   A    
C1    C10   S    
C24   C28   A    
C4    C5    S    
C3    C5    T    
C2    C53   T    
Cr4   O13   S    
Cr6   O10   S    
C50   O18   A    
O27   C55   S    
C33   C38   A    
Cr2   O5    S    
C13   C17   A    
C48   O14   A    
C19   C20   A    
Cr4   O7    S    
Cr4   O19   S    
C56   H20   S    
Cr1   O5    S    
C11   C13   A    
C55   H19   S    
C6    C23   S    
C33   C35   A    
C47   O6    A    
Cr1   O12   S    
N1    H16   S    
Cr4   O14   S    
C51   O4    A    
C15   C21   A    
C23   O23   A    
C8    C10   T    
Cr1   O24   S    
C20   H12   S    
C36   C43   A    
C45   O2    A    
C13   C14   A    
N2    H24   S    
C55   C56   S    
Cr6   O19   S    
