data_mof_unit_5638.cif
_audit_creation_date              2012-12-10T17:07:44-0500
_audit_creation_method            fapswitch 2.2
_symmetry_space_group_name_H-M    P1
_symmetry_Int_Tables_number       1
_space_group_crystal_system       triclinic
_cell_length_a                    10.785487
_cell_length_b                    10.738353
_cell_length_c                    9.998277
_cell_angle_alpha                 87.157454
_cell_angle_beta                  90.207785
_cell_angle_gamma                 91.063673
_cell_volume                      1156.35577349

loop_
_atom_site_label
_atom_site_type_symbol
_atom_type_description
_atom_site_fract_x
_atom_site_fract_y
_atom_site_fract_z
_atom_type_partial_charge
Br1   Br    Br    0.854218 0.534624 0.181711 -0.469017
Br2   Br    Br    0.179470 0.770070 0.493305 -0.532107
Br3   Br    Br    0.368141 0.884970 0.242647 -0.376913
Br4   Br    Br    0.623111 0.736764 0.132453 -0.471259
Br5   Br    Br    0.862084 0.230087 0.556972 -0.595115
Br6   Br    Br    0.881728 0.394378 0.790086 -0.480190
Br7   Br    Br    0.137734 0.597113 0.211834 -0.393868
C1    C     C_R   0.492793 0.262147 0.503054 0.937331
C2    C     C_2   0.553385 0.586532 0.068009 0.398697
C3    C     C_R   0.257585 0.495910 0.498980 0.937173
C4    C     C_R   0.504372 0.737321 0.496152 1.009162
C5    C     C_R   0.742364 0.501139 0.499525 0.920496
C6    C     C_3   0.070653 0.394335 0.594377 -0.624606
C7    C     C_3   0.928121 0.395819 0.599885 0.462247
C8    C     C_3   0.075177 0.625157 0.545362 0.098950
C9    C     C_3   0.071393 0.468444 0.346264 0.359985
C10   C     C_3   0.120934 0.497027 0.493140 -0.136057
C11   C     C_3   0.896411 0.737956 0.407215 -0.280742
C12   C     C_3   0.878856 0.504876 0.496964 -0.210095
C13   C     C_3   0.893117 0.880391 0.427148 -0.365399
C14   C     C_3   0.851513 0.951908 0.299335 -0.780346
C15   C     C_3   0.399475 0.073032 0.634586 -0.386267
C16   C     C_3   0.272026 0.129563 0.654099 -0.376097
C17   C     C_3   0.202760 0.064849 0.771628 -0.804690
C18   C     C_3   0.870456 0.694493 0.658932 -0.385885
C19   C     C_3   0.945587 0.792325 0.736104 -0.378252
C20   C     C_3   0.862660 0.860926 0.830412 -0.764921
C21   C     C_3   0.114233 0.336530 0.300163 -0.483858
C22   C     C_3   0.078717 0.305854 0.155695 -0.270024
C23   C     C_3   0.931157 0.642847 0.528547 0.085627
C24   C     C_3   0.124361 0.177120 0.122861 -0.846407
C25   C     C_3   0.927349 0.468033 0.352203 0.012909
C26   C     C_2   0.468664 0.939397 0.389196 0.394219
C27   C     C_2   0.523321 0.868222 0.484950 -0.444281
C28   C     C_2   0.483988 0.071047 0.396244 -0.241018
C29   C     C_2   0.463216 0.130821 0.508837 -0.084090
C30   C     C_2   0.567748 0.575530 0.920460 -0.102187
H1    H     H_    0.110581 0.408717 0.695339 0.236034
H2    H     H_    0.860915 0.053760 0.312296 0.267429
H3    H     H_    0.909308 0.927944 0.212854 0.281848
H4    H     H_    0.752714 0.930126 0.278112 0.289531
H5    H     H_    0.827085 0.902590 0.506837 0.239875
H6    H     H_    0.985462 0.918501 0.452597 0.278631
H7    H     H_    0.959351 0.726118 0.322881 0.292449
H8    H     H_    0.801640 0.713880 0.372766 0.230303
H9    H     H_    0.189361 0.963976 0.755237 0.278747
H10   H     H_    0.255538 0.075918 0.865995 0.270276
H11   H     H_    0.110228 0.107115 0.781083 0.270400
H12   H     H_    0.579184 0.909575 0.562719 0.131170
H13   H     H_    0.282985 0.229964 0.673731 0.229686
H14   H     H_    0.215968 0.119306 0.561570 0.241849
H15   H     H_    0.382837 0.971523 0.631471 0.246990
H16   H     H_    0.459167 0.088726 0.723271 0.225275
H17   H     H_    0.790095 0.912636 0.772779 0.261978
H18   H     H_    0.817847 0.793658 0.903896 0.292346
H19   H     H_    0.919417 0.928727 0.885923 0.263601
H20   H     H_    0.018255 0.745560 0.798296 0.253136
H21   H     H_    0.992421 0.862376 0.668661 0.256323
H22   H     H_    0.777554 0.731705 0.632480 0.190016
H23   H     H_    0.517795 0.119319 0.305049 0.184837
H24   H     H_    0.848397 0.621075 0.733958 0.260118
H25   H     H_    0.227324 0.175826 0.124307 0.270961
H26   H     H_    0.087707 0.104675 0.196215 0.283985
H27   H     H_    0.091193 0.154404 0.021696 0.263520
H28   H     H_    0.976608 0.305290 0.142749 0.268263
H29   H     H_    0.120097 0.375260 0.082189 0.274108
H30   H     H_    0.215613 0.325413 0.309800 0.229940
H31   H     H_    0.072631 0.260832 0.365607 0.207872
H32   H     H_    0.632341 0.638546 0.867132 0.179331
H33   H     H_    0.432403 0.450000 0.901028 0.156424
H34   H     H_    0.103315 0.301716 0.570157 0.195271
H35   H     H_    0.474022 0.419248 0.107010 0.131452
H36   H     H_    0.095113 0.618784 0.654339 0.161051
H37   H     H_    0.892692 0.371763 0.340873 0.179734
N1    N     N_2   0.501360 0.501330 0.852150 -0.199630
N2    N     N_2   0.501390 0.501360 0.147810 -0.187702
O1    O     O_R   0.499980 0.319060 0.613040 -0.600420
O2    O     O_R   0.500020 0.319100 0.386900 -0.643289
O3    O     O_R   0.314770 0.499960 0.613070 -0.630687
O4    O     O_R   0.314820 0.500000 0.386930 -0.572579
O5    O     O_R   0.499980 0.680900 0.613100 -0.626964
O6    O     O_R   0.500020 0.680940 0.386960 -0.521100
O7    O     O_R   0.685180 0.500000 0.613070 -0.591954
O8    O     O_R   0.685230 0.500040 0.386930 -0.569459
Zn1   Zn    Zn3+2 0.499970 0.499970 0.650990 0.985695
Zn2   Zn    Zn3+2 0.500030 0.500030 0.349010 1.050223

loop_
_geom_bond_atom_site_label_1
_geom_bond_atom_site_label_2
_ccdc_geom_bond_type
C9    C21   S    
C30   H32   S    
C28   C29   D    
H35   N2    S    
C20   H17   S    
C4    O5    A    
C19   C20   S    
C21   C22   S    
C21   H31   S    
O8    Zn2   S    
C25   H37   S    
C20   H18   S    
Br3   C26   S    
C3    C10   S    
C5    O8    A    
C1    C29   S    
O4    Zn2   S    
N1    Zn1   S    
C9    C10   S    
C16   C17   S    
C11   C23   S    
C2    N2    D    
O2    Zn2   S    
C30   N1    D    
O1    Zn1   S    
C6    C7    S    
C1    O2    A    
C24   H25   S    
C12   C25   S    
C24   H27   S    
C15   H16   S    
C4    O6    A    
C17   H11   S    
C24   H26   S    
C21   H30   S    
C3    O4    A    
C20   H19   S    
C16   H13   S    
C6    H34   S    
C18   C19   S    
O6    Zn2   S    
Br1   C25   S    
C5    O7    A    
C28   H23   S    
C11   H7    S    
Br6   C7    S    
C16   H14   S    
C14   H2    S    
C2    C30   S    
C26   C27   D    
C6    H1    S    
C18   H24   S    
Br2   C8    S    
C19   H21   S    
Br5   C7    S    
C22   H28   S    
Br7   C9    S    
C8    H36   S    
C1    O1    A    
C14   H4    S    
C11   H8    S    
N2    Zn2   S    
O3    Zn1   S    
C13   H6    S    
C8    C23   S    
C15   H15   S    
C18   C23   S    
C8    C10   S    
C27   H12   S    
O7    Zn1   S    
C17   H10   S    
C7    C12   S    
C4    C27   S    
C13   H5    S    
C3    O3    A    
C9    C25   S    
C15   C29   S    
C6    C10   S    
C17   H9    S    
C22   C24   S    
C14   H3    S    
C5    C12   S    
C26   C28   S    
C11   C13   S    
C19   H20   S    
C22   H29   S    
C13   C14   S    
H33   N1    S    
C15   C16   S    
C18   H22   S    
Br4   C2    S    
C12   C23   S    
O5    Zn1   S    
