data_mof_unit_60698.cif
_audit_creation_date              2012-12-10T21:32:50-0500
_audit_creation_method            fapswitch 2.2
_symmetry_space_group_name_H-M    P1
_symmetry_Int_Tables_number       1
_space_group_crystal_system       triclinic
_cell_length_a                    11.552255
_cell_length_b                    16.159551
_cell_length_c                    16.63724
_cell_angle_alpha                 86.600307
_cell_angle_beta                  91.036127
_cell_angle_gamma                 91.23929
_cell_volume                      3099.19731576

loop_
_atom_site_label
_atom_site_type_symbol
_atom_type_description
_atom_site_fract_x
_atom_site_fract_y
_atom_site_fract_z
_atom_type_partial_charge
C1    C     C_R   0.496065 0.488312 0.653324 0.898579
C2    C     C_R   0.467444 0.108458 0.489904 0.113244
C3    C     C_R   0.581370 0.840140 0.572309 -0.317714
C4    C     C_R   0.418630 0.159860 0.427690 -0.317713
C5    C     C_R   0.572242 0.753189 0.570715 -0.100673
C6    C     C_R   0.427759 0.246811 0.429285 -0.100673
C7    C     C_R   0.718152 0.499212 0.500113 0.905112
C8    C     C_R   0.281848 0.500788 0.499887 0.905113
C9    C     C_1   0.838523 0.498020 0.500016 -0.168328
C10   C     C_1   0.161477 0.501979 0.499984 -0.168328
C11   C     C_1   0.940674 0.498976 0.499997 0.019962
C12   C     C_R   0.503935 0.511688 0.346676 0.898579
C13   C     C_1   0.059326 0.501024 0.500003 0.019962
C14   C     C_R   0.479235 0.480392 0.739747 -0.139220
C15   C     C_R   0.520768 0.519607 0.260253 -0.139221
C16   C     C_R   0.432581 0.546870 0.777824 -0.207009
C17   C     C_R   0.567421 0.453129 0.222177 -0.207009
C18   C     C_R   0.417698 0.542162 0.860455 0.470565
C19   C     C_R   0.582308 0.457837 0.139547 0.470564
C20   C     C_R   0.455573 0.470705 0.905902 0.183781
C21   C     C_R   0.544438 0.529295 0.094099 0.183779
C22   C     C_R   0.494345 0.402253 0.867352 -0.211010
C23   C     C_R   0.505920 0.406839 0.784238 -0.194367
C24   C     C_R   0.505668 0.597748 0.132648 -0.211011
C25   C     C_R   0.494089 0.593162 0.215762 -0.194366
C26   C     C_R   0.464580 0.765930 0.448171 0.511049
C27   C     C_R   0.535419 0.234069 0.551829 0.511049
C28   C     C_R   0.478548 0.852723 0.444676 0.374636
C29   C     C_R   0.521452 0.147277 0.555324 0.374637
C30   C     C_R   0.532556 0.891542 0.510095 0.113244
H1    H     H_    0.593178 0.397330 0.256673 0.188455
H2    H     H_    0.388073 0.285258 0.381457 0.179742
H3    H     H_    0.655217 0.408521 0.049984 0.348440
H4    H     H_    0.344792 0.591477 0.950019 0.348441
H5    H     H_    0.633552 0.319696 0.592108 0.363174
H6    H     H_    0.366446 0.680304 0.407892 0.363175
H7    H     H_    0.508350 0.054616 0.633917 0.346210
H8    H     H_    0.491649 0.945384 0.366082 0.346210
H9    H     H_    0.406820 0.602667 0.743328 0.188454
H10   H     H_    0.521977 0.347270 0.902279 0.184847
H11   H     H_    0.478039 0.652732 0.097721 0.184847
H12   H     H_    0.539974 0.354455 0.755290 0.215493
H13   H     H_    0.460036 0.645547 0.244709 0.215493
H14   H     H_    0.626250 0.867441 0.622274 0.201816
H15   H     H_    0.373750 0.132559 0.377725 0.201816
H16   H     H_    0.611928 0.714742 0.618542 0.179742
N1    N     N_2   0.468764 0.470348 0.989838 -0.178604
N2    N     N_2   0.531248 0.529652 0.010162 -0.178604
N3    N     N_R   0.513820 0.716920 0.509720 -0.173311
N4    N     N_R   0.486180 0.283080 0.490280 -0.173312
N5    N     N_2   0.542047 0.980052 0.514843 -0.135830
N6    N     N_2   0.457953 0.019948 0.485157 -0.135830
O1    O     O_R   0.495050 0.422540 0.612660 -0.605670
O2    O     O_3   0.369075 0.608726 0.894635 -0.751605
O3    O     O_3   0.596961 0.267783 0.613740 -0.723649
O4    O     O_3   0.403039 0.732216 0.386260 -0.723651
O5    O     O_3   0.560373 0.103520 0.623906 -0.695529
O6    O     O_3   0.439626 0.896480 0.376094 -0.695530
O7    O     O_R   0.504950 0.577460 0.387340 -0.605668
O8    O     O_R   0.503930 0.561840 0.618900 -0.625013
O9    O     O_R   0.496070 0.438160 0.381100 -0.625014
O10   O     O_R   0.661110 0.430350 0.496870 -0.639184
O11   O     O_R   0.338890 0.569650 0.503130 -0.639183
O12   O     O_R   0.669990 0.569650 0.503110 -0.598707
O13   O     O_R   0.330010 0.430350 0.496890 -0.598706
O14   O     O_3   0.630929 0.391271 0.105368 -0.751604
Zn1   Zn    Zn3+2 0.494070 0.406980 0.495830 0.960318
Zn2   Zn    Zn3+2 0.505930 0.593020 0.504170 0.960319

loop_
_geom_bond_atom_site_label_1
_geom_bond_atom_site_label_2
_ccdc_geom_bond_type
C14   C23   A    
C3    C30   A    
C2    C4    A    
C30   N5    S    
C12   C15   S    
C7    O10   A    
C24   H11   S    
N3    Zn2   S    
C28   O6    S    
O7    Zn2   S    
C27   C29   A    
C11   C13   S    
N4    Zn1   S    
O9    Zn1   S    
C26   C28   A    
N1    N2    D    
C27   N4    A    
C3    C5    A    
C21   N2    S    
C22   H10   S    
C25   H13   S    
C28   C30   A    
C21   C24   A    
C8    O13   A    
H8    O6    S    
C6    N4    A    
C12   O9    A    
C9    C11   T    
C5    N3    A    
C1    C14   S    
C23   H12   S    
C2    N6    S    
O10   Zn1   S    
C2    C29   A    
H6    O4    S    
O12   Zn2   S    
C8    C10   S    
C17   C19   A    
C17   H1    S    
C20   C22   A    
H3    O14   S    
H4    O2    S    
C18   C20   A    
C4    H15   S    
O1    Zn1   S    
C27   O3    S    
C3    H14   S    
C15   C25   A    
C20   N1    S    
C18   O2    S    
C8    O11   A    
H5    O3    S    
N5    N6    D    
C26   O4    S    
C7    C9    S    
C24   C25   A    
O8    Zn2   S    
C19   O14   S    
C16   C18   A    
C4    C6    A    
C5    H16   S    
C1    O8    A    
C15   C17   A    
C1    O1    A    
C22   C23   A    
C6    H2    S    
C7    O12   A    
C16   H9    S    
C19   C21   A    
C14   C16   A    
O11   Zn2   S    
C12   O7    A    
H7    O5    S    
C29   O5    S    
O13   Zn1   S    
C10   C13   T    
C26   N3    A    
