data_mof_unit_61148.cif
_audit_creation_date              2012-12-11T17:27:25-0500
_audit_creation_method            fapswitch 2.2
_symmetry_space_group_name_H-M    P1
_symmetry_Int_Tables_number       1
_space_group_crystal_system       triclinic
_cell_length_a                    6.954609
_cell_length_b                    21.245126
_cell_length_c                    22.926069
_cell_angle_alpha                 92.94685
_cell_angle_beta                  89.107384
_cell_angle_gamma                 89.519329
_cell_volume                      3382.32906757

loop_
_atom_site_label
_atom_site_type_symbol
_atom_type_description
_atom_site_fract_x
_atom_site_fract_y
_atom_site_fract_z
_atom_type_partial_charge
O1    O     O_R   0.494570 0.443040 0.441850 -0.536396
O2    O     O_R   0.823720 0.437670 0.557760 -0.535772
O3    O     O_R   0.994070 0.556960 0.558150 -0.524412
C1    C     C_R   0.654370 0.422772 0.577122 0.724256
O4    O     O_R   0.824280 0.435690 0.442260 -0.530281
O5    O     O_R   0.994640 0.554970 0.441830 -0.533563
C2    C     C_R   0.657174 0.420490 0.422921 0.736085
O6    O     O_R   0.494000 0.445030 0.558170 -0.534282
O7    O     O_3   0.660820 0.539140 0.499990 -0.364776
V1    V     V_3+5 0.935650 0.492740 0.500000 1.445994
O8    O     O_R   0.324360 0.562330 0.442240 -0.532218
C3    C     C_R   0.155962 0.577025 0.422543 0.726437
O9    O     O_R   0.323800 0.564310 0.557740 -0.525087
C4    C     C_R   0.153220 0.582232 0.580002 0.697579
V2    V     V_3+5 0.435660 0.507260 0.500000 1.439098
O10   O     O_3   0.160620 0.460860 0.500010 -0.360213
C5    C     C_1   0.139853 0.633396 0.631299 -0.201302
C6    C     C_1   0.128964 0.675080 0.673605 0.015107
C7    C     C_1   0.115966 0.724852 0.724347 0.001551
C8    C     C_1   0.105109 0.766413 0.766761 0.001555
C9    C     C_1   0.092091 0.816183 0.817504 0.015082
C10   C     C_1   0.081146 0.857865 0.859812 -0.202335
H1    H     H_    0.370914 0.821115 0.228936 0.123727
C11   C     C_R   0.270029 0.745472 0.281365 0.328815
C12   C     C_R   0.121194 0.702104 0.290384 0.073684
C13   C     C_R   0.958804 0.701883 0.253589 0.075490
C14   C     C_R   0.947927 0.745085 0.208879 -0.191808
H2    H     H_    0.823866 0.745019 0.180825 0.127196
C15   C     C_R   0.095886 0.788017 0.199694 0.075562
C16   C     C_R   0.256356 0.787927 0.235922 -0.252390
C17   C     C_1   0.136126 0.658394 0.337609 0.036703
C18   C     C_1   0.083089 0.832269 0.153150 -0.015304
C19   C     C_1   0.073543 0.869394 0.114488 -0.191833
C20   C     C_1   0.146650 0.621621 0.376517 -0.182983
H3    H     H_    0.324439 0.307594 0.723378 0.131739
C21   C     C_R   0.443226 0.235546 0.775116 -0.163615
H4    H     H_    0.308171 0.228629 0.797981 0.170764
C22   C     C_R   0.606216 0.199695 0.788133 0.029499
C23   C     C_R   0.781994 0.209897 0.757590 0.359588
C24   C     C_R   0.788729 0.255499 0.715235 -0.144609
H5    H     H_    0.922970 0.263173 0.692114 0.136874
C25   C     C_R   0.625127 0.290975 0.702494 0.053787
C26   C     C_R   0.452396 0.280677 0.732648 -0.149572
C27   C     C_1   0.589467 0.153357 0.832641 -0.049716
C28   C     C_1   0.634875 0.337737 0.658416 -0.027665
C29   C     C_1   0.643638 0.376622 0.621461 -0.181014
C30   C     C_1   0.577457 0.114730 0.869759 -0.177448
C31   C     C_R   0.449857 0.242536 0.211387 -0.170449
H6    H     H_    0.320323 0.239064 0.185672 0.182725
C32   C     C_R   0.604637 0.201861 0.198855 -0.077293
C33   C     C_R   0.775286 0.205358 0.231564 0.264841
C34   C     C_R   0.785169 0.250698 0.278246 0.361760
C35   C     C_R   0.627613 0.291311 0.290296 -0.086840
C36   C     C_R   0.458969 0.287807 0.256765 0.305611
C37   C     C_1   0.583200 0.156414 0.152382 -0.008295
C38   C     C_1   0.641759 0.336379 0.337540 0.052746
C39   C     C_1   0.651019 0.374580 0.376949 -0.173651
C40   C     C_1   0.569876 0.117631 0.113601 -0.188582
O11   O     O_R   0.726340 0.046440 0.933120 -0.535065
O12   O     O_R   0.395690 0.055650 0.048950 -0.535268
O13   O     O_R   0.225700 0.936320 0.049330 -0.532092
C41   C     C_R   0.562793 0.071052 0.068217 0.741120
O14   O     O_R   0.396600 0.053690 0.933450 -0.534371
O15   O     O_R   0.226620 0.934340 0.933010 -0.523234
C42   C     C_R   0.566003 0.068675 0.914159 0.727136
O16   O     O_R   0.725420 0.048420 0.049440 -0.535057
O17   O     O_3   0.559650 0.952270 0.991250 -0.365295
V3    V     V_3+5 0.284670 0.998570 0.991180 1.434157
O18   O     O_R   0.896930 0.926880 0.933340 -0.525447
C43   C     C_R   0.067593 0.909020 0.911112 0.699006
O19   O     O_R   0.896010 0.928840 0.048840 -0.535780
C44   C     C_R   0.064389 0.914197 0.068589 0.728679
V4    V     V_3+5 0.784710 0.983880 0.991060 1.427363
O20   O     O_3   0.059600 0.030370 0.991120 -0.361421
O21   O     O_3   0.932508 0.165984 0.219777 -0.653600
H7    H     H_    0.910252 0.137858 0.184902 0.301374
O22   O     O_3   0.945682 0.256797 0.313068 -0.617183
H8    H     H_    0.044862 0.225211 0.300158 0.348588
O23   O     O_3   0.426951 0.745745 0.317582 -0.648921
H9    H     H_    0.518625 0.778223 0.305301 0.287860
C45   C     C_3   0.795148 0.656351 0.261214 -0.333203
C46   C     C_3   0.847770 0.590570 0.235704 -0.741446
H10   H     H_    0.882940 0.592328 0.188385 0.232155
H11   H     H_    0.972902 0.570955 0.258385 0.226834
H12   H     H_    0.723844 0.558648 0.241086 0.220446
H13   H     H_    0.755892 0.654188 0.308235 0.205353
H14   H     H_    0.664558 0.672722 0.238844 0.195801
O24   O     O_3   0.949764 0.176961 0.767212 -0.653236
H15   H     H_    0.928066 0.146667 0.797922 0.293316
O25   O     O_3   0.300485 0.326985 0.266384 -0.620863
H16   H     H_    0.322232 0.357273 0.299748 0.302147

loop_
_geom_bond_atom_site_label_1
_geom_bond_atom_site_label_2
_ccdc_geom_bond_type
C12   C17   S    
O14   C42   A    
C40   C41   S    
C14   C15   A    
V4    O20   S    
C7    C8    T    
C1    O6    A    
C45   C46   S    
C1    C29   S    
O22   H8    S    
C31   C36   A    
C13   C14   A    
O15   V3    S    
C21   H4    S    
C33   O21   S    
C36   O25   S    
C15   C18   S    
O5    C3    A    
C22   C23   A    
C2    C39   S    
V3    O20   S    
V2    O10   S    
C38   C39   T    
O12   C41   A    
C6    C7    S    
C19   C44   S    
O8    V2    S    
O18   V4    S    
O17   V4    S    
O15   C43   A    
H3    C26   S    
O7    V1    S    
O11   V4    S    
C45   H13   S    
C27   C30   T    
C31   C32   A    
O9    C4    A    
C4    C5    S    
C23   O24   S    
C32   C33   A    
C41   O16   A    
O17   V3    S    
H1    C16   S    
C11   C12   A    
C23   C24   A    
O4    C2    A    
C12   C13   A    
C35   C36   A    
O16   V4    S    
C33   C34   A    
C25   C28   S    
O2    C1    A    
O21   H7    S    
C22   C27   S    
C15   C16   A    
C11   O23   S    
C5    C6    T    
C17   C20   T    
C8    C9    S    
C45   H14   S    
O3    C4    A    
O1    V2    S    
O13   C44   A    
C31   H6    S    
C13   C45   S    
C46   H11   S    
O9    V2    S    
C25   C26   A    
C3    C20   S    
C34   O22   S    
O2    V1    S    
C34   C35   A    
O19   V4    S    
C35   C38   S    
O14   V3    S    
C24   H5    S    
O1    C2    A    
O5    V1    S    
O8    C3    A    
O6    V2    S    
C46   H12   S    
C32   C37   S    
C18   C19   T    
C21   C22   A    
O7    V2    S    
O19   C44   A    
O3    V1    S    
V1    O10   S    
O11   C42   A    
O13   V3    S    
O25   H16   S    
C24   C25   A    
C30   C42   S    
O18   C43   A    
C11   C16   A    
O23   H9    S    
C28   C29   T    
O4    V1    S    
O24   H15   S    
O12   V3    S    
C46   H10   S    
C37   C40   T    
C14   H2    S    
C21   C26   A    
C9    C10   T    
C10   C43   S    
