data_mof_unit_31863.cif
_audit_creation_date              2012-12-10T17:56:45-0500
_audit_creation_method            fapswitch 2.2
_symmetry_space_group_name_H-M    P1
_symmetry_Int_Tables_number       1
_space_group_crystal_system       triclinic
_cell_length_a                    10.879834
_cell_length_b                    9.581924
_cell_length_c                    10.899349
_cell_angle_alpha                 89.923411
_cell_angle_beta                  92.055318
_cell_angle_gamma                 89.500674
_cell_volume                      1135.47866914

loop_
_atom_site_label
_atom_site_type_symbol
_atom_type_description
_atom_site_fract_x
_atom_site_fract_y
_atom_site_fract_z
_atom_type_partial_charge
C1    C     C_R   0.262432 0.500125 0.504039 0.934894
C2    C     C_R   0.737735 0.499570 0.501287 0.960482
C3    C     C_R   0.935185 0.626648 0.502200 0.553443
C4    C     C_R   0.062053 0.626940 0.502794 0.550762
C5    C     C_R   0.424425 0.073180 0.419973 0.183206
C6    C     C_R   0.575267 0.071366 0.580709 0.180368
C7    C     C_R   0.425470 0.925619 0.420473 0.637034
C8    C     C_R   0.574830 0.923427 0.579813 0.633268
C9    C     C_R   0.494205 0.500272 0.262195 0.822897
C10   C     C_R   0.502106 0.500461 0.737194 0.815739
C11   C     C_R   0.265292 0.466155 0.107400 0.120759
C12   C     C_R   0.273443 0.491831 0.859079 0.092703
C13   C     C_R   0.167863 0.413595 0.034538 -0.113815
C14   C     C_R   0.171032 0.429299 0.907919 -0.118888
C15   C     C_R   0.385990 0.487891 0.927415 0.008224
C16   C     C_R   0.382352 0.482386 0.056487 0.008730
C17   C     C_R   0.492963 0.501822 0.127672 -0.135932
C18   C     C_R   0.498922 0.503305 0.870521 -0.136863
C19   C     C_R   0.605404 0.521673 0.069331 0.110462
C20   C     C_R   0.608405 0.521666 0.940580 0.134471
C21   C     C_R   0.064849 0.373379 0.513174 0.508863
C22   C     C_R   0.937831 0.372905 0.507769 0.524158
C23   C     C_R   0.871697 0.499488 0.503742 -0.507803
C24   C     C_R   0.128358 0.500234 0.507858 -0.519508
Cu1   Cu    Cu3+1 0.500000 0.640660 0.500000 1.156535
Cu2   Cu    Cu3+1 0.500000 0.359340 0.500000 1.074060
H1    H     H_    0.079787 0.394401 0.074423 0.186249
H2    H     H_    0.085607 0.423912 0.854053 0.177156
N1    N     N_R   0.500000 0.852070 0.500000 -0.312460
N2    N     N_R   0.500000 0.147940 0.500000 -0.294515
O1    O     O_R   0.319640 0.618740 0.499990 -0.488812
O2    O     O_R   0.680360 0.618740 0.500010 -0.488814
O3    O     O_R   0.319620 0.381170 0.499990 -0.531271
O4    O     O_R   0.680380 0.381170 0.500010 -0.527134
O5    O     O_R   0.500000 0.618810 0.319650 -0.525426
O6    O     O_R   0.500000 0.618810 0.680350 -0.528819
O7    O     O_R   0.499970 0.381240 0.319640 -0.580442
O8    O     O_R   0.500030 0.381240 0.680360 -0.584062
I1    I     I_    0.772246 0.549126 0.176426 -0.219154
I2    I     I_    0.777555 0.552745 0.849436 -0.186877
I3    I     I_    0.198599 0.623148 0.220645 -0.110184
I4    I     I_    0.228474 0.686384 0.776346 -0.155343
F1    F     F_    0.124583 0.248655 0.523022 -0.545470
F2    F     F_    0.880756 0.247583 0.504604 -0.541214
F3    F     F_    0.875492 0.751784 0.497636 -0.515795
F4    F     F_    0.119123 0.752202 0.496500 -0.510971
I5    I     I_    0.298288 0.164625 0.289755 -0.051049
I6    I     I_    0.697069 0.160708 0.715017 -0.015366
F5    F     F_    0.351320 0.855975 0.340343 -0.565124
F6    F     F_    0.649833 0.851040 0.659490 -0.563356

loop_
_geom_bond_atom_site_label_1
_geom_bond_atom_site_label_2
_ccdc_geom_bond_type
Cu1   O1    S    
C15   C18   A    
C12   I4    S    
Cu2   O7    S    
Cu2   N2    S    
C7    N1    A    
C11   C13   A    
C11   C16   A    
Cu2   O3    S    
C3    C23   A    
C19   C20   A    
C12   C15   A    
C10   O8    A    
Cu2   O8    S    
C2    O4    A    
Cu1   O2    S    
C9    O7    A    
C1    O3    A    
C4    F4    S    
C21   C22   A    
C5    I5    S    
C6    I6    S    
Cu1   O5    S    
C4    C24   A    
C8    N1    A    
C19   I1    S    
C9    C17   S    
C6    N2    A    
C10   C18   S    
C11   I3    S    
C18   C20   A    
Cu1   N1    S    
C20   I2    S    
C9    O5    A    
C21   F1    S    
Cu1   O6    S    
C17   C19   A    
C3    C4    A    
C8    F6    S    
C1    O1    A    
C7    F5    S    
C1    C24   S    
C2    O2    A    
C5    N2    A    
C21   C24   A    
C2    C23   S    
C5    C7    A    
C3    F3    S    
C22   C23   A    
C13   H1    S    
C6    C8    A    
C14   H2    S    
Cu1   Cu2   S    
C13   C14   A    
Cu2   O4    S    
C22   F2    S    
C15   C16   A    
C12   C14   A    
C16   C17   A    
C10   O6    A    
