data_mof_unit_24919.cif
_audit_creation_date              2012-12-11T16:04:49-0500
_audit_creation_method            fapswitch 2.2
_symmetry_space_group_name_H-M    P1
_symmetry_Int_Tables_number       1
_space_group_crystal_system       triclinic
_cell_length_a                    10.592072
_cell_length_b                    10.597548
_cell_length_c                    16.866106
_cell_angle_alpha                 98.404096
_cell_angle_beta                  98.548077
_cell_angle_gamma                 62.007887
_cell_volume                      1646.82796197

loop_
_atom_site_label
_atom_site_type_symbol
_atom_type_description
_atom_site_fract_x
_atom_site_fract_y
_atom_site_fract_z
_atom_type_partial_charge
C1    C     C_R   0.353540 0.777891 0.399370 0.554580
C2    C     C_3   0.266040 0.781354 0.249807 -0.098332
C3    C     C_3   0.333589 0.838480 0.324071 0.048102
C4    C     C_R   0.370894 0.347375 0.358643 0.539589
C5    C     C_3   0.452247 0.823982 0.275788 -0.119394
C6    C     C_3   0.355918 0.980482 0.254356 -0.143819
C7    C     C_3   0.237812 0.993433 0.304291 -0.106807
C8    C     C_3   0.170016 0.936672 0.229206 -0.071407
C9    C     C_3   0.287832 0.923064 0.181042 0.028526
C10   C     C_3   0.461146 0.271332 0.777260 -0.162610
C11   C     C_3   0.390109 0.410759 0.734525 -0.137545
C12   C     C_3   0.639478 0.425398 0.232026 -0.250027
C13   C     C_3   0.337813 0.332902 0.663112 0.009909
C14   C     C_3   0.409532 0.193966 0.705060 -0.074086
C15   C     C_3   0.267763 0.245855 0.741823 0.386644
C16   C     C_R   0.706378 0.415818 0.390475 0.569472
C17   C     C_3   0.195105 0.384363 0.698626 -0.101684
C18   C     C_3   0.247227 0.461253 0.771721 -0.171515
C19   C     C_3   0.319362 0.322157 0.813502 0.048783
C20   C     C_1   0.845632 0.329320 0.705876 -0.012405
C21   C     C_1   0.891586 0.295961 0.773191 0.028668
C22   C     C_1   0.357010 0.766499 0.714458 -0.017423
C23   C     C_3   0.744779 0.388539 0.308292 0.052112
C24   C     C_1   0.325798 0.812413 0.782070 0.001474
C25   C     C_R   0.884855 0.313094 0.087668 0.546252
C26   C     C_R   0.319978 0.300434 0.119802 0.527858
C27   C     C_R   0.255695 0.961725 0.098995 0.554517
C28   C     C_R   0.378972 0.716471 0.631879 0.547633
C29   C     C_R   0.941987 0.276536 0.855872 0.614663
C30   C     C_R   0.308842 0.294712 0.892431 0.567736
C31   C     C_R   0.282354 0.880169 0.859782 0.585239
C32   C     C_R   0.366816 0.345122 0.584907 0.545039
C33   C     C_R   0.778840 0.377349 0.628742 0.546335
C34   C     C_3   0.838391 0.240345 0.268545 0.345585
C35   C     C_1   0.344836 0.338674 0.274748 -0.040174
C36   C     C_1   0.333281 0.328610 0.203398 -0.046974
C37   C     C_3   0.735057 0.274467 0.191215 -0.121522
C38   C     C_3   0.928147 0.300586 0.239040 -0.083644
C39   C     C_3   0.831995 0.449444 0.277728 0.377140
C40   C     C_3   0.728098 0.488045 0.201329 -0.126019
C41   C     C_3   0.822774 0.337991 0.162668 -0.044132
C42   C     C_3   0.383309 0.768376 0.200874 -0.129658
Cr1   Cr    Cr6+3 0.608340 0.611040 0.520430 1.054315
Cr2   Cr    Cr6+3 0.287650 0.601120 0.489350 1.082128
Cr3   Cr    Cr6+3 0.604040 0.287870 0.490280 1.080170
Cr4   Cr    Cr6+3 0.054020 0.052700 0.970850 1.030315
Cr5   Cr    Cr6+3 0.059230 0.375120 0.993390 1.041509
Cr6   Cr    Cr6+3 0.374950 0.061200 0.992340 1.043417
F1    F     F_    0.206143 0.158394 0.747805 -0.652142
F2    F     F_    0.891314 0.115423 0.306126 -0.621756
F3    F     F_    0.882478 0.539752 0.322063 -0.600685
H1    H     H_    0.521177 0.475149 0.232176 0.108665
H2    H     H_    0.395020 0.060324 0.253569 0.141142
H3    H     H_    0.056088 0.979066 0.204657 0.188801
H4    H     H_    0.443557 0.477196 0.729486 0.104488
H5    H     H_    0.183566 0.569969 0.801199 0.138128
H6    H     H_    0.229597 0.698388 0.248722 0.146096
H7    H     H_    0.436635 0.680338 0.154358 0.125716
H8    H     H_    0.179851 0.083685 0.348840 0.162718
H9    H     H_    0.569056 0.227823 0.811094 0.138185
H10   H     H_    0.472638 0.084560 0.676161 0.146578
H11   H     H_    0.087511 0.426856 0.664481 0.141652
H12   H     H_    0.696969 0.201427 0.153986 0.154049
H13   H     H_    0.046604 0.252165 0.239980 0.100908
H14   H     H_    0.687669 0.588704 0.171903 0.144451
H15   H     H_    0.568214 0.777308 0.296983 0.174604
O1    O     O_R   0.751220 0.499230 0.435170 -0.451713
O2    O     O_R   0.412990 0.180750 0.091610 -0.525823
O3    O     O_R   0.366620 0.943130 0.065760 -0.496448
O4    O     O_R   0.477220 0.727600 0.436870 -0.519672
O5    O     O_R   0.160510 0.906330 0.879210 -0.510095
O6    O     O_R   0.930190 0.179050 0.889450 -0.500107
O7    O     O_R   0.909140 0.398170 0.896710 -0.519882
O8    O     O_R   0.186190 0.363460 0.918830 -0.505474
O9    O     O_R   0.401670 0.173200 0.913310 -0.500647
O10   O     O_R   0.356120 0.936130 0.900470 -0.470975
O11   O     O_3   0.162740 0.163010 0.985530 -0.291953
O12   O     O_R   0.297880 0.469080 0.560050 -0.505815
O13   O     O_R   0.258650 0.745120 0.411470 -0.480916
O14   O     O_R   0.297070 0.467240 0.395960 -0.476805
O15   O     O_R   0.488830 0.252610 0.387790 -0.505911
O16   O     O_R   0.724400 0.302390 0.420980 -0.431248
O17   O     O_R   0.752100 0.501210 0.612190 -0.517297
O18   O     O_R   0.478040 0.729440 0.600970 -0.487964
O19   O     O_R   0.259530 0.747110 0.588490 -0.478859
O20   O     O_R   0.489720 0.254590 0.564810 -0.513379
O21   O     O_R   0.725220 0.304230 0.585080 -0.486796
O22   O     O_3   0.500010 0.500010 0.500020 -0.329256
O23   O     O_R   0.171830 0.913880 0.057510 -0.520069
O24   O     O_R   0.940690 0.186050 0.054730 -0.522785
O25   O     O_R   0.920470 0.405720 0.075010 -0.497509
O26   O     O_R   0.196690 0.370460 0.084120 -0.492733

loop_
_geom_bond_atom_site_label_1
_geom_bond_atom_site_label_2
_ccdc_geom_bond_type
C39   F3    S    
C5    C42   S    
C11   C18   S    
C28   O18   A    
C34   C37   S    
Cr1   O17   S    
Cr5   O26   S    
Cr6   O10   S    
C13   C32   S    
Cr3   O16   S    
Cr6   O3    S    
C42   H7    S    
C6    C9    S    
C2    H6    S    
Cr3   O20   S    
C7    C8    S    
Cr4   O23   S    
C15   C19   S    
C12   C23   S    
C25   O24   A    
Cr1   O22   S    
Cr3   O21   S    
C4    O14   A    
C3    C7    S    
C38   C39   S    
C30   O8    A    
C29   O7    A    
C26   O26   A    
C18   C19   S    
C12   C37   S    
C37   H12   S    
C4    O15   A    
C35   C36   T    
C8    C9    S    
Cr4   O6    S    
C27   O3    A    
C18   H5    S    
C29   O6    A    
C31   O5    A    
C4    C35   S    
C22   C28   S    
C13   C14   S    
Cr1   O18   S    
Cr6   O9    S    
C7    H8    S    
C12   H1    S    
C38   H13   S    
C2    C8    S    
C34   F2    S    
C25   O25   A    
Cr2   O14   S    
Cr3   O22   S    
Cr5   O7    S    
C38   C41   S    
C10   C14   S    
C8    H3    S    
C39   C40   S    
C14   H10   S    
C21   C29   S    
C1    C3    S    
Cr6   O11   S    
C12   C40   S    
C10   H9    S    
C17   H11   S    
C10   C19   S    
C23   C34   S    
C32   O20   A    
C16   O16   A    
C17   C18   S    
C9    C42   S    
C16   O1    A    
Cr6   O2    S    
C33   O17   A    
Cr4   O5    S    
C20   C33   S    
C26   C36   S    
C40   C41   S    
Cr1   O4    S    
C40   H14   S    
C1    O13   A    
C22   C24   T    
Cr5   O11   S    
C6    H2    S    
C25   C41   S    
Cr2   O19   S    
C11   H4    S    
C9    C27   S    
C15   C17   S    
C34   C38   S    
Cr5   O25   S    
Cr2   O13   S    
Cr3   O15   S    
Cr5   O8    S    
C5    H15   S    
C3    C5    S    
Cr4   O11   S    
C6    C7    S    
Cr4   O24   S    
C16   C23   S    
C1    O4    A    
C13   C17   S    
C26   O2    A    
Cr2   O12   S    
C2    C3    S    
C33   O21   A    
C24   C31   S    
C30   O9    A    
C11   C13   S    
C31   O10   A    
C5    C6    S    
C2    C42   S    
C23   C39   S    
C27   O23   A    
C15   F1    S    
C37   C41   S    
C10   C11   S    
C32   O12   A    
C20   C21   T    
Cr1   O1    S    
C28   O19   A    
C14   C15   S    
Cr2   O22   S    
C19   C30   S    
