data_mof_unit_30464.cif
_audit_creation_date              2013-03-05T15:59:21-0500
_audit_creation_method            fapswitch 2.2
_symmetry_space_group_name_H-M    P1
_symmetry_Int_Tables_number       1
_space_group_crystal_system       triclinic
_cell_length_a                    10.493228
_cell_length_b                    12.708087
_cell_length_c                    13.191976
_cell_angle_alpha                 81.896854
_cell_angle_beta                  91.654294
_cell_angle_gamma                 103.110119
_cell_volume                      1696.17030331

loop_
_atom_site_label
_atom_site_type_symbol
_atom_site_description
_atom_site_fract_x
_atom_site_fract_y
_atom_site_fract_z
_atom_type_partial_charge
O1    O     O_R   0.467970 0.366730 0.627150 -0.550508
O2    O     O_R   0.510820 0.544830 0.662520 -0.633238
C1    C     C_R   0.482980 0.439136 0.691267 0.876800
O3    O     O_R   0.664630 0.410960 0.482340 -0.571344
O4    O     O_R   0.707470 0.589060 0.517710 -0.631470
C2    C     C_R   0.742167 0.501456 0.500261 0.904139
Zn1   Zn    Zn3+2 0.471390 0.381080 0.476380 1.093830
Zn2   Zn    Zn3+2 0.528610 0.618920 0.523620 0.935817
O5    O     O_R   0.489180 0.455170 0.337480 -0.592157
O6    O     O_R   0.532030 0.633270 0.372850 -0.640533
O7    O     O_R   0.292530 0.410940 0.482290 -0.542981
O8    O     O_R   0.335370 0.589040 0.517660 -0.654000
C3    C     C_R   0.513755 0.561125 0.309259 0.860683
C4    C     C_R   0.257634 0.498049 0.500962 0.875330
C5    C     C_3   0.939168 0.432570 0.583543 -0.212039
C6    C     C_3   0.054950 0.531969 0.588468 -0.208371
H1    H     H_    0.886469 0.377843 0.649670 0.203278
C7    C     C_3   0.121585 0.495467 0.501795 -0.082509
C8    C     C_3   0.007606 0.398639 0.496826 0.383203
C9    C     C_3   0.943529 0.466641 0.414215 -0.177304
C10   C     C_3   0.059108 0.566042 0.419982 -0.207937
C11   C     C_3   0.990328 0.602682 0.506602 -0.110215
C12   C     C_3   0.877781 0.503158 0.501210 -0.071591
H2    H     H_    0.894142 0.439592 0.343701 0.213394
H3    H     H_    0.978908 0.686739 0.510603 0.168170
C13   C     C_R   0.440944 0.710374 0.058094 -0.149620
H4    H     H_    0.453750 0.748563 0.211589 0.157478
H5    H     H_    0.397599 0.778587 0.029924 0.164291
C14   C     C_R   0.514353 0.598696 0.200409 -0.072801
C15   C     C_R   0.547298 0.318005 0.835555 -0.247386
C16   C     C_R   0.615478 0.314856 0.927545 0.256756
C17   C     C_R   0.618759 0.397290 0.989448 0.202719
C18   C     C_R   0.536011 0.473159 0.964955 -0.058117
C19   C     C_R   0.471006 0.475964 0.869554 0.062705
C20   C     C_R   0.515683 0.547189 0.030811 0.125768
C21   C     C_R   0.454052 0.633884 0.994339 0.151243
C22   C     C_R   0.394654 0.636530 0.898911 -0.209063
C23   C     C_R   0.394737 0.553936 0.840932 -0.116683
C24   C     C_R   0.538785 0.528819 0.135265 -0.106417
C25   C     C_R   0.472901 0.693489 0.161314 -0.176765
C26   C     C_R   0.488244 0.404382 0.801618 -0.163618
H6    H     H_    0.557535 0.261676 0.784440 0.272427
H7    H     H_    0.336309 0.552880 0.771902 0.152473
C27   C     C_R   0.343951 0.092982 0.331603 -0.285198
H8    H     H_    0.306313 0.887296 0.302560 0.155546
N1    N     N_R   0.432930 0.222190 0.444670 -0.201405
C28   C     C_R   0.660115 0.799755 0.626449 0.010365
C29   C     C_R   0.705132 0.905958 0.646412 -0.221296
C30   C     C_R   0.649550 0.987719 0.595085 -0.054449
C31   C     C_R   0.543785 0.963102 0.527036 0.039469
C32   C     C_R   0.509487 0.854929 0.503276 0.230948
C33   C     C_R   0.477544 0.042115 0.476075 -0.091542
C34   C     C_R   0.397323 0.014745 0.391122 0.084057
C35   C     C_R   0.369915 0.909050 0.366211 -0.207427
C36   C     C_R   0.421790 0.829434 0.423912 -0.191554
C37   C     C_R   0.484902 0.146512 0.505898 0.354937
C38   C     C_R   0.365739 0.197694 0.357306 0.411203
N2    N     N_R   0.566370 0.776980 0.554790 -0.136478
H9    H     H_    0.704089 0.735702 0.664583 0.154342
H10   H     H_    0.696450 0.069539 0.605735 0.220994
H11   H     H_    0.785108 0.925399 0.699267 0.188407
H12   H     H_    0.395608 0.749298 0.402405 0.200207
H13   H     H_    0.104382 0.558328 0.659188 0.165537
H14   H     H_    0.562161 0.453504 0.169240 0.206419
N3    N     N_R   0.715710 0.410128 0.068607 0.207919
O9    O     O_R   0.799607 0.502800 0.069134 -0.378862
O10   O     O_R   0.719699 0.329736 0.140802 -0.326831
N4    N     N_R   0.693713 0.235167 0.950269 0.242899
O11   O     O_R   0.648939 0.136284 0.929755 -0.334730
O12   O     O_R   0.816820 0.265270 0.973424 -0.287703
N5    N     N_R   0.315927 0.277738 0.290662 0.229339
O13   O     O_R   0.220303 0.314854 0.321334 -0.313698
O14   O     O_R   0.339987 0.290254 0.192959 -0.395962
H15   H     H_    0.285862 0.073216 0.264640 0.198720
N6    N     N_R   0.528658 0.168394 0.605745 0.194410
O15   O     O_R   0.638721 0.237202 0.617145 -0.429262
O16   O     O_R   0.469644 0.106549 0.685567 -0.388824
N7    N     N_R   0.017579 0.286658 0.493785 0.236497
O17   O     O_R   0.961021 0.234077 0.420917 -0.321848
O18   O     O_R   0.072407 0.235665 0.569029 -0.364255
H16   H     H_    0.112221 0.620256 0.353729 0.163198
H17   H     H_    0.340427 0.698192 0.872129 0.162077

loop_
_geom_bond_atom_site_label_1
_geom_bond_atom_site_label_2
_geom_bond_distance
_ccdc_geom_bond_type
C7    C10   1.533624 S    
C4    C7    1.420839 S    
C8    C9    1.530472 S    
C34   C35   1.392323 A    
Zn1   O7    2.003096 S    
C24   H14   1.075337 S    
C30   H10   1.071499 S    
C3    C14   1.447689 S    
C21   C22   1.388041 A    
C15   C16   1.391132 A    
O7    C4    1.298518 A    
N7    O18   1.300401 A    
C5    C6    1.548634 S    
C36   H12   1.069164 S    
Zn1   O5    1.931984 S    
C7    C8    1.516398 S    
O5    C3    1.313329 A    
Zn2   N2    2.055018 S    
C5    C8    1.528828 S    
C27   C34   1.387738 A    
C9    H2    1.110641 S    
N4    O11   1.301440 A    
N3    O10   1.302054 A    
C11   H3    1.110190 S    
C31   C33   1.429215 A    
C15   C26   1.394032 A    
C6    H13   1.110394 S    
H4    C25   1.082792 S    
C5    C12   1.531784 S    
C37   N6    1.426007 S    
O1    Zn1   1.972151 S    
C10   C11   1.547094 S    
C19   C26   1.406146 A    
O3    Zn1   1.977852 S    
C31   C32   1.417041 A    
C16   N4    1.437600 S    
Zn1   N1    2.067287 S    
O3    C2    1.296728 A    
N5    O14   1.301177 A    
N7    O17   1.300371 A    
O1    C1    1.316391 A    
C20   C21   1.421038 A    
C8    N7    1.456558 S    
C20   C24   1.388425 A    
N6    O15   1.299991 A    
C22   C23   1.383276 A    
C28   C29   1.384849 A    
C9    C12   1.532809 S    
C27   C38   1.386612 A    
Zn2   O8    1.977854 S    
C14   C24   1.387055 A    
C18   C19   1.413949 A    
C32   N2    1.361758 A    
C38   N5    1.429467 S    
C27   H15   1.084887 S    
N6    O16   1.301370 A    
C13   C21   1.403196 A    
C29   C30   1.389960 A    
C10   H16   1.110562 S    
H8    C35   1.084561 S    
C30   C31   1.414063 A    
N1    C38   1.370012 A    
C22   H17   1.084098 S    
C33   C34   1.417086 A    
C5    H1    1.110317 S    
C35   C36   1.381376 A    
C1    C26   1.463724 S    
C6    C11   1.547330 S    
C19   C23   1.414821 A    
C16   C17   1.410206 A    
O2    Zn2   1.931983 S    
O8    C4    1.297882 A    
O6    C3    1.307233 A    
C6    C7    1.534353 S    
O4    Zn2   2.003093 S    
C13   H5    1.083836 S    
C17   C18   1.436555 A    
O2    C1    1.310741 A    
N5    O13   1.298066 A    
C28   N2    1.356226 A    
C13   C25   1.391602 A    
C29   H11   1.082680 S    
O4    C2    1.298419 A    
C2    C12   1.417994 S    
C14   C25   1.398557 A    
C18   C20   1.420375 A    
C32   C36   1.397377 A    
C28   H9    1.081726 S    
C23   H7    1.082974 S    
C9    C10   1.548907 S    
Zn2   O6    1.972153 S    
N3    O9    1.301393 A    
N1    C37   1.366830 A    
N4    O12   1.301678 A    
C11   C12   1.530459 S    
C15   H6    1.074152 S    
C33   C37   1.421186 A    
C17   N3    1.436471 S    
