data_mof_unit_29074.cif
_audit_creation_date              2012-12-10T18:04:36-0500
_audit_creation_method            fapswitch 2.2
_symmetry_space_group_name_H-M    P1
_symmetry_Int_Tables_number       1
_space_group_crystal_system       triclinic
_cell_length_a                    19.552128
_cell_length_b                    17.595837
_cell_length_c                    12.605273
_cell_angle_alpha                 89.94973
_cell_angle_beta                  99.087161
_cell_angle_gamma                 90.031914
_cell_volume                      4282.23783068

loop_
_atom_site_label
_atom_site_type_symbol
_atom_type_description
_atom_site_fract_x
_atom_site_fract_y
_atom_site_fract_z
_atom_type_partial_charge
C1    C     C_R   0.411682 0.103351 0.444120 0.839934
C2    C     C_R   0.781419 0.788928 0.644749 0.175935
C3    C     C_R   0.193609 0.810969 0.581870 0.179828
C4    C     C_R   0.281428 0.288953 0.644712 0.175921
C5    C     C_R   0.222424 0.883057 0.577454 -0.255750
C6    C     C_R   0.348455 0.260279 0.668129 -0.257395
C7    C     C_R   0.722406 0.383061 0.577392 -0.255764
C8    C     C_R   0.848439 0.760236 0.668191 -0.257402
C9    C     C_R   0.273614 0.895290 0.514639 -0.207467
C10   C     C_R   0.377110 0.222260 0.589367 -0.200068
C11   C     C_R   0.773608 0.395284 0.514601 -0.207490
C12   C     C_R   0.408390 0.900396 0.441826 0.853872
C13   C     C_R   0.877110 0.722239 0.589423 -0.200057
C14   C     C_R   0.685681 0.179713 0.525217 -0.252105
C15   C     C_R   0.676933 0.810342 0.518135 -0.259930
C16   C     C_R   0.185672 0.679720 0.525188 -0.252096
C17   C     C_R   0.176912 0.310315 0.518150 -0.259921
C18   C     C_R   0.612356 0.226430 0.648391 -0.201616
C19   C     C_R   0.685173 0.856134 0.700521 -0.204731
C20   C     C_R   0.112386 0.726411 0.648447 -0.201620
C21   C     C_R   0.185199 0.356179 0.700499 -0.204729
C22   C     C_R   0.356188 0.843218 0.404908 -0.115116
C23   C     C_R   0.911687 0.603357 0.444123 0.839951
C24   C     C_R   0.362293 0.163719 0.409337 -0.108637
C25   C     C_R   0.856203 0.343202 0.404922 -0.115094
C26   C     C_R   0.862317 0.663748 0.409352 -0.108668
C27   C     C_R   0.642876 0.999657 0.133034 -0.312212
C28   C     C_R   0.142876 0.499661 0.133034 -0.312207
C29   C     C_R   0.378775 0.001259 0.762202 0.037054
C30   C     C_R   0.878775 0.501257 0.762202 0.037045
C31   C     C_R   0.352953 0.001628 0.858407 -0.250428
C32   C     C_R   0.852953 0.501625 0.858406 -0.250428
C33   C     C_R   0.590778 0.899509 0.557516 0.862681
C34   C     C_R   0.908393 0.400393 0.441828 0.853871
C35   C     C_R   0.589245 0.102184 0.556431 0.849598
C36   C     C_R   0.090778 0.399511 0.557516 0.862670
C37   C     C_R   0.089247 0.602183 0.556431 0.849596
C38   C     C_R   0.398985 0.001007 0.954411 -0.196993
C39   C     C_R   0.898985 0.501007 0.954411 -0.197000
C40   C     C_R   0.471381 0.000241 0.953930 0.016128
C41   C     C_R   0.971381 0.500242 0.953930 0.016127
C42   C     C_R   0.494854 0.999925 0.853712 0.232363
C43   C     C_R   0.994854 0.499927 0.853712 0.232360
C44   C     C_R   0.521180 0.000023 0.048174 -0.012559
C45   C     C_R   0.713537 0.251707 0.516621 0.081151
C46   C     C_R   0.021180 0.500025 0.048174 -0.012561
C47   C     C_R   0.593078 0.999752 0.040523 0.198601
C48   C     C_R   0.093078 0.499756 0.040523 0.198599
C49   C     C_R   0.614518 0.999702 0.940721 -0.294964
C50   C     C_R   0.114518 0.499706 0.940721 -0.294958
C51   C     C_R   0.565868 0.999874 0.848567 -0.215303
C52   C     C_R   0.065867 0.499877 0.848567 -0.215300
C53   C     C_R   0.502682 0.000092 0.150608 -0.054743
C54   C     C_R   0.002682 0.500092 0.150608 -0.054752
C55   C     C_R   0.620997 0.999811 0.232033 0.009523
C56   C     C_R   0.744638 0.783723 0.538437 0.077115
C57   C     C_R   0.120997 0.499814 0.232033 0.009526
C58   C     C_R   0.644046 0.297411 0.648952 -0.199928
C59   C     C_R   0.750826 0.823918 0.725588 -0.202538
C60   C     C_R   0.144080 0.797392 0.649026 -0.199919
C61   C     C_R   0.250857 0.323973 0.725547 -0.202542
C62   C     C_R   0.632237 0.168434 0.583682 -0.046606
C63   C     C_R   0.649317 0.850917 0.595458 -0.047714
C64   C     C_R   0.132244 0.668429 0.583686 -0.046624
C65   C     C_R   0.149318 0.350922 0.595461 -0.047693
C66   C     C_R   0.369960 0.789705 0.328548 -0.192090
C67   C     C_R   0.213530 0.751716 0.516613 0.081132
C68   C     C_R   0.331589 0.166786 0.300987 -0.191003
C69   C     C_R   0.869996 0.289675 0.328602 -0.192111
C70   C     C_R   0.831642 0.666864 0.300984 -0.190975
C71   C     C_R   0.328043 0.726178 0.307337 -0.148127
C72   C     C_R   0.275392 0.214086 0.269146 -0.150226
C73   C     C_R   0.828095 0.226135 0.307421 -0.148137
C74   C     C_R   0.775470 0.714200 0.269136 -0.150215
C75   C     C_R   0.275218 0.712970 0.367059 -0.187701
C76   C     C_R   0.246524 0.254491 0.345816 -0.193519
C77   C     C_R   0.775263 0.212933 0.367132 -0.187707
C78   C     C_R   0.244620 0.283704 0.538427 0.077132
C79   C     C_R   0.746593 0.754590 0.345811 -0.193518
C80   C     C_R   0.261492 0.765739 0.446126 0.087630
C81   C     C_R   0.275910 0.250663 0.456057 0.083632
C82   C     C_R   0.761513 0.265719 0.446155 0.087637
C83   C     C_R   0.775946 0.750709 0.456068 0.083631
C84   C     C_R   0.297186 0.835480 0.455062 0.092257
C85   C     C_R   0.339163 0.212148 0.485179 0.084858
C86   C     C_R   0.797196 0.335465 0.455063 0.092275
C87   C     C_R   0.839183 0.712165 0.485208 0.084845
C88   C     C_R   0.693595 0.310973 0.581829 0.179821
H1    H     H_    0.570229 0.218141 0.693656 0.152140
H2    H     H_    0.949920 0.500162 0.165128 0.124013
H3    H     H_    0.343519 0.002318 0.687068 0.134413
H4    H     H_    0.843519 0.502313 0.687067 0.134429
H5    H     H_    0.376292 0.001437 0.026890 0.135208
H6    H     H_    0.876292 0.501437 0.026889 0.135213
H7    H     H_    0.297608 0.002533 0.858607 0.147030
H8    H     H_    0.797608 0.502529 0.858607 0.147038
H9    H     H_    0.585316 0.000146 0.774212 0.212714
H10   H     H_    0.085316 0.500148 0.774212 0.212708
H11   H     H_    0.206239 0.929687 0.623855 0.142340
H12   H     H_    0.664141 0.887949 0.761360 0.151085
H13   H     H_    0.378290 0.265994 0.747839 0.148554
H14   H     H_    0.706207 0.429700 0.623757 0.142355
H15   H     H_    0.878256 0.765918 0.747923 0.148549
H16   H     H_    0.627903 0.342396 0.698193 0.136463
H17   H     H_    0.778641 0.828830 0.806765 0.135393
H18   H     H_    0.127957 0.842366 0.698311 0.136456
H19   H     H_    0.278692 0.328919 0.806702 0.135406
H20   H     H_    0.702730 0.131481 0.483478 0.141572
H21   H     H_    0.644966 0.802574 0.440927 0.148923
H22   H     H_    0.202709 0.631496 0.483412 0.141593
H23   H     H_    0.070276 0.718113 0.693745 0.152155
H24   H     H_    0.144926 0.302523 0.440967 0.148886
H25   H     H_    0.414416 0.795729 0.287660 0.158614
H26   H     H_    0.349725 0.130964 0.241325 0.152609
H27   H     H_    0.914457 0.295698 0.287726 0.158611
H28   H     H_    0.849782 0.631055 0.241311 0.152617
H29   H     H_    0.745005 0.162099 0.347839 0.130986
H30   H     H_    0.702514 0.789778 0.316256 0.134328
H31   H     H_    0.244946 0.662146 0.347742 0.130987
H32   H     H_    0.202424 0.289646 0.316266 0.134336
H33   H     H_    0.338311 0.685360 0.247580 0.141634
H34   H     H_    0.164185 0.388020 0.761326 0.151060
H35   H     H_    0.252310 0.217061 0.185317 0.142221
H36   H     H_    0.838379 0.185306 0.247697 0.141646
H37   H     H_    0.752413 0.717216 0.185292 0.142201
H38   H     H_    0.293923 0.952318 0.511846 0.158031
H39   H     H_    0.429641 0.201752 0.610608 0.168158
H40   H     H_    0.793915 0.452312 0.511794 0.158024
H41   H     H_    0.929636 0.701718 0.610684 0.168195
H42   H     H_    0.658402 0.999763 0.305111 0.131669
H43   H     H_    0.158402 0.499766 0.305111 0.131675
H44   H     H_    0.669097 0.999583 0.933771 0.152181
H45   H     H_    0.169097 0.499589 0.933771 0.152175
H46   H     H_    0.697809 0.999498 0.128745 0.141869
H47   H     H_    0.197809 0.499504 0.128745 0.141872
H48   H     H_    0.449920 0.000163 0.165128 0.124007
N1    N     N_R   0.552340 0.000000 0.237260 -0.102245
N2    N     N_R   0.052340 0.500000 0.237260 -0.102247
N3    N     N_R   0.448170 0.000000 0.762060 -0.132561
N4    N     N_R   0.948170 0.500000 0.762060 -0.132566
O1    O     O_R   0.448200 0.076800 0.373930 -0.610179
O2    O     O_R   0.585240 0.076800 0.457600 -0.607723
O3    O     O_R   0.085240 0.423200 0.457600 -0.615254
O4    O     O_R   0.085240 0.576800 0.457600 -0.607735
O5    O     O_R   0.551780 0.923190 0.626070 -0.627958
O6    O     O_R   0.551780 0.076810 0.626070 -0.643331
O7    O     O_R   0.051780 0.423190 0.626070 -0.627953
O8    O     O_R   0.051780 0.576810 0.626070 -0.643345
O9    O     O_R   0.448200 0.923200 0.373930 -0.616191
O10   O     O_R   0.948200 0.576800 0.373930 -0.610180
O11   O     O_R   0.948200 0.423200 0.373930 -0.616187
O12   O     O_R   0.414750 0.076790 0.542400 -0.624655
O13   O     O_R   0.414750 0.923210 0.542400 -0.605462
O14   O     O_R   0.914750 0.576790 0.542400 -0.624664
O15   O     O_R   0.914750 0.423210 0.542400 -0.605456
O16   O     O_R   0.585240 0.923200 0.457600 -0.615265
Zn1   Zn    Zn3+2 0.522330 1.000000 0.387520 0.935937
Zn2   Zn    Zn3+2 0.022330 0.500000 0.387520 0.935935
Zn3   Zn    Zn3+2 0.477660 0.000000 0.612480 0.924805
Zn4   Zn    Zn3+2 0.977660 0.500000 0.612480 0.924798

loop_
_geom_bond_atom_site_label_1
_geom_bond_atom_site_label_2
_ccdc_geom_bond_type
C17   C78   A    
C51   H9    S    
C83   C87   A    
C10   C85   A    
O13   Zn3   S    
C8    C13   A    
C66   H25   S    
C28   H47   S    
C9    C84   A    
C15   H21   S    
C45   C82   A    
C12   O13   A    
C80   C84   A    
C33   O16   A    
C16   H22   S    
C47   C49   A    
C28   C57   A    
C5    C9    A    
C76   H32   S    
O3    Zn2   S    
C53   N1    A    
O16   Zn1   S    
C38   C40   A    
C36   O3    A    
C35   C62   S    
C54   H2    S    
C77   H29   S    
O5    Zn3   S    
C27   C55   A    
C43   C52   A    
C32   C39   A    
C74   H37   S    
C11   C86   A    
C14   C62   A    
C79   H30   S    
C12   C22   S    
C1    O12   A    
O8    Zn4   S    
C6    H13   S    
C21   H34   S    
C23   C26   S    
C7    C88   A    
C73   C77   A    
C22   C66   A    
C44   C53   A    
C18   C58   A    
C69   H27   S    
C5    H11   S    
C19   C63   A    
C26   C87   A    
C49   C51   A    
C7    H14   S    
C70   C74   A    
C50   C52   A    
C41   C46   A    
C69   C73   A    
C20   C60   A    
C24   C85   A    
C21   C61   A    
C44   C47   A    
C68   C72   A    
C42   C51   A    
C3    C60   A    
C73   H36   S    
C40   C42   A    
O15   Zn4   S    
O12   Zn3   S    
N3    Zn3   S    
C41   C43   A    
C13   C87   A    
C53   H48   S    
O7    Zn4   S    
C57   H43   S    
C14   C45   A    
C29   N3    A    
C49   H44   S    
C46   C48   A    
C14   H20   S    
C30   N4    A    
O14   Zn4   S    
C30   C32   A    
O11   Zn2   S    
C45   C88   A    
C75   H31   S    
C39   C41   A    
C2    C59   A    
C18   C62   A    
O6    Zn3   S    
C18   H1    S    
C70   H28   S    
C34   O15   A    
C4    C61   A    
C35   O6    A    
C22   C84   A    
C20   C64   A    
C7    C11   A    
C39   H6    S    
C4    C78   A    
C20   H23   S    
N2    Zn2   S    
C36   O7    A    
C66   C71   A    
C33   C63   S    
C55   H42   S    
C46   C54   A    
C43   N4    A    
C16   C67   A    
C59   H17   S    
C48   C50   A    
C33   O5    A    
O1    Zn1   S    
C30   H4    S    
C32   H8    S    
C23   O10   A    
C74   C79   A    
C72   H35   S    
C26   C70   A    
C4    C6    A    
C25   C69   A    
O2    Zn1   S    
O4    Zn2   S    
C10   H39   S    
C17   H24   S    
C29   H3    S    
C37   C64   S    
C60   H18   S    
C56   C83   A    
C75   C80   A    
C27   C47   A    
C28   C48   A    
C13   H41   S    
O10   Zn2   S    
C21   C65   A    
C42   N3    A    
C36   C65   S    
C27   H46   S    
C12   O9    A    
C71   H33   S    
C2    C8    A    
C67   C80   A    
C3    C5    A    
C50   H45   S    
C58   C88   A    
C76   C81   A    
C6    C10   A    
C34   O11   A    
C25   C34   S    
C17   C65   A    
C9    H38   S    
C55   N1    A    
C31   C38   A    
N1    Zn1   S    
C19   C59   A    
C15   C56   A    
C11   H40   S    
C29   C31   A    
C82   C86   A    
N4    Zn4   S    
C19   H12   S    
C71   C75   A    
C78   C81   A    
C54   N2    A    
C3    C67   A    
C77   C82   A    
C72   C76   A    
C31   H7    S    
C38   H5    S    
C52   H10   S    
C25   C86   A    
C57   N2    A    
C37   O4    A    
C37   O8    A    
C61   H19   S    
C8    H15   S    
C1    O1    A    
C24   C68   A    
C35   O2    A    
C79   C83   A    
C40   C44   A    
C58   H16   S    
C1    C24   S    
C23   O14   A    
C15   C63   A    
C2    C56   A    
C16   C64   A    
O9    Zn1   S    
C81   C85   A    
C68   H26   S    
