data_mof_unit_28251.cif
_audit_creation_date              2012-12-10T18:46:21-0500
_audit_creation_method            fapswitch 2.2
_symmetry_space_group_name_H-M    P1
_symmetry_Int_Tables_number       1
_space_group_crystal_system       triclinic
_cell_length_a                    9.872167
_cell_length_b                    10.715018
_cell_length_c                    13.317798
_cell_angle_alpha                 90.457256
_cell_angle_beta                  71.66489
_cell_angle_gamma                 89.689502
_cell_volume                      1337.15457219

loop_
_atom_site_label
_atom_site_type_symbol
_atom_type_description
_atom_site_fract_x
_atom_site_fract_y
_atom_site_fract_z
_atom_type_partial_charge
C1    C     C_R   0.499636 0.740026 0.500410 0.864206
C2    C     C_R   0.441778 0.558175 0.979997 0.115577
C3    C     C_R   0.483632 0.563678 0.868859 0.035776
C4    C     C_R   0.549440 0.537885 0.028201 0.061884
C5    C     C_R   0.692777 0.514254 0.964978 0.033833
C6    C     C_R   0.733393 0.547266 0.858929 -0.235435
C7    C     C_R   0.629970 0.582056 0.814452 -0.144359
C8    C     C_R   0.518883 0.538762 0.137012 -0.259440
C9    C     C_R   0.757517 0.466290 0.121271 -0.219390
C10   C     C_R   0.378946 0.550311 0.816351 -0.252368
C11   C     C_R   0.610808 0.935704 0.522267 -0.186730
C12   C     C_R   0.422856 0.515377 0.702496 0.890589
C13   C     C_R   0.611368 0.063571 0.521717 -0.186697
C14   C     C_R   0.500209 0.127459 0.500077 -0.021534
C15   C     C_R   0.388396 0.064247 0.479102 -0.189278
C16   C     C_R   0.387854 0.936401 0.479627 -0.161494
C17   C     C_R   0.499216 0.872512 0.500970 -0.014617
C18   C     C_R   0.949510 0.406075 0.451329 -0.101542
C19   C     C_R   0.093559 0.406735 0.450449 -0.154327
C20   C     C_R   0.048289 0.593518 0.550192 0.474380
C21   C     C_R   0.906971 0.594904 0.546516 -0.084348
C22   C     C_R   0.500218 0.259972 0.499901 0.881554
C23   C     C_R   0.577516 0.500029 0.297330 0.907901
C24   C     C_R   0.793314 0.467749 0.011698 0.466230
C25   C     C_R   0.621283 0.503727 0.183311 -0.148002
C26   C     C_R   0.233181 0.567051 0.875868 0.470405
C27   C     C_R   0.193732 0.580201 0.985212 -0.099685
C28   C     C_R   0.294660 0.568704 0.037411 -0.311868
H1    H     H_    0.834436 0.432368 0.157644 0.173475
H2    H     H_    0.302206 0.113167 0.461649 0.154377
H3    H     H_    0.301431 0.887994 0.462494 0.179954
H4    H     H_    0.165093 0.332172 0.410610 0.152488
H5    H     H_    0.836498 0.671486 0.582835 0.137864
H6    H     H_    0.416106 0.569677 0.187686 0.173024
H7    H     H_    0.082291 0.592623 0.030785 0.185291
H8    H     H_    0.666423 0.623820 0.737589 0.172051
N1    N     N_R   0.142790 0.500030 0.500030 -0.136963
N2    N     N_R   0.857180 0.499940 0.500010 -0.112799
O1    O     O_R   0.385370 0.683250 0.500010 -0.623477
O2    O     O_R   0.614700 0.683220 0.500010 -0.638033
O3    O     O_R   0.328400 0.499990 0.653620 -0.630046
O4    O     O_R   0.557730 0.499960 0.653620 -0.616814
O5    O     O_R   0.385300 0.316780 0.499990 -0.626355
O6    O     O_R   0.614630 0.316750 0.499990 -0.624209
O7    O     O_R   0.442270 0.500040 0.346380 -0.620786
O8    O     O_R   0.671600 0.500010 0.346380 -0.615225
Zn1   Zn    Zn3+2 0.346870 0.500020 0.500000 0.951004
Zn2   Zn    Zn3+2 0.653130 0.499980 0.500000 0.943112
H9    H     H_    0.697788 0.112002 0.538835 0.160368
H10   H     H_    0.912399 0.330800 0.412376 0.145067
O9    O     O_3   0.086073 0.687387 0.606634 -0.772457
H11   H     H_    0.164561 0.655469 0.630194 0.395454
H12   H     H_    0.844626 0.551674 0.811346 0.194218
O10   O     O_3   0.922542 0.415962 0.954022 -0.776802
H13   H     H_    0.914839 0.385085 0.885736 0.326040
O11   O     O_3   0.127686 0.576554 0.829381 -0.748167
H14   H     H_    0.123295 0.494332 0.796294 0.352280
H15   H     H_    0.253108 0.567754 0.122454 0.156713
H16   H     H_    0.696953 0.886746 0.539752 0.158132

loop_
_geom_bond_atom_site_label_1
_geom_bond_atom_site_label_2
_ccdc_geom_bond_type
C24   O10   S    
C2    C4    A    
C9    C24   A    
C6    C7    A    
C23   O7    A    
C28   H15   S    
N1    Zn1   S    
C7    H8    S    
C1    C17   S    
C22   O5    A    
C12   O4    A    
C9    H1    S    
C4    C8    A    
C10   C26   A    
O7    Zn1   S    
C2    C3    A    
C18   N2    A    
C9    C25   A    
C23   O8    A    
O4    Zn2   S    
C13   C14   A    
O11   H14   S    
C16   H3    S    
C20   N1    A    
C11   C13   A    
C14   C22   S    
C26   C27   A    
C12   O3    A    
C5    C24   A    
C10   C12   S    
C11   H16   S    
C19   H4    S    
N2    Zn2   S    
C20   O9    S    
C3    C7    A    
C23   C25   S    
O3    Zn1   S    
C5    C6    A    
C13   H9    S    
C21   H5    S    
C1    O1    A    
C6    H12   S    
C8    C25   A    
O9    H11   S    
O8    Zn2   S    
O6    Zn2   S    
C4    C5    A    
C20   C21   A    
C18   H10   S    
C15   H2    S    
O1    Zn1   S    
C18   C19   A    
C27   C28   A    
C3    C10   A    
O2    Zn2   S    
O10   H13   S    
C11   C17   A    
C2    C28   A    
C14   C15   A    
C19   N1    A    
C1    O2    A    
C27   H7    S    
C8    H6    S    
O5    Zn1   S    
C22   O6    A    
C21   N2    A    
C15   C16   A    
C16   C17   A    
C26   O11   S    
