data_mof_unit_11470.cif
_audit_creation_date              2012-10-26T21:04:05-0400
_audit_creation_method            fapswitch 2.2
_symmetry_space_group_name_H-M    P1
_symmetry_Int_Tables_number       1
_space_group_crystal_system       triclinic
_cell_length_a                    15.0909
_cell_length_b                    13.859318
_cell_length_c                    10.856823
_cell_angle_alpha                 89.850777
_cell_angle_beta                  90.436917
_cell_angle_gamma                 90.05282
_cell_volume                      2270.62534691

loop_
_atom_site_label
_atom_site_type_symbol
_atom_type_description
_atom_site_fract_x
_atom_site_fract_y
_atom_site_fract_z
_atom_type_partial_charge
C1    C     C_R   0.329766 0.500038 0.498376 0.551524
C2    C     C_R   0.481977 0.107181 0.392812 -0.133795
C3    C     C_R   0.518156 0.208887 0.606065 0.028288
C4    C     C_R   0.481477 0.208718 0.394483 0.027080
C5    C     C_R   0.499446 0.054346 0.501143 0.040394
C6    C     C_R   0.432014 0.891872 0.439618 0.201068
C7    C     C_R   0.566314 0.891796 0.563783 0.200432
C8    C     C_R   0.436260 0.790367 0.436436 0.038378
C9    C     C_R   0.563125 0.790169 0.564812 0.040044
C10   C     C_R   0.499221 0.945103 0.501626 0.015859
C11   C     C_R   0.499992 0.499992 0.262575 0.552823
C12   C     C_R   0.669999 0.500102 0.500380 0.549860
C13   C     C_R   0.500067 0.499842 0.737419 0.553118
C14   C     C_R   0.498711 0.583478 0.061638 0.014219
C15   C     C_R   0.498781 0.583385 0.937665 0.014449
C16   C     C_R   0.500223 0.498885 0.130033 0.008859
C17   C     C_R   0.500273 0.498693 0.869959 0.008634
C18   C     C_R   0.502000 0.410855 0.064899 -0.162598
C19   C     C_R   0.501967 0.410762 0.935789 -0.162781
C20   C     C_3   0.496196 0.690607 0.928212 -0.263539
C21   C     C_3   0.496103 0.690696 0.070129 -0.263944
C22   C     C_R   0.095301 0.586269 0.455945 0.294077
C23   C     C_R   0.185511 0.416450 0.521156 -0.154297
C24   C     C_R   0.905331 0.571265 0.566221 0.300737
C25   C     C_R   0.187685 0.585171 0.460912 -0.129860
C26   C     C_R   0.812979 0.571603 0.564930 -0.121514
C27   C     C_R   0.233058 0.500486 0.493577 -0.029621
C28   C     C_R   0.766268 0.500534 0.499785 -0.028030
C29   C     C_3   0.294442 0.959116 0.461747 0.005149
C30   C     C_3   0.229278 0.874376 0.471980 -0.268751
C31   C     C_3   0.146875 0.902213 0.544315 -0.481073
C32   C     C_3   0.706835 0.953693 0.550884 0.004517
C33   C     C_3   0.776374 0.874330 0.570310 -0.261718
C34   C     C_R   0.811808 0.430093 0.433504 -0.152477
C35   C     C_3   0.863641 0.899673 0.507892 -0.482645
C36   C     C_3   0.047593 0.681900 0.298484 0.000148
C37   C     C_3   0.991432 0.770585 0.268067 -0.254693
C38   C     C_3   0.984718 0.787955 0.129545 -0.492507
C39   C     C_3   0.978868 0.598736 0.746750 0.007990
C40   C     C_3   0.048435 0.664647 0.805639 -0.247465
C41   C     C_3   0.090957 0.617561 0.918801 -0.494549
C42   C     C_R   0.093552 0.417702 0.519387 -0.195516
C43   C     C_R   0.903682 0.432066 0.429414 -0.188680
C44   C     C_R   0.047989 0.502642 0.488947 0.045420
C45   C     C_R   0.950982 0.502963 0.494149 0.046783
C46   C     C_R   0.517043 0.107399 0.608904 -0.133960
Cu1   Cu    Cu3+1 0.500000 0.596430 0.500000 0.916691
Cu2   Cu    Cu3+1 0.500000 0.403570 0.500000 0.930298
H1    H     H_    0.386711 0.750491 0.385037 0.135721
H2    H     H_    0.469333 0.070405 0.306630 0.139843
H3    H     H_    0.533439 0.247109 0.690016 0.120904
H4    H     H_    0.466233 0.246817 0.310181 0.120688
H5    H     H_    0.503407 0.342282 0.112860 0.124087
H6    H     H_    0.503228 0.342159 0.888378 0.123559
H7    H     H_    0.258232 0.022749 0.424649 0.155530
H8    H     H_    0.319357 0.980305 0.554946 0.123338
H9    H     H_    0.208869 0.850438 0.378307 0.174489
H10   H     H_    0.262100 0.813083 0.519928 0.151807
H11   H     H_    0.165694 0.926469 0.638381 0.139528
H12   H     H_    0.612223 0.750047 0.616811 0.135799
H13   H     H_    0.102322 0.838749 0.552478 0.197404
H14   H     H_    0.110352 0.960953 0.496179 0.137152
H15   H     H_    0.736522 0.024098 0.577426 0.157045
H16   H     H_    0.689009 0.959950 0.451068 0.119225
H17   H     H_    0.788785 0.863981 0.670533 0.181192
H18   H     H_    0.751442 0.805334 0.531462 0.154064
H19   H     H_    0.853050 0.909872 0.407346 0.135885
H20   H     H_    0.911894 0.840204 0.522583 0.197330
H21   H     H_    0.891904 0.966826 0.547731 0.139147
H22   H     H_    0.016341 0.617564 0.254328 0.129585
H23   H     H_    0.557787 0.720764 0.887766 0.142417
H24   H     H_    0.115381 0.692701 0.260822 0.117522
H25   H     H_    0.923672 0.760099 0.305249 0.176588
H26   H     H_    0.021321 0.835172 0.312558 0.165302
H27   H     H_    0.051693 0.797974 0.089760 0.147619
H28   H     H_    0.945201 0.854105 0.111526 0.144255
H29   H     H_    0.951144 0.726152 0.083975 0.148013
H30   H     H_    0.009301 0.526201 0.733584 0.128580
H31   H     H_    0.921639 0.591394 0.810212 0.120312
H32   H     H_    0.101093 0.680776 0.737463 0.187471
H33   H     H_    0.016859 0.733758 0.832771 0.159591
H34   H     H_    0.433119 0.717191 0.110272 0.139768
H35   H     H_    0.039649 0.597866 0.987204 0.138232
H36   H     H_    0.138447 0.668648 0.962217 0.141439
H37   H     H_    0.127602 0.551533 0.891771 0.153098
H38   H     H_    0.223619 0.650439 0.438418 0.114064
H39   H     H_    0.777922 0.625624 0.617579 0.114454
H40   H     H_    0.057758 0.352865 0.544542 0.111376
H41   H     H_    0.938029 0.378611 0.375021 0.112719
H42   H     H_    0.433263 0.717063 0.886391 0.142583
H43   H     H_    0.557644 0.720902 0.111732 0.144498
H44   H     H_    0.219297 0.350320 0.546530 0.139168
H45   H     H_    0.776204 0.375052 0.382511 0.133515
H46   H     H_    0.529174 0.070894 0.695625 0.141612
N1    N     N_R   0.500000 0.258690 0.500000 -0.219480
N2    N     N_R   0.500000 0.741330 0.500000 -0.287035
O1    O     O_R   0.371460 0.581430 0.500010 -0.514375
O2    O     O_3   0.633198 0.937931 0.628490 -0.597431
O3    O     O_3   0.051315 0.670946 0.427609 -0.549620
O4    O     O_3   0.950141 0.640244 0.634317 -0.546237
O5    O     O_R   0.628540 0.581430 0.499990 -0.511014
O6    O     O_R   0.371470 0.418560 0.500010 -0.494974
O7    O     O_R   0.628530 0.418560 0.499990 -0.493262
O8    O     O_R   0.499990 0.581450 0.319660 -0.498527
O9    O     O_R   0.500010 0.581450 0.680340 -0.499735
O10   O     O_R   0.500010 0.418580 0.319660 -0.521308
O11   O     O_R   0.499990 0.418580 0.680340 -0.520321
O12   O     O_3   0.363231 0.937626 0.378116 -0.597027

loop_
_geom_bond_atom_site_label_1
_geom_bond_atom_site_label_2
_ccdc_geom_bond_type
C7    C10   A    
C37   H26   S    
Cu1   O5    S    
C7    O2    S    
C31   H13   S    
C8    N2    A    
C34   H45   S    
C13   O11   A    
C33   H17   S    
C38   H28   S    
C37   C38   S    
C23   C42   A    
C4    H4    S    
C24   C45   A    
C14   C21   S    
C36   C37   S    
Cu2   N1    S    
C24   C26   A    
C30   C31   S    
C8    H1    S    
Cu2   O11   S    
C41   H35   S    
C30   H9    S    
C7    C9    A    
C18   C19   A    
C31   H11   S    
C2    H2    S    
C18   H5    S    
C17   C19   A    
Cu2   O10   S    
C26   H39   S    
Cu1   O9    S    
C22   C25   A    
Cu1   N2    S    
C40   H32   S    
C20   H23   S    
C11   O8    A    
C22   O3    S    
C23   C27   A    
C28   C34   A    
C31   H14   S    
C42   C44   A    
C36   H22   S    
C33   H18   S    
C38   H27   S    
C15   C20   S    
C22   C44   A    
C39   H30   S    
C32   H16   S    
C12   O7    A    
C13   O9    A    
C1    O1    A    
C39   C40   S    
C3    H3    S    
C6    C8    A    
C29   H7    S    
Cu2   O7    S    
C20   H42   S    
C39   H31   S    
C2    C4    A    
C29   C30   S    
C4    N1    A    
C11   C16   S    
Cu1   Cu2   S    
C46   H46   S    
C35   H19   S    
Cu2   O6    S    
C11   O10   A    
C14   C15   A    
C29   O12   S    
C43   H41   S    
C21   H34   S    
C43   C45   A    
C9    N2    A    
C19   H6    S    
C40   C41   S    
C38   H29   S    
C12   C28   S    
C14   C16   A    
C2    C5    A    
C42   H40   S    
C44   C45   S    
C21   H43   S    
C15   C17   A    
C37   H25   S    
Cu1   O8    S    
C24   O4    S    
C40   H33   S    
C34   C43   A    
C32   H15   S    
C6    C10   A    
C29   H8    S    
C25   C27   A    
C41   H37   S    
C5    C46   A    
C3    C46   A    
C26   C28   A    
Cu1   O1    S    
C13   C17   S    
C9    H12   S    
C32   C33   S    
C5    C10   S    
C41   H36   S    
C39   O4    S    
C35   H20   S    
C30   H10   S    
C25   H38   S    
C33   C35   S    
C32   O2    S    
C36   O3    S    
C12   O5    A    
C20   C21   S    
C35   H21   S    
C16   C18   A    
C1    C27   S    
C6    O12   S    
C23   H44   S    
C3    N1    A    
C1    O6    A    
C36   H24   S    
