data_mof_unit_61110.cif
_audit_creation_date              2012-12-11T16:01:39-0500
_audit_creation_method            fapswitch 2.2
_symmetry_space_group_name_H-M    P1
_symmetry_Int_Tables_number       1
_space_group_crystal_system       triclinic
_cell_length_a                    23.713457
_cell_length_b                    25.201239
_cell_length_c                    8.459105
_cell_angle_alpha                 89.999467
_cell_angle_beta                  98.421855
_cell_angle_gamma                 90.062963
_cell_volume                      5000.71704093

loop_
_atom_site_label
_atom_site_type_symbol
_atom_type_description
_atom_site_fract_x
_atom_site_fract_y
_atom_site_fract_z
_atom_type_partial_charge
Ba1   Ba    Ba6+2 0.999910 0.463090 0.844860 1.629171
Ba2   Ba    Ba6+2 0.999910 0.536910 0.344860 1.634669
Ba3   Ba    Ba6+2 0.499910 0.963090 0.844860 1.631215
Ba4   Ba    Ba6+2 0.499910 0.036910 0.344860 1.653249
C1    C     C_3   0.057877 0.271338 0.679737 -0.296689
C2    C     C_3   0.054859 0.739024 0.145012 -0.199722
C3    C     C_3   0.557456 0.770864 0.681271 -0.296307
C4    C     C_3   0.551687 0.235379 0.119031 -0.208320
C5    C     C_R   0.872384 0.381128 0.133665 0.070114
C6    C     C_R   0.872803 0.619257 0.634062 0.083765
C7    C     C_R   0.372160 0.881301 0.134063 0.068933
C8    C     C_R   0.373086 0.119370 0.633171 0.094806
C9    C     C_R   0.828433 0.345288 0.076190 -0.156932
C10   C     C_R   0.828521 0.654810 0.577361 -0.186467
C11   C     C_R   0.327784 0.845838 0.077345 -0.154857
C12   C     C_R   0.329339 0.155359 0.575500 -0.167429
C13   C     C_R   0.814631 0.302760 0.172309 -0.015842
C14   C     C_R   0.813805 0.696578 0.674956 -0.055559
C15   C     C_R   0.313754 0.803538 0.173891 -0.014575
C16   C     C_R   0.315578 0.197948 0.671543 -0.038628
C17   C     C_R   0.843542 0.298180 0.330973 0.386782
C18   C     C_R   0.841957 0.700416 0.834740 0.345793
C19   C     C_R   0.343001 0.798688 0.332067 0.385606
C20   C     C_R   0.344108 0.202189 0.830811 0.359673
C21   C     C_R   0.888912 0.333333 0.385201 -0.028391
C22   C     C_R   0.888758 0.666725 0.887274 -0.051081
C23   C     C_R   0.388693 0.833539 0.385671 -0.027631
C24   C     C_R   0.389650 0.167312 0.885013 -0.063168
C25   C     C_R   0.171894 0.654789 0.109072 -0.125335
C26   C     C_R   0.174270 0.347094 0.604353 -0.119754
C27   C     C_R   0.673284 0.153436 0.104618 -0.118750
C28   C     C_R   0.673401 0.846522 0.605747 -0.120225
C29   C     C_R   0.126655 0.619636 0.055744 0.059241
C30   C     C_R   0.128171 0.381432 0.552843 0.054866
C31   C     C_R   0.628258 0.118253 0.050384 0.063890
C32   C     C_R   0.627564 0.881100 0.553656 0.058315
C33   C     C_R   0.106639 0.669124 0.808038 0.013741
C34   C     C_R   0.108630 0.332683 0.303676 0.026342
C35   C     C_R   0.610645 0.166148 0.797606 -0.021899
C36   C     C_R   0.608008 0.832260 0.304670 0.025635
C37   C     C_R   0.151751 0.704131 0.860268 -0.135837
C38   C     C_R   0.153754 0.297645 0.355671 -0.139662
C39   C     C_R   0.656723 0.200268 0.851020 -0.138586
C40   C     C_R   0.652854 0.796972 0.357295 -0.139499
C41   C     C_R   0.184051 0.697907 0.012597 -0.008167
C42   C     C_R   0.186731 0.304260 0.507158 -0.003616
C43   C     C_R   0.687076 0.195318 0.006267 0.000649
C44   C     C_R   0.685667 0.803480 0.509088 -0.004381
C45   C     C_3   0.976886 0.274732 0.044077 0.424084
C46   C     C_3   0.000872 0.745564 0.558752 0.481577
C47   C     C_3   0.476419 0.774896 0.045144 0.424202
C48   C     C_3   0.564767 0.272347 0.619589 0.486695
C49   C     C_1   0.230169 0.735007 0.067138 -0.020921
C50   C     C_1   0.232733 0.267022 0.562396 -0.010887
C51   C     C_1   0.732490 0.232997 0.062864 -0.026637
C52   C     C_1   0.731256 0.765909 0.565303 -0.016644
C53   C     C_1   0.769879 0.264863 0.110548 0.054031
C54   C     C_1   0.768800 0.734249 0.613391 0.016663
C55   C     C_1   0.268252 0.766304 0.113359 0.053343
C56   C     C_1   0.270550 0.235568 0.609897 0.030783
C57   C     C_R   0.093053 0.628580 0.908336 -0.276820
C58   C     C_R   0.094860 0.372816 0.404813 -0.284046
C59   C     C_R   0.596154 0.126195 0.899484 -0.276259
C60   C     C_R   0.594310 0.872512 0.405532 -0.284015
C61   C     C_3   0.944734 0.221212 0.023419 1.022390
C62   C     C_3   0.995926 0.806894 0.539309 1.052007
C63   C     C_3   0.444001 0.721513 0.024876 1.022046
C64   C     C_3   0.536148 0.326185 0.569645 1.071201
C65   C     C_3   0.163316 0.466403 0.240742 0.315566
C66   C     C_3   0.162021 0.534075 0.743255 0.319310
C67   C     C_3   0.662364 0.965897 0.240893 0.314984
C68   C     C_3   0.664357 0.033089 0.744309 0.320520
C69   C     C_3   0.217347 0.433076 0.261603 -0.396296
C70   C     C_3   0.215685 0.568048 0.767091 -0.391625
C71   C     C_3   0.716332 0.932462 0.264024 -0.398363
C72   C     C_3   0.719036 0.065646 0.767414 -0.403246
C73   C     C_3   0.835732 0.533154 0.939956 0.319966
C74   C     C_3   0.835882 0.466281 0.444248 0.316975
C75   C     C_3   0.336415 0.033568 0.941523 0.320340
C76   C     C_3   0.335690 0.966399 0.444308 0.312532
C77   C     C_3   0.780626 0.564742 0.907426 -0.393248
C78   C     C_3   0.781534 0.433243 0.421029 -0.386095
C79   C     C_3   0.281824 0.066018 0.911941 -0.390864
C80   C     C_3   0.281322 0.933413 0.421743 -0.380215
C81   C     C_3   0.003776 0.257604 0.565270 0.856812
C82   C     C_3   0.994149 0.747433 0.061852 0.813011
C83   C     C_3   0.503474 0.757431 0.566019 0.856636
C84   C     C_3   0.490211 0.250216 0.057179 0.828722
C85   C     C_R   0.903710 0.373261 0.284620 -0.347788
C86   C     C_R   0.904470 0.627620 0.784770 -0.331044
C87   C     C_R   0.403624 0.873327 0.284801 -0.348442
C88   C     C_R   0.404694 0.127586 0.783844 -0.320163
H1    H     H_    0.250184 0.451597 0.351996 0.119033
H2    H     H_    0.248418 0.549551 0.857684 0.115895
H3    H     H_    0.748731 0.950861 0.355910 0.120938
H4    H     H_    0.751993 0.045442 0.853432 0.121715
H5    H     H_    0.748327 0.542238 0.825334 0.128273
H6    H     H_    0.747752 0.454073 0.339326 0.121952
H7    H     H_    0.248928 0.044338 0.829438 0.125437
H8    H     H_    0.247455 0.954281 0.340441 0.124271
H9    H     H_    0.787986 0.603132 0.850969 0.040432
H10   H     H_    0.789162 0.394284 0.368226 0.026263
H11   H     H_    0.289666 0.104615 0.857219 0.032755
H12   H     H_    0.288824 0.894464 0.368762 0.027655
H13   H     H_    0.763867 0.572376 0.021221 0.111201
H14   H     H_    0.766565 0.426690 0.537937 0.119065
H15   H     H_    0.265589 0.073306 0.026690 0.113332
H16   H     H_    0.266560 0.926862 0.538926 0.118022
H17   H     H_    0.096078 0.266027 0.621251 0.015559
H18   H     H_    0.085355 0.748646 0.062287 0.006802
H19   H     H_    0.595755 0.765358 0.623440 0.017024
H20   H     H_    0.580793 0.253205 0.042321 0.022456
H21   H     H_    0.162463 0.735173 0.781129 0.074584
H22   H     H_    0.163676 0.266042 0.277439 0.062953
H23   H     H_    0.669532 0.230328 0.772441 0.052240
H24   H     H_    0.662681 0.765250 0.279346 0.062852
H25   H     H_    0.804377 0.351128 0.958411 0.092356
H26   H     H_    0.804564 0.649029 0.459406 0.094911
H27   H     H_    0.303521 0.851852 0.959921 0.090641
H28   H     H_    0.305148 0.149379 0.457940 0.089141
H29   H     H_    0.937458 0.400748 0.328854 0.079902
H30   H     H_    0.938670 0.600571 0.828173 0.076940
H31   H     H_    0.437618 0.900616 0.328615 0.079946
H32   H     H_    0.438274 0.100027 0.828297 0.069630
H33   H     H_    0.059440 0.600859 0.864899 0.062018
H34   H     H_    0.060341 0.399747 0.363208 0.066652
H35   H     H_    0.561663 0.099232 0.857434 0.063062
H36   H     H_    0.560014 0.899625 0.363473 0.065880
H37   H     H_    0.965526 0.294468 0.152717 -0.082793
H38   H     H_    0.997690 0.734777 0.684145 -0.243600
H39   H     H_    0.465421 0.794629 0.154207 -0.083605
H40   H     H_    0.608602 0.272851 0.588114 -0.133374
H41   H     H_    0.130817 0.446577 0.152199 0.063385
H42   H     H_    0.129606 0.553770 0.654512 0.071663
H43   H     H_    0.630202 0.946148 0.151240 0.065000
H44   H     H_    0.632064 0.053870 0.657601 0.052834
O1    O     O_2   0.888900 0.426190 0.854560 -0.457513
O2    O     O_2   0.888900 0.573810 0.354560 -0.451676
O3    O     O_2   0.388900 0.926190 0.854560 -0.457131
O4    O     O_2   0.388900 0.073810 0.354560 -0.451203
O5    O     O_3   0.176275 0.484270 0.688481 -0.636021
O6    O     O_3   0.176842 0.516619 0.187286 -0.636703
O7    O     O_3   0.676966 0.983329 0.686345 -0.635782
O8    O     O_3   0.676381 0.016012 0.187923 -0.638118
O9    O     O_3   0.036334 0.268075 0.057389 -0.665187
O10   O     O_3   0.052638 0.729060 0.512933 -0.615075
O11   O     O_3   0.535812 0.768048 0.057209 -0.665055
O12   O     O_3   0.533142 0.230048 0.541894 -0.573159
O13   O     O_3   0.064650 0.525760 0.074400 -0.493916
O14   O     O_3   0.064650 0.474240 0.574400 -0.492463
O15   O     O_3   0.564650 0.025760 0.074400 -0.494121
O16   O     O_3   0.564650 0.974240 0.574400 -0.492133
O17   O     O_3   0.935290 0.474120 0.115310 -0.489670
O18   O     O_3   0.935290 0.525880 0.615310 -0.492586
O19   O     O_3   0.435290 0.974120 0.115310 -0.490976
O20   O     O_3   0.435290 0.025880 0.615310 -0.494414
O21   O     O_3   0.980700 0.380570 0.633410 -0.504643
O22   O     O_3   0.980700 0.619430 0.133410 -0.489770
O23   O     O_3   0.480700 0.880570 0.633410 -0.505073
O24   O     O_3   0.480700 0.119430 0.133410 -0.486663
O25   O     O_2   0.884972 0.339657 0.710684 -0.485121
O26   O     O_2   0.883471 0.657434 0.211280 -0.473934
O27   O     O_2   0.384953 0.839858 0.711014 -0.485666
O28   O     O_2   0.382703 0.156936 0.206647 -0.463926
O29   O     O_3   0.823161 0.484226 0.003694 -0.638466
O30   O     O_3   0.823018 0.515769 0.503765 -0.639367
O31   O     O_3   0.323324 0.984466 0.003291 -0.638449
O32   O     O_3   0.322937 0.015899 0.503925 -0.641929
O33   O     O_3   0.956745 0.268875 0.644263 -0.580754
O34   O     O_3   0.955992 0.728982 0.163072 -0.590299
O35   O     O_3   0.456352 0.768834 0.644474 -0.579842
O36   O     O_3   0.454882 0.229427 0.162822 -0.561431
O37   O     O_2   0.110790 0.425640 0.834940 -0.459446
O38   O     O_2   0.110790 0.574360 0.334940 -0.448416
O39   O     O_2   0.610790 0.925640 0.834940 -0.461652
O40   O     O_2   0.610790 0.074360 0.334940 -0.455831
O41   O     O_3   0.018840 0.380480 0.055970 -0.490191
O42   O     O_3   0.018840 0.619520 0.555970 -0.478486
O43   O     O_3   0.518840 0.880480 0.055970 -0.490674
O44   O     O_3   0.518840 0.119520 0.555970 -0.449530
O45   O     O_2   0.112409 0.334895 0.978226 -0.493976
O46   O     O_2   0.121633 0.651838 0.503495 -0.479969
O47   O     O_2   0.612413 0.834647 0.979353 -0.493958
O48   O     O_2   0.610070 0.164686 0.464564 -0.498959
P1    P     P_3+3 0.883430 0.443490 0.026090 0.989611
P2    P     P_3+3 0.883430 0.556510 0.526090 0.992602
P3    P     P_3+3 0.383430 0.943490 0.026090 0.988696
P4    P     P_3+3 0.383430 0.056510 0.526090 0.994791
P5    P     P_3+3 0.116320 0.442910 0.663460 0.983142
P6    P     P_3+3 0.116320 0.557090 0.163460 0.986983
P7    P     P_3+3 0.616320 0.942910 0.663460 0.982563
P8    P     P_3+3 0.616320 0.057090 0.163460 0.987538
P9    P     P_3+3 0.069575 0.329805 0.098948 0.908481
P10   P     P_3+3 0.073259 0.667532 0.597774 0.952935
P11   P     P_3+3 0.569327 0.829622 0.099422 0.907917
P12   P     P_3+3 0.569929 0.170417 0.592237 0.974977
P13   P     P_3+3 0.926838 0.667784 0.095531 0.968181
P14   P     P_3+3 0.927667 0.331482 0.591287 0.957212
P15   P     P_3+3 0.426909 0.167923 0.093777 0.995923
P16   P     P_3+3 0.427576 0.831556 0.591520 0.957061
H45   H     H_    0.002467 0.280844 0.452350 -0.166023
H46   H     H_    0.989995 0.726593 0.944697 -0.172530
H47   H     H_    0.502466 0.780761 0.453366 -0.165995
H48   H     H_    0.480250 0.234861 0.932281 -0.178825
H49   H     H_    0.208490 0.392631 0.302009 0.069791
H50   H     H_    0.206193 0.608177 0.808698 0.066017
H51   H     H_    0.707177 0.891990 0.303505 0.068001
H52   H     H_    0.711376 0.105418 0.814667 0.064832
H53   H     H_    0.234151 0.430052 0.146060 0.124504
H54   H     H_    0.232951 0.571875 0.652429 0.127942
H55   H     H_    0.733883 0.929517 0.149579 0.124025
H56   H     H_    0.735132 0.070399 0.651329 0.122972
H57   H     H_    0.852615 0.527423 0.826045 0.019906
H58   H     H_    0.850992 0.471131 0.327455 0.018591
H59   H     H_    0.352795 0.028096 0.826784 0.016207
H60   H     H_    0.350624 0.971219 0.327257 0.018264
H61   H     H_    0.866947 0.555355 0.026209 0.050522
H62   H     H_    0.868549 0.445529 0.529859 0.054121
H63   H     H_    0.368218 0.055054 0.027953 0.051232
H64   H     H_    0.368440 0.945631 0.529633 0.054268
O49   O     O_3   0.001950 0.202510 0.529884 -0.606340
C89   C     C_3   0.046519 0.187037 0.445277 0.161939
H65   H     H_    0.054843 0.216487 0.353442 0.048346
H66   H     H_    0.034483 0.149072 0.383004 0.078435
H67   H     H_    0.086130 0.179384 0.529652 0.003539
O50   O     O_3   0.986738 0.802552 0.035318 -0.676327
C90   C     C_3   0.930059 0.813898 0.968745 0.231548
H68   H     H_    0.901546 0.811621 0.061713 0.104901
H69   H     H_    0.914731 0.787075 0.867740 0.067318
H70   H     H_    0.928131 0.855124 0.922436 0.052028
O51   O     O_3   0.501450 0.702366 0.530215 -0.606621
C91   C     C_3   0.546062 0.686797 0.445885 0.161764
H71   H     H_    0.554525 0.716234 0.354161 0.048140
H72   H     H_    0.533968 0.648867 0.383476 0.079468
H73   H     H_    0.585600 0.679032 0.530436 0.004834
O52   O     O_3   0.486504 0.306167 0.055852 -0.662351
C92   C     C_3   0.431597 0.322646 0.986647 0.215124
H74   H     H_    0.399916 0.313902 0.067742 0.111366
H75   H     H_    0.418483 0.304550 0.866919 0.075107
H76   H     H_    0.432240 0.366282 0.969922 0.021077
H77   H     H_    0.056451 0.313235 0.717163 0.123665
H78   H     H_    0.061148 0.697363 0.185858 0.082080
H79   H     H_    0.556173 0.812756 0.718880 0.123664
H80   H     H_    0.556281 0.191858 0.119574 0.050781
O53   O     O_3   0.951914 0.196080 0.176374 -0.691572
C93   C     C_3   0.909099 0.158282 0.192511 0.196606
H81   H     H_    0.905795 0.127620 0.097577 -0.003067
H82   H     H_    0.867298 0.177759 0.196224 0.100723
H83   H     H_    0.920686 0.137528 0.308285 0.083748
O54   O     O_3   0.952199 0.827444 0.621978 -0.716488
C94   C     C_3   0.896672 0.812908 0.549095 0.065206
H84   H     H_    0.890034 0.769419 0.552586 0.024300
H85   H     H_    0.886596 0.828014 0.424895 0.088075
H86   H     H_    0.865352 0.831245 0.617826 0.075061
O55   O     O_3   0.451481 0.696244 0.177619 -0.691449
C95   C     C_3   0.408569 0.658594 0.194286 0.198134
H87   H     H_    0.404720 0.628136 0.098690 -0.002994
H88   H     H_    0.366966 0.678257 0.199556 0.101484
H89   H     H_    0.420431 0.637563 0.309481 0.083905
O56   O     O_3   0.568429 0.369805 0.645923 -0.715211
C96   C     C_3   0.572562 0.369655 0.814318 0.043603
H90   H     H_    0.531188 0.361945 0.855889 0.118875
H91   H     H_    0.586690 0.409599 0.858857 0.079795
H92   H     H_    0.605549 0.341147 0.868145 0.036238
H93   H     H_    0.198083 0.647955 0.223282 0.088161
H94   H     H_    0.200389 0.353919 0.718702 0.085205
H95   H     H_    0.698020 0.147618 0.221491 0.082196
H96   H     H_    0.699471 0.853317 0.720190 0.085976
O57   O     O_3   0.829166 0.258462 0.430806 -0.643940
C97   C     C_3   0.779749 0.273935 0.494178 0.139747
H97   H     H_    0.742823 0.281133 0.399637 0.016387
H98   H     H_    0.787739 0.309849 0.570328 0.057570
H99   H     H_    0.767268 0.241294 0.569749 0.054731
O58   O     O_3   0.825529 0.738098 0.937842 -0.668362
C98   C     C_3   0.777045 0.719515 0.999906 0.175322
H100  H     H_    0.783969 0.679455 0.054479 0.039507
H101  H     H_    0.738802 0.718975 0.906793 0.030151
H102  H     H_    0.768076 0.747077 0.095400 0.065485
O59   O     O_3   0.328674 0.758954 0.431940 -0.645189
C99   C     C_3   0.279565 0.774556 0.496592 0.140651
H103  H     H_    0.267117 0.741865 0.572024 0.058344
H104  H     H_    0.242472 0.782031 0.402875 0.029084
H105  H     H_    0.287917 0.810343 0.573096 0.057854
O60   O     O_3   0.329202 0.241215 0.931947 -0.668187
C100  C     C_3   0.280383 0.224713 0.996357 0.169289
H106  H     H_    0.285343 0.184253 0.049168 0.038007
H107  H     H_    0.241653 0.226174 0.905124 0.028322
H108  H     H_    0.273612 0.252464 0.093624 0.072165
H109  H     H_    0.061991 0.245137 0.785919 0.145347
H110  H     H_    0.064332 0.766017 0.248840 0.163466
H111  H     H_    0.561238 0.744577 0.787194 0.145341
H112  H     H_    0.564111 0.249419 0.243245 0.144177
H113  H     H_    0.962053 0.300072 0.939036 0.062752
H114  H     H_    0.965445 0.725475 0.480981 0.015121
H115  H     H_    0.461436 0.800307 0.940358 0.062295
H116  H     H_    0.566241 0.267247 0.750328 -0.144774
O61   O     O_3   0.886163 0.235121 0.975523 -0.712468
C101  C     C_3   0.858514 0.205589 0.844469 0.204613
H117  H     H_    0.863560 0.162161 0.862606 0.030543
H118  H     H_    0.873981 0.217634 0.732357 0.161425
H119  H     H_    0.812272 0.214234 0.830805 0.027363
O62   O     O_3   0.983447 0.818663 0.373398 -0.653635
C102  C     C_3   0.988482 0.873756 0.344376 0.251442
H120  H     H_    0.033690 0.884077 0.338571 0.069521
H121  H     H_    0.971728 0.899022 0.434868 0.036979
H122  H     H_    0.963368 0.883562 0.227171 0.034244
O63   O     O_3   0.385429 0.735692 0.978493 -0.713093
C103  C     C_3   0.357349 0.706587 0.847148 0.202354
H123  H     H_    0.362156 0.663096 0.864306 0.031747
H124  H     H_    0.372671 0.718820 0.734986 0.160953
H125  H     H_    0.311172 0.715473 0.834495 0.027729
O64   O     O_3   0.480385 0.324877 0.613030 -0.668142
C104  C     C_3   0.447847 0.369358 0.552792 0.201700
H126  H     H_    0.435273 0.366181 0.421306 0.091295
H127  H     H_    0.470504 0.407426 0.584052 0.046262
H128  H     H_    0.408066 0.370047 0.607316 0.022657
O65   O     O_3   0.967141 0.190475 0.903942 -0.655166
C105  C     C_3   0.011220 0.155102 0.965880 0.199425
H129  H     H_    0.992918 0.117542 0.004182 0.021680
H130  H     H_    0.041320 0.171962 0.066184 0.057612
H131  H     H_    0.036278 0.145207 0.868967 0.063091
O66   O     O_3   0.049948 0.830204 0.598837 -0.668860
C106  C     C_3   0.060601 0.833140 0.767048 0.171669
H132  H     H_    0.057877 0.793654 0.822525 0.046711
H133  H     H_    0.031775 0.862176 0.813236 0.106104
H134  H     H_    0.104861 0.847544 0.802740 0.042308
O67   O     O_3   0.465869 0.690746 0.904527 -0.655308
C107  C     C_3   0.509919 0.655179 0.965298 0.198840
H135  H     H_    0.491586 0.617678 0.003924 0.022486
H136  H     H_    0.540366 0.671892 0.065080 0.057749
H137  H     H_    0.534596 0.645212 0.867610 0.064200
O68   O     O_3   0.531519 0.330294 0.399586 -0.635471
C108  C     C_3   0.579315 0.355263 0.348667 0.168124
H138  H     H_    0.620298 0.337884 0.406107 0.002037
H139  H     H_    0.578495 0.398690 0.370980 0.074325
H140  H     H_    0.577151 0.349819 0.217933 0.076195
H141  H     H_    0.147712 0.469847 0.357331 0.012095
H142  H     H_    0.145871 0.529988 0.858842 0.009125
H143  H     H_    0.646110 0.969464 0.356486 0.013491
H144  H     H_    0.648944 0.028727 0.860890 0.015055

loop_
_geom_bond_atom_site_label_1
_geom_bond_atom_site_label_2
_ccdc_geom_bond_type
C31   P8    S    
C32   P7    S    
C2    H18   S    
C69   H1    S    
C74   H58   S    
C71   H3    S    
C102  H121  S    
O43   P11   S    
C108  H138  S    
O41   P9    S    
O60   C100  S    
C27   C43   A    
C4    H80   S    
C95   H89   S    
C25   C29   A    
O36   P15   S    
O58   C98   S    
C22   P13   S    
Ba4   P8    S    
C71   H51   S    
C14   C54   S    
C8    C12   A    
C61   O61   S    
C66   C70   S    
C45   H113  S    
O46   P10   D    
O10   P10   S    
C82   H46   S    
O44   P12   S    
C103  H125  S    
O53   C93   S    
C78   H6    S    
C63   O67   S    
C65   H141  S    
C17   O57   S    
C106  H132  S    
C80   H8    S    
C76   H60   S    
C58   H34   S    
C47   H39   S    
C65   O6    S    
C81   O33   S    
C25   C41   A    
C46   H114  S    
C15   C19   A    
C74   C78   S    
C75   H63   S    
C102  H120  S    
C12   C16   A    
C83   O35   S    
C91   H72   S    
Ba1   O14   S    
C99   H103  S    
O23   P16   S    
C51   C53   T    
C97   H98   S    
C101  H117  S    
C108  H140  S    
C85   H29   S    
C105  H131  S    
O2    P2    D    
O30   P2    S    
Ba2   P6    S    
C37   H21   S    
C68   H44   S    
Ba3   P3    S    
Ba1   P1    S    
C22   C86   A    
C34   P9    S    
Ba4   P4    S    
C88   H32   S    
C100  H107  S    
O19   P3    S    
C72   H4    S    
C73   H61   S    
Ba3   O20   S    
Ba1   O18   S    
O29   P1    S    
C7    C87   A    
Ba4   O19   S    
C40   H24   S    
C29   C57   A    
C66   H42   S    
C37   C41   A    
C31   C59   A    
C75   O31   S    
C32   C60   A    
C39   C43   A    
C76   O32   S    
C40   C44   A    
C34   C58   A    
Ba2   O14   S    
C75   C79   S    
C62   O54   S    
C63   O63   S    
O18   P2    S    
Ba1   O37   S    
O49   C89   S    
C79   H11   S    
O25   P14   D    
C28   C32   A    
C69   H53   S    
C12   H28   S    
C96   H90   S    
C104  H127  S    
C73   O29   S    
O52   C92   S    
O21   P14   S    
C5    C9    A    
C38   H22   S    
C95   H88   S    
C23   C87   A    
O28   P15   D    
C1    C81   S    
C72   H56   S    
C41   C49   S    
C48   O12   S    
C87   H31   S    
C92   H74   S    
Ba3   O23   S    
C7    C11   A    
C103  H124  S    
O24   P15   S    
Ba4   O16   S    
C77   H13   S    
C24   P15   S    
C26   C30   A    
C27   H95   S    
C98   H102  S    
O68   C108  S    
C6    C10   A    
C19   O59   S    
C94   H86   S    
C89   H67   S    
C15   C55   S    
C106  H133  S    
C2    H110  S    
O35   P16   S    
C78   H10   S    
C47   C63   S    
C84   H48   S    
C89   H66   S    
O15   P8    S    
C90   H69   S    
Ba4   O40   S    
C80   H12   S    
Ba3   O3    S    
Ba3   Ba4   S    
Ba1   O1    S    
C69   H49   S    
C93   H81   S    
C66   O5    S    
O7    P7    S    
C82   O34   S    
C8    C88   A    
C20   C24   A    
C107  H135  S    
C96   H92   S    
C2    C82   S    
C26   C42   A    
C6    P2    S    
C52   C54   T    
C78   H14   S    
C33   C37   A    
C72   H52   S    
C36   C40   A    
O50   C90   S    
C92   H76   S    
C2    H78   S    
C79   H7    S    
Ba2   O42   S    
C81   O49   S    
O34   P13   S    
C93   H83   S    
Ba1   P5    S    
O32   P4    S    
C25   H93   S    
C70   H2    S    
C98   H100  S    
C99   H105  S    
C76   C80   S    
C73   H57   S    
C94   H84   S    
C11   C15   A    
O42   P10   S    
C71   H55   S    
Ba3   O16   S    
C62   O66   S    
C4    H20   S    
C70   H50   S    
O6    P6    S    
C30   C58   A    
C38   C42   A    
C17   C21   A    
C21   P14   S    
C3    H111  S    
C3    C83   S    
O47   P11   D    
O59   C99   S    
C65   C69   S    
C16   C56   S    
O45   P9    D    
O9    P9    S    
C81   H45   S    
C46   O10   S    
C108  H139  S    
O66   C106  S    
C14   C18   A    
O57   C97   S    
C28   C44   A    
C97   H99   S    
C101  H118  S    
Ba4   O44   S    
C107  H137  S    
C83   H47   S    
C61   O65   S    
C102  H122  S    
O1    P1    D    
O20   P4    S    
C66   H142  S    
C74   O30   S    
O63   C103  S    
O4    P4    D    
O5    P5    S    
C5    C85   A    
O56   C96   S    
C77   H9    S    
O8    P8    S    
O54   C94   S    
O48   P12   D    
C29   P6    S    
C101  H119  S    
C48   H40   S    
Ba2   O2    S    
C100  H106  S    
C73   C77   S    
Ba2   O22   S    
C42   C50   S    
C45   O9    S    
O38   P6    D    
Ba3   O39   S    
C27   C31   A    
C64   O56   S    
C61   O53   S    
C62   O62   S    
C9    H25   S    
C63   O55   S    
O16   P7    S    
C35   P12   S    
C21   C85   A    
C33   P10   S    
O67   C107  S    
C74   H62   S    
O14   P5    S    
O39   P7    D    
C104  H126  S    
C1    H17   S    
C91   H71   S    
C80   H16   S    
C3    H19   S    
C4    C84   S    
C13   C17   A    
C94   H85   S    
C9    C13   A    
C6    C86   A    
C18   C22   A    
C77   H5    S    
C97   H97   S    
C64   O64   S    
C18   O58   S    
C13   C53   S    
C67   O8    S    
C68   O7    S    
C84   O36   S    
O61   C101  S    
C10   C14   A    
C68   C72   S    
C49   C55   T    
C50   C56   T    
O64   C104  S    
O26   P13   D    
O13   P6    S    
C68   H144  S    
C45   C61   S    
C70   H54   S    
C7    P3    S    
C98   H101  S    
C99   H104  S    
C34   C38   A    
C100  H108  S    
C5    P1    S    
C67   H43   S    
O40   P8    D    
C8    P4    S    
O22   P13   S    
Ba1   Ba2   S    
C90   H68   S    
Ba3   O43   S    
C46   H38   S    
C39   H23   S    
Ba1   O41   S    
O12   P12   S    
C20   O60   S    
C11   H27   S    
C60   H36   S    
C105  H130  S    
O11   P11   S    
C26   H94   S    
C19   C23   A    
C64   O68   S    
C47   H115  S    
C48   C64   S    
Ba2   O13   S    
C75   H59   S    
C86   H30   S    
C89   H65   S    
O3    P3    D    
C84   O52   S    
C93   H82   S    
C16   C20   A    
C107  H136  S    
C96   H91   S    
C104  H128  S    
C35   C39   A    
C10   H26   S    
C45   H37   S    
C91   H73   S    
C48   H116  S    
Ba2   P2    S    
C105  H129  S    
Ba3   P7    S    
Ba4   O4    S    
C47   O11   S    
O31   P3    S    
C95   H87   S    
C24   C88   A    
C46   C62   S    
O27   P16   D    
Ba2   O17   S    
C92   H75   S    
C82   O50   S    
O55   C95   S    
C103  H123  S    
C43   C51   S    
C4    H112  S    
C44   C52   S    
Ba4   O15   S    
O62   C102  S    
C65   H41   S    
C30   P5    S    
C23   P16   S    
Ba1   O13   S    
C1    H109  S    
C76   H64   S    
C33   C57   A    
C35   C59   A    
Ba3   O15   S    
C36   C60   A    
C106  H134  S    
Ba1   O21   S    
Ba2   O38   S    
C67   C71   S    
Ba4   O24   S    
O17   P1    S    
C83   O51   S    
O37   P5    D    
C79   H15   S    
C28   H96   S    
C67   H143  S    
O65   C105  S    
C90   H70   S    
C3    H79   S    
O51   C91   S    
C57   H33   S    
C1    H77   S    
C36   P11   S    
C59   H35   S    
O33   P14   S    
