data_mof_unit_44067.cif
_audit_creation_date              2012-12-10T20:28:47-0500
_audit_creation_method            fapswitch 2.2
_symmetry_space_group_name_H-M    P1
_symmetry_Int_Tables_number       1
_space_group_crystal_system       triclinic
_cell_length_a                    10.715688
_cell_length_b                    10.67068
_cell_length_c                    9.857475
_cell_angle_alpha                 89.71952
_cell_angle_beta                  90.437521
_cell_angle_gamma                 90.141317
_cell_volume                      1127.09025095

loop_
_atom_site_label
_atom_site_type_symbol
_atom_type_description
_atom_site_fract_x
_atom_site_fract_y
_atom_site_fract_z
_atom_type_partial_charge
C1    C     C_R   0.503211 0.260283 0.500222 0.968944
C2    C     C_R   0.586270 0.934081 0.409635 -0.177023
C3    C     C_R   0.509242 0.871055 0.501433 -0.118447
C4    C     C_R   0.259773 0.508594 0.500363 0.939943
C5    C     C_R   0.448308 0.935546 0.603078 0.017778
C6    C     C_3   0.316531 0.927455 0.651790 0.595039
C7    C     C_3   0.316183 0.070795 0.649746 0.156432
C8    C     C_R   0.407664 0.439985 0.070818 0.260939
C9    C     C_R   0.581459 0.572261 0.073051 -0.143838
C10   C     C_R   0.580801 0.573654 0.929179 0.420909
C11   C     C_R   0.407558 0.440179 0.928481 0.179813
C12   C     C_R   0.061106 0.519614 0.628002 0.030115
C13   C     C_3   0.374651 0.304848 0.923291 -0.501911
C14   C     C_3   0.375408 0.304335 0.077427 -0.428564
C15   C     C_R   0.501425 0.739577 0.499815 0.965687
C16   C     C_R   0.739416 0.486571 0.501350 0.899988
C17   C     C_R   0.113392 0.567218 0.749955 -0.138588
C18   C     C_R   0.055264 0.546284 0.874125 0.433509
C19   C     C_R   0.945471 0.476728 0.878594 -0.162740
C20   C     C_R   0.887173 0.440970 0.757861 -0.136206
C21   C     C_R   0.938766 0.474890 0.630783 0.108567
C22   C     C_R   0.125833 0.513145 0.503168 -0.056500
C23   C     C_R   0.062410 0.488286 0.381941 -0.104392
C24   C     C_R   0.935712 0.472116 0.382636 -0.136897
C25   C     C_R   0.872582 0.469942 0.505926 -0.098051
C26   C     C_R   0.448758 0.063122 0.602445 -0.122138
C27   C     C_R   0.512563 0.128386 0.502007 -0.121887
C28   C     C_R   0.589458 0.064082 0.410154 0.374660
Cl1   Cl    Cl    0.309483 0.863047 0.819047 -0.523660
Cl2   Cl    Cl    0.213755 0.143636 0.528125 -0.527717
Cl3   Cl    Cl    0.685133 0.674538 0.846461 -0.526570
Cl4   Cl    Cl    0.121838 0.605128 0.023904 -0.575594
Cl5   Cl    Cl    0.688639 0.141214 0.294502 -0.577754
Cl6   Cl    Cl    0.211627 0.850532 0.536285 -0.509239
H1    H     H_    0.110390 0.481942 0.286031 0.208111
H2    H     H_    0.802503 0.386174 0.765521 0.178847
H3    H     H_    0.887233 0.462758 0.286295 0.187256
H4    H     H_    0.641388 0.882785 0.336841 0.195985
H5    H     H_    0.308974 0.111900 0.752072 0.134423
H6    H     H_    0.648334 0.628717 0.128567 0.185568
H7    H     H_    0.279915 0.290684 0.879261 0.225128
H8    H     H_    0.450075 0.246928 0.879027 0.228015
H9    H     H_    0.281584 0.288226 0.121713 0.231856
H10   H     H_    0.451530 0.246444 0.122198 0.251930
H11   H     H_    0.197433 0.623125 0.750380 0.233424
H12   H     H_    0.902759 0.454292 0.974949 0.171524
N1    N     N_R   0.499160 0.499140 0.142800 -0.135627
N2    N     N_R   0.499160 0.499180 0.857150 -0.154592
O1    O     O_R   0.500020 0.316790 0.614690 -0.640054
O2    O     O_R   0.500000 0.316760 0.385350 -0.588017
O3    O     O_R   0.316770 0.500020 0.614690 -0.634911
O4    O     O_R   0.316760 0.499980 0.385350 -0.601672
O5    O     O_R   0.500000 0.683240 0.614650 -0.552851
O6    O     O_R   0.499980 0.683210 0.385310 -0.612337
O7    O     O_R   0.683240 0.500020 0.614650 -0.601487
O8    O     O_R   0.683230 0.499980 0.385310 -0.623728
Zn1   Zn    Zn3+2 0.500010 0.500020 0.653130 1.022738
Zn2   Zn    Zn3+2 0.499990 0.499980 0.346870 1.025867

loop_
_geom_bond_atom_site_label_1
_geom_bond_atom_site_label_2
_ccdc_geom_bond_type
C12   C17   A    
C8    C14   S    
C23   C24   A    
C16   O8    A    
C10   Cl3   S    
C6    C7    S    
O3    Zn1   S    
C1    O2    A    
C4    C22   S    
C9    C10   A    
C2    H4    S    
C19   C20   A    
C2    C28   A    
C13   H7    S    
C24   H3    S    
C26   C27   A    
C19   H12   S    
O1    Zn1   S    
N2    Zn1   S    
C7    Cl2   S    
C13   C14   S    
C24   C25   A    
N1    Zn2   S    
C11   C13   S    
C11   N2    A    
C7    C26   S    
O4    Zn2   S    
C4    O4    A    
C8    C11   A    
C15   O5    A    
C7    H5    S    
C14   H10   S    
C13   H8    S    
O8    Zn2   S    
C28   Cl5   S    
C9    N1    A    
C23   H1    S    
O7    Zn1   S    
C10   N2    A    
C5    C6    S    
C16   O7    A    
C18   Cl4   S    
C4    O3    A    
C5    C26   A    
O2    Zn2   S    
C8    N1    A    
C12   C22   A    
C16   C25   S    
C6    Cl1   S    
C3    C15   S    
C20   C21   A    
O5    Zn1   S    
C17   C18   A    
C15   O6    A    
O6    Zn2   S    
C27   C28   A    
C1    C27   S    
C21   C25   A    
C22   C23   A    
C18   C19   A    
C2    C3    A    
C1    O1    A    
C12   C21   A    
C9    H6    S    
C6    Cl6   S    
C17   H11   S    
C14   H9    S    
C3    C5    A    
C20   H2    S    
