data_mof_unit_40733.cif
_audit_creation_date              2012-12-10T18:57:10-0500
_audit_creation_method            fapswitch 2.2
_symmetry_space_group_name_H-M    P1
_symmetry_Int_Tables_number       1
_space_group_crystal_system       triclinic
_cell_length_a                    10.715192
_cell_length_b                    9.895262
_cell_length_c                    10.743165
_cell_angle_alpha                 89.988746
_cell_angle_beta                  91.862977
_cell_angle_gamma                 89.993204
_cell_volume                      1138.49171359

loop_
_atom_site_label
_atom_site_type_symbol
_atom_type_description
_atom_site_fract_x
_atom_site_fract_y
_atom_site_fract_z
_atom_type_partial_charge
C1    C     C_R   0.260068 0.499898 0.500361 0.863602
C2    C     C_R   0.499657 0.617916 0.937656 0.072616
C3    C     C_R   0.500062 0.498604 0.129313 -0.120309
C4    C     C_R   0.500757 0.498558 0.870689 -0.120335
C5    C     C_R   0.500785 0.374965 0.064596 -0.223844
C6    C     C_R   0.501351 0.374944 0.935514 -0.224246
C7    C     C_3   0.498747 0.769055 0.927710 -0.146313
C8    C     C_3   0.499383 0.769119 0.071896 -0.146180
C9    C     C_R   0.064013 0.376300 0.502942 -0.198816
C10   C     C_R   0.936189 0.376292 0.502682 -0.199259
C11   C     C_R   0.872487 0.499582 0.499609 -0.006332
C12   C     C_R   0.739936 0.499884 0.499803 0.863352
C13   C     C_R   0.127525 0.499616 0.500941 -0.006001
C14   C     C_R   0.936066 0.622636 0.496939 -0.205012
C15   C     C_R   0.063759 0.622680 0.498847 -0.207427
C16   C     C_3   0.380806 0.831852 0.863827 -0.374808
C17   C     C_3   0.258297 0.754132 0.882884 -0.305270
C18   C     C_3   0.147739 0.826091 0.818963 -0.897348
C19   C     C_3   0.616524 0.833692 0.135643 -0.374111
C20   C     C_3   0.739990 0.757731 0.116673 -0.305668
C21   C     C_3   0.849715 0.831663 0.179991 -0.897635
C22   C     C_3   0.795882 0.915965 0.669380 -0.882106
C23   C     C_R   0.579708 0.073401 0.576651 -0.101660
C24   C     C_3   0.205313 0.917259 0.327035 -0.885904
C25   C     C_R   0.420332 0.073473 0.423306 -0.101810
C26   C     C_R   0.582986 0.929838 0.576003 0.228836
C27   C     C_R   0.417090 0.929881 0.423872 0.228949
C28   C     C_R   0.499735 0.499948 0.260584 0.883808
C29   C     C_R   0.500443 0.499923 0.739412 0.883586
C30   C     C_R   0.500405 0.617955 0.062237 0.072303
H1    H     H_    0.500948 0.278733 0.112735 0.170192
H2    H     H_    0.359254 0.130806 0.361199 0.153827
H3    H     H_    0.135867 0.928529 0.859155 0.261610
H4    H     H_    0.162224 0.835042 0.717356 0.263993
H5    H     H_    0.061160 0.767140 0.833010 0.249478
H6    H     H_    0.264868 0.651101 0.842548 0.226355
H7    H     H_    0.240117 0.744589 0.983668 0.212760
H8    H     H_    0.371037 0.937021 0.898591 0.193885
H9    H     H_    0.396449 0.838736 0.762328 0.228641
H10   H     H_    0.860316 0.933942 0.139045 0.261962
H11   H     H_    0.835186 0.841221 0.281535 0.262935
H12   H     H_    0.502027 0.278706 0.887452 0.170128
H13   H     H_    0.936986 0.773792 0.166303 0.249402
H14   H     H_    0.734828 0.654804 0.157526 0.226527
H15   H     H_    0.758092 0.747969 0.015893 0.213107
H16   H     H_    0.624932 0.938966 0.100717 0.193869
H17   H     H_    0.600850 0.840407 0.237135 0.228634
H18   H     H_    0.664779 0.760641 0.665416 0.288220
H19   H     H_    0.858259 0.840377 0.715894 0.245272
H20   H     H_    0.798503 0.008537 0.727612 0.248392
H21   H     H_    0.831947 0.938454 0.575789 0.245881
H22   H     H_    0.335025 0.760546 0.334847 0.288343
H23   H     H_    0.586152 0.808695 0.888650 0.171477
H24   H     H_    0.143115 0.841787 0.280161 0.244519
H25   H     H_    0.204655 0.009044 0.267729 0.249438
H26   H     H_    0.167644 0.941315 0.419621 0.246654
H27   H     H_    0.411469 0.807532 0.110837 0.172198
H28   H     H_    0.112529 0.280188 0.504835 0.158574
H29   H     H_    0.887823 0.280185 0.504803 0.158358
H30   H     H_    0.887653 0.718503 0.493326 0.169389
H31   H     H_    0.112017 0.718619 0.498488 0.170062
H32   H     H_    0.640894 0.130595 0.638752 0.152971
N1    N     N_R   0.500000 0.857200 0.500000 -0.163371
N2    N     N_R   0.500000 0.142810 0.500000 -0.124333
N3    N     N_2   0.669773 0.863192 0.658847 -0.316854
N4    N     N_2   0.330778 0.863190 0.340562 -0.316937
O1    O     O_R   0.316770 0.614620 0.499990 -0.639402
O2    O     O_R   0.683230 0.614620 0.500010 -0.638762
O3    O     O_R   0.316800 0.385290 0.500000 -0.624811
O4    O     O_R   0.683200 0.385290 0.500000 -0.624762
O5    O     O_R   0.500000 0.614690 0.316780 -0.646287
O6    O     O_R   0.500000 0.614690 0.683220 -0.646495
O7    O     O_R   0.500020 0.385360 0.316780 -0.621717
O8    O     O_R   0.499980 0.385360 0.683220 -0.621930
Zn1   Zn    Zn3+2 0.500000 0.653120 0.500000 0.910176
Zn2   Zn    Zn3+2 0.500000 0.346880 0.500000 0.931776

loop_
_geom_bond_atom_site_label_1
_geom_bond_atom_site_label_2
_ccdc_geom_bond_type
C3    C30   A    
C2    C4    A    
C26   N1    A    
C22   N3    S    
C17   H6    S    
C8    H27   S    
C24   H26   S    
C14   H30   S    
C9    C10   A    
C19   C20   S    
C9    C13   A    
C4    C29   S    
C24   N4    S    
C15   H31   S    
C2    C30   A    
C29   O6    A    
C8    C30   S    
C25   H2    S    
O2    Zn1   S    
C17   C18   S    
N2    Zn2   S    
C19   H16   S    
H22   N4    S    
C7    C8    S    
C27   N4    S    
C17   H7    S    
C20   C21   S    
C24   H25   S    
O5    Zn1   S    
C12   O2    A    
O6    Zn1   S    
C16   C17   S    
C21   H10   S    
C27   N1    A    
C18   H4    S    
C22   H19   S    
C21   H11   S    
C28   O7    A    
C3    C28   S    
C1    O1    A    
C10   H29   S    
C13   C15   A    
O4    Zn2   S    
C5    C6    A    
H18   N3    S    
C18   H3    S    
C19   H17   S    
C28   O5    A    
C25   C27   A    
C10   C11   A    
O8    Zn2   S    
C16   H9    S    
C24   H24   S    
C8    C19   S    
C3    C5    A    
C22   H20   S    
C1    O3    A    
O1    Zn1   S    
O7    Zn2   S    
N1    Zn1   S    
O3    Zn2   S    
C4    C6    A    
C9    H28   S    
C18   H5    S    
C23   C26   A    
C11   C14   A    
C7    H23   S    
C14   C15   A    
C23   N2    A    
C12   O4    A    
C29   O8    A    
C2    C7    S    
C20   H14   S    
C21   H13   S    
C26   N3    S    
C6    H12   S    
C23   H32   S    
C7    C16   S    
C20   H15   S    
C11   C12   S    
C16   H8    S    
C22   H21   S    
C5    H1    S    
C25   N2    A    
C1    C13   S    
