data_mof_unit_24913.cif
_audit_creation_date              2012-10-26T19:21:51-0400
_audit_creation_method            fapswitch 2.2
_symmetry_space_group_name_H-M    P1
_symmetry_Int_Tables_number       1
_space_group_crystal_system       triclinic
_cell_length_a                    23.487032
_cell_length_b                    11.03064
_cell_length_c                    9.983897
_cell_angle_alpha                 111.615414
_cell_angle_beta                  98.067263
_cell_angle_gamma                 92.805204
_cell_volume                      2366.63232401

loop_
_atom_site_label
_atom_site_type_symbol
_atom_type_description
_atom_site_fract_x
_atom_site_fract_y
_atom_site_fract_z
_atom_type_partial_charge
C1    C     C_R   0.495534 0.254694 0.440109 0.581149
C2    C     C_R   0.709806 0.596805 0.603946 0.222613
C3    C     C_R   0.233876 0.376841 0.414956 -0.053162
C4    C     C_R   0.769269 0.596824 0.603092 -0.037588
C5    C     C_R   0.208833 0.489640 0.488514 0.161089
C6    C     C_R   0.790206 0.500859 0.491264 0.165716
C7    C     C_2   0.484164 0.115957 0.407449 -0.076483
C8    C     C_2   0.508841 0.885739 0.590737 -0.073433
C9    C     C_2   0.512389 0.058890 0.491271 0.022499
C10   C     C_2   0.486643 0.931884 0.488954 0.017434
C11   C     C_2   0.511200 0.496106 0.076774 0.169989
C12   C     C_R   0.503184 0.745609 0.559702 0.567787
C13   C     C_2   0.499771 0.477082 0.916561 0.160408
C14   C     C_R   0.391553 0.501937 0.501550 0.622038
C15   C     C_R   0.608570 0.498049 0.498398 0.584482
C16   C     C_R   0.879554 0.590055 0.451974 0.428826
C17   C     C_R   0.118652 0.399181 0.525597 0.427229
C18   C     C_R   0.879242 0.409451 0.529355 0.421052
C19   C     C_R   0.118084 0.571139 0.434573 0.415736
C20   C     C_R   0.938374 0.403395 0.525291 0.013578
C21   C     C_R   0.059014 0.577888 0.439478 0.014801
C22   C     C_R   0.968959 0.494979 0.486457 -0.045681
C23   C     C_R   0.244031 0.606728 0.571571 -0.067645
C24   C     C_R   0.028599 0.488022 0.480832 -0.045554
C25   C     C_R   0.940015 0.593402 0.453765 0.015109
C26   C     C_R   0.057823 0.391606 0.516658 0.015984
C27   C     C_R   0.966783 0.305376 0.555690 -0.107022
C28   C     C_R   0.030591 0.675348 0.407910 -0.106953
C29   C     C_R   0.025506 0.295880 0.548245 0.048805
C30   C     C_R   0.972311 0.687433 0.419439 0.048921
C31   C     C_2   0.548016 0.685277 0.954814 0.732791
C32   C     C_2   0.414871 0.427533 0.078680 0.728531
C33   C     C_2   0.049301 0.178045 0.561848 0.641165
C34   C     C_R   0.751915 0.403139 0.379899 -0.056885
C35   C     C_2   0.949030 0.805378 0.405132 0.643648
C36   C     C_2   0.338033 0.744934 0.667513 0.609726
C37   C     C_2   0.654686 0.286312 0.262252 0.638939
C38   C     C_3   0.293190 0.185467 0.220515 0.001693
C39   C     C_3   0.332313 0.082512 0.150963 -0.308342
C40   C     C_3   0.688463 0.807473 0.678835 -0.001645
C41   C     C_3   0.670920 0.919459 0.803724 -0.313323
C42   C     C_2   0.435715 0.855233 0.375379 0.601108
C43   C     C_2   0.571111 0.119003 0.576829 0.585327
C44   C     C_2   0.466080 0.350367 0.818957 0.614655
C45   C     C_R   0.304169 0.614551 0.580069 -0.026045
C46   C     C_2   0.570694 0.550598 0.153405 0.615009
C47   C     C_R   0.692248 0.397721 0.380383 0.004251
C48   C     C_R   0.329261 0.499772 0.503163 0.024005
C49   C     C_R   0.670863 0.495565 0.494718 -0.002642
C50   C     C_R   0.294217 0.380364 0.420764 0.230551
Cu1   Cu    Cu3+1 0.509980 0.521810 0.644910 1.164290
Cu2   Cu    Cu3+1 0.490020 0.478190 0.355090 1.134409
H1    H     H_    0.942627 0.232101 0.580299 0.185356
H2    H     H_    0.346771 0.498159 0.995763 0.343996
H3    H     H_    0.093116 0.022514 0.476442 0.355563
H4    H     H_    0.909466 0.967175 0.494907 0.355659
H5    H     H_    0.337251 0.941372 0.759785 0.356753
H6    H     H_    0.642090 0.156619 0.053321 0.348050
H7    H     H_    0.283621 0.242779 0.150042 0.174263
H8    H     H_    0.252692 0.131808 0.225000 0.146731
H9    H     H_    0.339232 0.018272 0.213895 0.172575
H10   H     H_    0.311879 0.021102 0.036862 0.141040
H11   H     H_    0.374848 0.130215 0.149862 0.210262
H12   H     H_    0.054611 0.747234 0.380876 0.185034
H13   H     H_    0.656204 0.788252 0.578341 0.126916
H14   H     H_    0.731745 0.839723 0.662244 0.153411
H15   H     H_    0.701149 0.938137 0.907003 0.200863
H16   H     H_    0.672283 0.009791 0.779341 0.127531
H17   H     H_    0.626331 0.894932 0.817571 0.191259
H18   H     H_    0.357650 0.750854 0.330933 0.350156
H19   H     H_    0.622640 0.204177 0.773653 0.356667
H20   H     H_    0.393887 0.254889 0.675624 0.344764
H21   H     H_    0.623442 0.700811 0.309319 0.325876
H22   H     H_    0.223836 0.692124 0.630780 0.193981
H23   H     H_    0.769306 0.329112 0.294776 0.180728
H24   H     H_    0.205799 0.286619 0.356105 0.151851
H25   H     H_    0.799247 0.672301 0.689201 0.161384
H26   H     H_    0.538902 0.946287 0.687712 0.139405
H27   H     H_    0.445196 0.068722 0.329738 0.114847
H28   H     H_    0.538640 0.853986 0.117765 0.355778
N1    N     N_R   0.851244 0.500895 0.492031 -0.397286
N2    N     N_R   0.147034 0.485328 0.481019 -0.394302
N3    N     N_2   0.475010 0.445410 0.137370 -0.254097
N4    N     N_2   0.524990 0.554590 0.862630 -0.256932
O1    O     O_R   0.505330 0.332340 0.577400 -0.492778
O2    O     O_2   0.149723 0.326119 0.584722 -0.440489
O3    O     O_2   0.849639 0.323941 0.569308 -0.466319
O4    O     O_2   0.146631 0.650837 0.385012 -0.475733
O5    O     O_2   0.593087 0.731542 0.935928 -0.468111
O6    O     O_R   0.517971 0.762500 0.061138 -0.623861
O7    O     O_2   0.384918 0.331231 0.072063 -0.515899
O8    O     O_R   0.389806 0.521933 0.033850 -0.651876
O9    O     O_2   0.039465 0.144130 0.660751 -0.480521
O10   O     O_R   0.080253 0.101802 0.457018 -0.628726
O11   O     O_2   0.955736 0.833307 0.300232 -0.478381
O12   O     O_R   0.494670 0.667660 0.422600 -0.462163
O13   O     O_R   0.922398 0.888565 0.515714 -0.620792
O14   O     O_2   0.389739 0.754043 0.712923 -0.459957
O15   O     O_R   0.310024 0.858901 0.700049 -0.677975
O16   O     O_2   0.610527 0.239784 0.285183 -0.461477
O17   O     O_R   0.670998 0.231613 0.124699 -0.674097
O18   O     O_3   0.321274 0.267250 0.362601 -0.554945
O19   O     O_3   0.689892 0.694721 0.714128 -0.507222
O20   O     O_2   0.435584 0.834535 0.246369 -0.456655
O21   O     O_R   0.388918 0.803181 0.417102 -0.669601
O22   O     O_2   0.609749 0.134966 0.512749 -0.473840
O23   O     O_R   0.488470 0.295500 0.332650 -0.470208
O24   O     O_R   0.581721 0.160966 0.729105 -0.666191
O25   O     O_2   0.482157 0.248200 0.824016 -0.480534
O26   O     O_R   0.413151 0.347410 0.733904 -0.646717
O27   O     O_2   0.611394 0.492322 0.108611 -0.486368
O28   O     O_R   0.580727 0.672339 0.269880 -0.661046
O29   O     O_R   0.511530 0.704500 0.667350 -0.478641
O30   O     O_R   0.426310 0.518390 0.622390 -0.434462
O31   O     O_R   0.573690 0.481610 0.377610 -0.491819
O32   O     O_R   0.409450 0.481550 0.377650 -0.486854
O33   O     O_R   0.590550 0.518450 0.622350 -0.441804
O34   O     O_2   0.848584 0.671233 0.405821 -0.434962

loop_
_geom_bond_atom_site_label_1
_geom_bond_atom_site_label_2
_ccdc_geom_bond_type
C23   C45   A    
C46   O28   S    
C10   C42   S    
C33   O10   S    
Cu1   O1    S    
C41   H15   S    
C13   N4    D    
Cu1   O29   S    
C30   C35   S    
C17   C26   A    
C41   H17   S    
C19   C21   A    
C24   C26   A    
C38   C39   S    
C45   C48   A    
C32   O7    D    
C27   C29   A    
H5    O15   S    
C29   C33   S    
C25   C30   A    
C18   N1    A    
C17   N2    A    
C32   N3    S    
Cu2   O23   S    
C31   O5    D    
C22   C25   A    
C37   C47   S    
C19   N2    A    
C9    C10   S    
C18   C20   A    
C34   H23   S    
C44   O25   D    
C48   C50   A    
C6    N1    S    
C40   H14   S    
C46   O27   D    
C8    H26   S    
H4    O13   S    
H3    O10   S    
C3    C50   A    
C41   H16   S    
Cu2   O32   S    
C1    O1    A    
C39   H9    S    
H20   O26   S    
C9    C43   S    
Cu1   O30   S    
Cu1   Cu2   S    
C4    C6    A    
C19   O4    S    
C14   C48   S    
C11   N3    D    
C14   O30   A    
C31   N4    S    
C6    C34   A    
C33   O9    D    
C43   O22   D    
Cu2   N3    S    
C2    C4    A    
H2    O8    S    
C2    C49   A    
C16   O34   S    
C5    C23   A    
C8    C12   S    
C31   O6    S    
C36   C45   S    
H6    O17   S    
C13   C44   S    
C3    H24   S    
C1    O23   A    
C38   H8    S    
C28   H12   S    
C40   C41   S    
C21   C28   A    
C20   C22   A    
C50   O18   S    
C40   H13   S    
C15   O31   A    
C23   H22   S    
H21   O28   S    
C7    H27   S    
C12   O29   A    
Cu2   O31   S    
C16   C25   A    
C7    C9    D    
C39   H10   S    
C1    C7    S    
C3    C5    A    
H18   O21   S    
C42   O20   D    
C27   H1    S    
C20   C27   A    
C35   O11   D    
C47   C49   A    
C39   H11   S    
C18   O3    S    
C28   C30   A    
C4    H25   S    
C38   O18   S    
C40   O19   S    
C37   O17   S    
C5    N2    S    
C11   C13   S    
C32   O8    S    
C2    O19   S    
C14   O32   A    
C16   N1    A    
Cu1   O33   S    
Cu2   O12   S    
C36   O15   S    
C22   C24   A    
C43   O24   S    
C15   C49   S    
H28   O6    S    
C17   O2    S    
C42   O21   S    
C38   H7    S    
C15   O33   A    
C26   C29   A    
C8    C10   D    
C21   C24   A    
C12   O12   A    
C11   C46   S    
C36   O14   D    
C34   C47   A    
C35   O13   S    
Cu1   N4    S    
C37   O16   D    
H19   O24   S    
C44   O26   S    
