data_mof_unit_47882.cif
_audit_creation_date              2012-10-26T19:07:26-0400
_audit_creation_method            fapswitch 2.2
_symmetry_space_group_name_H-M    P1
_symmetry_Int_Tables_number       1
_space_group_crystal_system       triclinic
_cell_length_a                    15.00982
_cell_length_b                    13.742518
_cell_length_c                    10.622468
_cell_angle_alpha                 90.360764
_cell_angle_beta                  89.08214
_cell_angle_gamma                 90.401228
_cell_volume                      2190.74861043

loop_
_atom_site_label
_atom_site_type_symbol
_atom_type_description
_atom_site_fract_x
_atom_site_fract_y
_atom_site_fract_z
_atom_type_partial_charge
C1    C     C_R   0.328856 0.499775 0.500701 0.584162
C2    C     C_R   0.958268 0.519416 0.269012 -0.106095
C3    C     C_R   0.458609 0.793234 0.595522 0.066302
C4    C     C_R   0.539811 0.206853 0.403035 0.065198
C5    C     C_R   0.541140 0.792852 0.404182 0.071867
C6    C     C_R   0.460148 0.206970 0.596731 0.065012
C7    C     C_R   0.540160 0.896064 0.398659 -0.041004
C8    C     C_R   0.458555 0.103779 0.599641 -0.039687
C9    C     C_R   0.458914 0.896470 0.600046 -0.041745
C10   C     C_R   0.541488 0.103526 0.399635 -0.038267
C11   C     C_R   0.499744 0.948228 0.499440 0.009299
C12   C     C_R   0.670980 0.500281 0.497831 0.577309
C13   C     C_R   0.499922 0.051700 0.499526 0.009445
C14   C     C_R   0.579820 0.947785 0.296628 0.035394
C15   C     C_R   0.418154 0.051959 0.700773 0.044611
C16   C     C_R   0.418214 0.948688 0.700956 0.039657
C17   C     C_R   0.581461 0.051353 0.297890 0.040701
C18   C     C_R   0.501629 0.499694 0.259211 0.559802
C19   C     C_R   0.500885 0.500243 0.740842 0.564796
C20   C     C_3   0.427234 0.539586 0.044459 -0.111789
C21   C     C_3   0.578816 0.459938 0.955404 -0.137819
C22   C     C_3   0.497271 0.592042 0.960514 -0.106034
C23   C     C_R   0.952837 0.502976 0.497306 0.024062
C24   C     C_3   0.508987 0.407419 0.039756 -0.115085
C25   C     C_3   0.432898 0.447983 0.959748 -0.105081
C26   C     C_3   0.573359 0.551456 0.040721 -0.123833
C27   C     C_3   0.502589 0.500500 0.877727 0.044958
C28   C     C_3   0.503226 0.499061 0.122429 0.037667
C29   C     C_R   0.814545 0.506262 0.380536 0.260193
C30   C     C_R   0.184374 0.489945 0.615242 0.259947
C31   C     C_R   0.767195 0.500811 0.495590 0.019060
C32   C     C_R   0.232356 0.499600 0.501382 0.019415
C33   C     C_R   0.811259 0.495095 0.609757 -0.166842
C34   C     C_R   0.046477 0.502960 0.499176 0.023976
C35   C     C_R   0.188480 0.510428 0.387433 -0.169566
C36   C     C_R   0.903907 0.495698 0.611563 0.009988
C37   C     C_R   0.095607 0.511141 0.385249 0.009185
C38   C     C_3   0.755673 0.418357 0.220252 -0.130512
C39   C     C_3   0.233846 0.379898 0.756236 -0.121657
C40   C     C_2   0.619676 0.893992 0.187860 0.597110
C41   C     C_2   0.377592 0.104965 0.809182 0.585048
C42   C     C_2   0.374463 0.896173 0.807127 0.592202
C43   C     C_2   0.622951 0.104650 0.190398 0.585658
C44   C     C_R   0.908251 0.509807 0.381329 0.034928
C45   C     C_R   0.090855 0.494223 0.614936 0.032349
C46   C     C_R   0.948278 0.489502 0.726007 -0.124808
C47   C     C_R   0.051119 0.520058 0.271072 -0.125297
C48   C     C_R   0.040941 0.488872 0.727817 -0.106945
Cu1   Cu    Cu3+1 0.500000 0.597420 0.500000 0.991469
Cu2   Cu    Cu3+1 0.500000 0.402580 0.500000 0.954451
H1    H     H_    0.376516 0.404111 0.924526 0.123881
H2    H     H_    0.088189 0.526950 0.183142 0.119671
H3    H     H_    0.073221 0.483646 0.817939 0.154064
H4    H     H_    0.925899 0.526091 0.179124 0.155846
H5    H     H_    0.425368 0.751240 0.668115 0.164395
H6    H     H_    0.569772 0.249081 0.328091 0.154238
H7    H     H_    0.575084 0.750497 0.332484 0.170644
H8    H     H_    0.429718 0.248966 0.671790 0.148733
H9    H     H_    0.709347 0.375721 0.281489 0.163887
H10   H     H_    0.819598 0.378689 0.207017 0.125104
H11   H     H_    0.724878 0.423963 0.126555 0.130929
H12   H     H_    0.630757 0.593789 0.077297 0.157394
H13   H     H_    0.296527 0.349425 0.716502 0.172220
H14   H     H_    0.176119 0.335562 0.723064 0.134760
H15   H     H_    0.234498 0.372277 0.859989 0.123067
H16   H     H_    0.602030 0.795848 0.048256 0.347079
H17   H     H_    0.278635 0.190929 0.873525 0.329835
H18   H     H_    0.387864 0.805854 0.954110 0.350786
H19   H     H_    0.716942 0.200073 0.130828 0.330941
H20   H     H_    0.365173 0.572079 0.083783 0.124890
H21   H     H_    0.640644 0.427491 0.915286 0.112413
H22   H     H_    0.493642 0.667334 0.924651 0.175590
H23   H     H_    0.513920 0.331730 0.074839 0.153930
H24   H     H_    0.773025 0.490182 0.697128 0.108357
H25   H     H_    0.226944 0.517561 0.300557 0.109308
H26   H     H_    0.911254 0.484610 0.814220 0.114977
N1    N     N_R   0.500000 0.743810 0.500000 -0.256735
N2    N     N_R   0.500000 0.256190 0.500000 -0.252772
O1    O     O_R   0.370260 0.582280 0.500030 -0.489102
O2    O     O_3   0.229048 0.479847 0.727200 -0.583464
O3    O     O_2   0.697430 0.908574 0.156920 -0.466692
O4    O     O_R   0.567679 0.827660 0.120229 -0.683500
O5    O     O_2   0.410007 0.098125 0.913606 -0.451511
O6    O     O_R   0.301179 0.160382 0.792046 -0.721622
O7    O     O_2   0.294895 0.907149 0.828770 -0.469473
O8    O     O_R   0.424843 0.836263 0.883784 -0.689306
O9    O     O_2   0.594885 0.092309 0.083998 -0.446354
O10   O     O_R   0.694638 0.167918 0.211094 -0.718786
O11   O     O_R   0.629740 0.417720 0.499970 -0.509131
O12   O     O_R   0.629740 0.582280 0.499970 -0.484944
O13   O     O_R   0.370260 0.417720 0.500030 -0.503925
O14   O     O_R   0.499980 0.582260 0.316850 -0.500116
O15   O     O_R   0.500020 0.417740 0.683150 -0.515397
O16   O     O_R   0.500020 0.582260 0.683150 -0.508952
O17   O     O_R   0.499980 0.417740 0.316850 -0.524559
O18   O     O_3   0.769027 0.513118 0.268613 -0.583753

loop_
_geom_bond_atom_site_label_1
_geom_bond_atom_site_label_2
_ccdc_geom_bond_type
C21   C26   S    
C8    C13   A    
C34   C37   A    
H18   O8    S    
C6    H8    S    
C30   C45   A    
Cu1   O12   S    
C46   H26   S    
C7    C11   A    
C39   H14   S    
C35   H25   S    
C21   H21   S    
C43   O10   S    
C12   O12   A    
C35   C37   A    
C9    C16   A    
C24   H23   S    
C6    N2    A    
C20   C25   S    
C10   C17   A    
C15   C16   A    
C41   O5    D    
C33   C36   A    
C3    H5    S    
C7    C14   A    
C2    C44   A    
C31   C33   A    
C36   C46   A    
C42   O8    S    
Cu1   O16   S    
C37   C47   A    
C19   C27   S    
C19   O15   A    
C38   H11   S    
C30   O2    S    
C21   C27   S    
H17   O6    S    
C1    O13   A    
C4    H6    S    
H19   O10   S    
C18   O17   A    
C39   H15   S    
C14   C17   A    
C20   H20   S    
Cu2   N2    S    
C22   H22   S    
C48   H3    S    
C46   C48   A    
C32   C35   A    
C40   O4    S    
C12   O11   A    
C18   C28   S    
C24   C25   S    
C15   C41   S    
C2    H4    S    
C34   C45   A    
C6    C8    A    
C20   C28   S    
C41   O6    S    
C1    C32   S    
C23   C44   A    
Cu1   O1    S    
C25   H1    S    
C4    N2    A    
C3    C9    A    
H16   O4    S    
C33   H24   S    
Cu2   O11   S    
C23   C34   A    
C42   O7    D    
C9    C11   A    
C19   O16   A    
C38   H10   S    
C20   C22   S    
C23   C36   A    
C8    C15   A    
C22   C27   S    
C12   C31   S    
C1    O1    A    
Cu1   O14   S    
C4    C10   A    
C3    N1    A    
C16   C42   S    
C5    C7    A    
C45   C48   A    
C40   O3    D    
C24   C28   S    
C10   C13   A    
C29   O18   S    
Cu2   O15   S    
C47   H2    S    
C2    C47   A    
C25   C27   S    
C39   H13   S    
C26   C28   S    
C5    H7    S    
C18   O14   A    
C39   O2    S    
C26   H12   S    
C43   O9    D    
C29   C44   A    
C30   C32   A    
C11   C13   A    
Cu1   N1    S    
Cu2   O17   S    
C14   C40   S    
C38   H9    S    
Cu2   O13   S    
C29   C31   A    
Cu1   Cu2   S    
C22   C26   S    
C21   C24   S    
C38   O18   S    
C17   C43   S    
C5    N1    A    
