data_mof_unit_43598.cif
_audit_creation_date              2012-12-10T21:04:22-0500
_audit_creation_method            fapswitch 2.2
_symmetry_space_group_name_H-M    P1
_symmetry_Int_Tables_number       1
_space_group_crystal_system       triclinic
_cell_length_a                    15.799158
_cell_length_b                    15.046807
_cell_length_c                    27.735077
_cell_angle_alpha                 89.986963
_cell_angle_beta                  90.670891
_cell_angle_gamma                 90.013767
_cell_volume                      6592.92100526

loop_
_atom_site_label
_atom_site_type_symbol
_atom_type_description
_atom_site_fract_x
_atom_site_fract_y
_atom_site_fract_z
_atom_type_partial_charge
C1    C     C_R   0.338828 0.499883 0.500491 0.864881
C2    C     C_R   0.425090 0.542700 0.874054 -0.193679
C3    C     C_3   0.156873 0.768583 0.534551 -0.357058
C4    C     C_3   0.160535 0.815269 0.583357 -0.989685
C5    C     C_3   0.890340 0.306297 0.535160 0.100750
C6    C     C_3   0.848874 0.214740 0.531407 -0.311939
C7    C     C_3   0.818115 0.182259 0.580282 -0.914189
C8    C     C_3   0.882078 0.670568 0.433361 0.109370
C9    C     C_3   0.947986 0.718477 0.402724 -0.322489
C10   C     C_3   0.912206 0.741241 0.352887 -0.978191
C11   C     C_3   0.112126 0.301316 0.456787 0.106788
C12   C     C_3   0.151813 0.209834 0.464768 -0.322433
C13   C     C_R   0.506933 0.500964 0.353013 -0.396724
C14   C     C_3   0.185393 0.171390 0.417816 -0.921234
C15   C     C_R   0.495686 0.501942 0.647088 -0.395757
C16   C     C_R   0.427395 0.537837 0.975247 -0.035431
C17   C     C_R   0.583734 0.535273 0.025097 -0.035451
C18   C     C_R   0.581453 0.519670 0.974738 -0.034489
C19   C     C_R   0.429360 0.520258 0.025390 -0.034467
C20   C     C_R   0.503657 0.528777 0.949602 -0.073828
C21   C     C_R   0.507265 0.526874 0.050632 -0.073686
C22   C     C_R   0.353143 0.567020 0.950618 0.438902
C23   C     C_R   0.661119 0.499914 0.499513 0.866980
C24   C     C_R   0.658491 0.562000 0.050075 0.438442
C25   C     C_R   0.353996 0.573010 0.899685 0.406944
C26   C     C_R   0.657595 0.566417 0.101070 0.406413
C27   C     C_R   0.501192 0.500115 0.405726 0.988126
C28   C     C_R   0.499215 0.500220 0.594289 0.984941
C29   C     C_R   0.357382 0.491065 0.050563 0.381590
C30   C     C_R   0.652846 0.490032 0.949178 0.381794
C31   C     C_R   0.955886 0.577158 0.484103 0.344405
C32   C     C_R   0.043322 0.414616 0.493833 0.320607
C33   C     C_R   0.043646 0.577178 0.489254 0.324690
C34   C     C_R   0.509003 0.522507 0.101279 -0.213748
C35   C     C_R   0.955114 0.414743 0.491568 0.334549
C36   C     C_R   0.912286 0.496116 0.487430 -0.227102
C37   C     C_R   0.086536 0.496103 0.493685 -0.225148
C38   C     C_1   0.823475 0.497519 0.490953 0.084088
C39   C     C_1   0.175529 0.497289 0.497368 0.108144
C40   C     C_1   0.250402 0.499042 0.499370 -0.192479
C41   C     C_1   0.749037 0.499184 0.495112 -0.190304
C42   C     C_R   0.442072 0.953181 0.471756 0.380684
C43   C     C_R   0.551884 0.046911 0.534296 0.396891
C44   C     C_R   0.551787 0.952555 0.533950 0.395210
C45   C     C_R   0.501678 0.525979 0.898927 -0.213813
C46   C     C_R   0.444518 0.047444 0.470588 0.374075
C47   C     C_R   0.497903 0.905072 0.502067 -0.325018
C48   C     C_R   0.498552 0.095068 0.502183 -0.314511
C49   C     C_1   0.499245 0.807133 0.500740 0.270254
C50   C     C_1   0.499611 0.192903 0.500860 0.237489
C51   C     C_R   0.438651 0.498941 0.177252 0.622916
C52   C     C_R   0.571039 0.502309 0.822665 0.624525
C53   C     C_R   0.587573 0.525680 0.176574 0.630457
C54   C     C_R   0.422687 0.532180 0.823852 0.628545
C55   C     C_R   0.539564 0.580165 0.279110 0.374613
C56   C     C_R   0.433904 0.504618 0.126758 -0.178911
C57   C     C_R   0.469722 0.584222 0.720900 0.384004
C58   C     C_R   0.542183 0.575359 0.329519 0.316233
C59   C     C_R   0.464014 0.578108 0.670637 0.315895
C60   C     C_R   0.477411 0.428015 0.325733 0.280095
C61   C     C_R   0.525526 0.429249 0.674436 0.281763
C62   C     C_R   0.491295 0.426332 0.275796 0.366981
C63   C     C_R   0.514571 0.429291 0.724652 0.366601
C64   C     C_R   0.516727 0.504457 0.252375 -0.036039
C65   C     C_R   0.491924 0.508600 0.747849 -0.039309
C66   C     C_3   0.349544 0.358085 0.335731 0.142179
C67   C     C_R   0.576272 0.507174 0.873188 -0.179172
C68   C     C_3   0.299851 0.419099 0.369449 -0.379486
C69   C     C_3   0.207273 0.426073 0.353561 -0.977031
C70   C     C_3   0.651943 0.357457 0.662766 0.131247
C71   C     C_3   0.700433 0.417141 0.627752 -0.379563
C72   C     C_3   0.793679 0.424295 0.642222 -0.978334
C73   C     C_3   0.429327 0.103381 0.395101 -0.231385
C74   C     C_3   0.569435 0.882289 0.605904 -0.258737
C75   C     C_3   0.567848 0.130788 0.602775 -0.281155
C76   C     C_3   0.309484 0.897945 0.463842 -0.266704
C77   C     C_3   0.531018 0.284455 0.255843 0.098614
C78   C     C_R   0.357014 0.491503 0.101158 0.398852
C79   C     C_3   0.605754 0.297239 0.221782 -0.370430
C80   C     C_3   0.666443 0.218488 0.224183 -0.953324
C81   C     C_3   0.473732 0.288584 0.746379 0.099377
C82   C     C_3   0.401083 0.303324 0.781638 -0.370133
C83   C     C_3   0.339284 0.225417 0.780928 -0.957963
C84   C     C_3   0.221286 0.535874 0.119310 0.143305
C85   C     C_3   0.234300 0.610859 0.156092 -0.352521
C86   C     C_3   0.166698 0.682585 0.150385 -0.982909
C87   C     C_3   0.789322 0.534315 0.880495 0.143364
C88   C     C_3   0.778000 0.609737 0.843795 -0.352229
C89   C     C_R   0.653009 0.491969 0.898575 0.397945
C90   C     C_3   0.846976 0.679978 0.849759 -0.982955
C91   C     C_3   0.344491 0.637171 0.638066 -0.234881
C92   C     C_3   0.662788 0.631566 0.362295 -0.219907
C93   C     C_3   0.506734 0.728657 0.738594 0.119454
C94   C     C_3   0.575532 0.721766 0.777807 -0.414148
C95   C     C_3   0.634443 0.802083 0.776995 -0.955704
C96   C     C_3   0.507775 0.725098 0.259419 0.132082
C97   C     C_3   0.441147 0.719033 0.218961 -0.425000
C98   C     C_3   0.385053 0.801524 0.217510 -0.942946
C99   C     C_3   0.303931 0.702289 0.868611 -0.236190
C100  C     C_R   0.585777 0.537009 0.126393 -0.194219
C101  C     C_3   0.710266 0.693751 0.133144 -0.234387
C102  C     C_3   0.206968 0.579264 0.961755 -0.134032
C103  C     C_3   0.804902 0.571465 0.039146 -0.133665
C104  C     C_3   0.302098 0.363252 0.020090 0.105722
C105  C     C_3   0.225912 0.322009 0.993995 -0.351801
C106  C     C_3   0.144468 0.333333 0.022514 -0.791246
C107  C     C_3   0.706053 0.360190 0.978264 0.106044
C108  C     C_3   0.781904 0.316540 0.003480 -0.351772
C109  C     C_3   0.863064 0.327478 0.974650 -0.790466
C110  C     C_3   0.092047 0.693324 0.534134 0.141662
H1    H     H_    0.325357 0.289272 0.339897 0.140106
H2    H     H_    0.695024 0.389323 0.590751 0.233756
H3    H     H_    0.879859 0.398875 0.971254 0.266084
H4    H     H_    0.112106 0.643214 0.561691 0.116180
H5    H     H_    0.029006 0.720552 0.543885 0.181284
H6    H     H_    0.220340 0.740819 0.526445 0.225073
H7    H     H_    0.139946 0.817926 0.506198 0.226949
H8    H     H_    0.098579 0.846626 0.591241 0.276201
H9    H     H_    0.209856 0.867841 0.582749 0.263439
H10   H     H_    0.176604 0.767140 0.612412 0.261507
H11   H     H_    0.844488 0.353119 0.551474 0.148422
H12   H     H_    0.947636 0.301065 0.558850 0.163160
H13   H     H_    0.673017 0.485071 0.627565 0.216131
H14   H     H_    0.793994 0.218027 0.505999 0.244203
H15   H     H_    0.895400 0.166410 0.517003 0.225512
H16   H     H_    0.871198 0.180914 0.606887 0.250208
H17   H     H_    0.792125 0.114010 0.576550 0.305476
H18   H     H_    0.767244 0.226395 0.593633 0.267534
H19   H     H_    0.824921 0.713255 0.435713 0.164448
H20   H     H_    0.861416 0.607996 0.415115 0.114353
H21   H     H_    0.968156 0.780690 0.421167 0.243005
H22   H     H_    0.004377 0.675239 0.398382 0.236993
H23   H     H_    0.892655 0.679731 0.333600 0.268700
H24   H     H_    0.800161 0.455092 0.678476 0.283320
H25   H     H_    0.961397 0.775436 0.331447 0.274984
H26   H     H_    0.856689 0.786057 0.356107 0.266988
H27   H     H_    0.160531 0.345641 0.440857 0.150525
H28   H     H_    0.057456 0.294317 0.431244 0.158785
H29   H     H_    0.204941 0.215374 0.491247 0.241881
H30   H     H_    0.103561 0.163956 0.479688 0.222911
H31   H     H_    0.133673 0.166089 0.390495 0.251732
H32   H     H_    0.211590 0.104020 0.424575 0.290784
H33   H     H_    0.236525 0.214292 0.403557 0.272255
H34   H     H_    0.827295 0.466736 0.615857 0.264362
H35   H     H_    0.823633 0.357554 0.642893 0.262845
H36   H     H_    0.443067 0.037949 0.378202 0.179740
H37   H     H_    0.488316 0.143501 0.398413 0.157585
H38   H     H_    0.385438 0.139621 0.370577 0.178982
H39   H     H_    0.513931 0.838341 0.599065 0.159975
H40   H     H_    0.549982 0.941429 0.627028 0.149201
H41   H     H_    0.336717 0.376629 0.297428 0.195189
H42   H     H_    0.615304 0.844291 0.628397 0.187529
H43   H     H_    0.510232 0.094246 0.614537 0.120175
H44   H     H_    0.550983 0.200379 0.593635 0.205457
H45   H     H_    0.612082 0.133129 0.634100 0.184879
H46   H     H_    0.278798 0.963407 0.470162 0.179458
H47   H     H_    0.316505 0.861069 0.498458 0.139564
H48   H     H_    0.266819 0.858641 0.440013 0.189820
H49   H     H_    0.499891 0.220062 0.247283 0.164796
H50   H     H_    0.553987 0.279359 0.293931 0.149857
H51   H     H_    0.581777 0.304929 0.184164 0.233390
H52   H     H_    0.303592 0.392441 0.406764 0.234468
H53   H     H_    0.640949 0.358395 0.232012 0.243455
H54   H     H_    0.691919 0.210356 0.261425 0.266935
H55   H     H_    0.720104 0.230191 0.199472 0.271878
H56   H     H_    0.633467 0.156492 0.213000 0.260637
H57   H     H_    0.504373 0.223907 0.754853 0.163918
H58   H     H_    0.448658 0.282980 0.708735 0.148097
H59   H     H_    0.427175 0.311630 0.818769 0.232866
H60   H     H_    0.366175 0.364718 0.771535 0.242874
H61   H     H_    0.311710 0.216693 0.744204 0.266033
H62   H     H_    0.287166 0.238547 0.806477 0.271798
H63   H     H_    0.327602 0.486900 0.369376 0.216881
H64   H     H_    0.372018 0.163241 0.792032 0.260264
H65   H     H_    0.158550 0.504896 0.125605 0.154964
H66   H     H_    0.218406 0.563945 0.082182 0.159096
H67   H     H_    0.231350 0.583311 0.193203 0.264130
H68   H     H_    0.297488 0.641612 0.151001 0.217614
H69   H     H_    0.169726 0.712849 0.113908 0.269305
H70   H     H_    0.177501 0.735451 0.177698 0.274190
H71   H     H_    0.102734 0.653839 0.155777 0.269395
H72   H     H_    0.851558 0.502169 0.874351 0.155039
H73   H     H_    0.792334 0.562114 0.917687 0.158137
H74   H     H_    0.202490 0.456689 0.317181 0.283783
H75   H     H_    0.780667 0.582299 0.806657 0.263931
H76   H     H_    0.715364 0.641785 0.848761 0.217432
H77   H     H_    0.844185 0.710228 0.886240 0.269251
H78   H     H_    0.837549 0.733116 0.822439 0.273465
H79   H     H_    0.910408 0.649866 0.844568 0.269560
H80   H     H_    0.311030 0.637840 0.673157 0.187493
H81   H     H_    0.330346 0.574591 0.618108 0.135745
H82   H     H_    0.319513 0.693002 0.616024 0.176399
H83   H     H_    0.696328 0.629329 0.327239 0.184847
H84   H     H_    0.675220 0.569705 0.383252 0.128389
H85   H     H_    0.172340 0.468526 0.379344 0.267493
H86   H     H_    0.689409 0.687893 0.383329 0.171394
H87   H     H_    0.473930 0.793531 0.742389 0.162436
H88   H     H_    0.536199 0.729090 0.702258 0.150431
H89   H     H_    0.545643 0.717050 0.813815 0.228618
H90   H     H_    0.613707 0.660970 0.771763 0.233722
H91   H     H_    0.666230 0.806894 0.741571 0.266182
H92   H     H_    0.683553 0.795014 0.805686 0.273641
H93   H     H_    0.598283 0.864097 0.783639 0.262808
H94   H     H_    0.542671 0.788783 0.255657 0.166610
H95   H     H_    0.476218 0.727601 0.295142 0.166641
H96   H     H_    0.177477 0.359223 0.352509 0.259395
H97   H     H_    0.472995 0.711508 0.183658 0.228877
H98   H     H_    0.400494 0.660045 0.225060 0.232641
H99   H     H_    0.351234 0.809143 0.252155 0.271977
H100  H     H_    0.337520 0.794999 0.187931 0.270945
H101  H     H_    0.423766 0.861814 0.210822 0.262975
H102  H     H_    0.360907 0.712383 0.846003 0.178922
H103  H     H_    0.311900 0.737088 0.903794 0.150535
H104  H     H_    0.249434 0.733231 0.849443 0.184887
H105  H     H_    0.703364 0.729601 0.098200 0.150501
H106  H     H_    0.765260 0.722922 0.152681 0.185473
H107  H     H_    0.675146 0.288273 0.658669 0.141122
H108  H     H_    0.653325 0.704632 0.155667 0.179405
H109  H     H_    0.205906 0.514096 0.942701 0.163039
H110  H     H_    0.178297 0.631759 0.938710 0.176352
H111  H     H_    0.166073 0.572562 0.993785 0.151848
H112  H     H_    0.804583 0.505697 0.057598 0.162387
H113  H     H_    0.834627 0.622563 0.062685 0.175885
H114  H     H_    0.845687 0.564881 0.007063 0.152742
H115  H     H_    0.310741 0.329342 0.055561 0.153102
H116  H     H_    0.359158 0.351135 0.997774 0.083920
H117  H     H_    0.217983 0.353185 0.957907 0.207953
H118  H     H_    0.667013 0.376672 0.700715 0.197442
H119  H     H_    0.237893 0.249929 0.988609 0.170826
H120  H     H_    0.151352 0.302575 0.058758 0.254359
H121  H     H_    0.091346 0.300364 0.003000 0.223343
H122  H     H_    0.128894 0.404895 0.026661 0.266039
H123  H     H_    0.696224 0.327748 0.942487 0.152929
H124  H     H_    0.649153 0.348342 0.000757 0.083917
H125  H     H_    0.790964 0.346139 0.039870 0.207794
H126  H     H_    0.768741 0.244499 0.008115 0.170836
H127  H     H_    0.855039 0.298320 0.938090 0.254548
H128  H     H_    0.915887 0.292719 0.993484 0.223160
N1    N     N_R   0.514613 0.508673 0.200769 -0.312040
N2    N     N_R   0.495044 0.513643 0.799412 -0.312036
N3    N     N_1   0.500000 0.270550 0.500000 -0.098984
N4    N     N_1   0.500000 0.729450 0.500000 -0.089471
O1    O     O_R   0.378020 0.573650 0.500020 -0.615980
O2    O     O_2   0.640960 0.486354 0.796599 -0.534751
O3    O     O_2   0.348459 0.538468 0.799492 -0.505202
O4    O     O_2   0.661697 0.529959 0.201163 -0.504656
O5    O     O_3   0.436939 0.357581 0.348088 -0.618639
O6    O     O_3   0.563923 0.357706 0.651970 -0.630705
O7    O     O_3   0.389954 0.093087 0.440113 -0.591942
O8    O     O_3   0.609430 0.907241 0.562735 -0.553570
O9    O     O_3   0.609908 0.090303 0.563809 -0.570421
O10   O     O_3   0.387975 0.908055 0.440823 -0.573790
O11   O     O_3   0.469998 0.352136 0.248671 -0.606932
O12   O     O_R   0.621980 0.426350 0.499980 -0.622016
O13   O     O_3   0.536042 0.355451 0.752032 -0.606337
O14   O     O_3   0.283558 0.468677 0.125233 -0.585467
O15   O     O_3   0.725922 0.468383 0.874217 -0.585382
O16   O     O_3   0.432290 0.649526 0.644718 -0.585137
O17   O     O_3   0.575258 0.645976 0.355540 -0.567380
O18   O     O_3   0.445163 0.661178 0.744366 -0.601794
O19   O     O_3   0.567716 0.655596 0.255494 -0.605009
O20   O     O_3   0.286419 0.611151 0.875198 -0.576647
O21   O     O_3   0.725840 0.602392 0.125939 -0.576732
O22   O     O_3   0.288737 0.605706 0.977487 -0.610678
O23   O     O_R   0.621980 0.573650 0.499980 -0.606306
O24   O     O_3   0.723726 0.600225 0.023644 -0.610424
O25   O     O_3   0.288671 0.455348 0.026124 -0.611929
O26   O     O_3   0.721016 0.452235 0.973163 -0.611253
O27   O     O_3   0.088307 0.656174 0.487404 -0.623104
O28   O     O_3   0.911660 0.335016 0.488437 -0.615243
O29   O     O_3   0.913104 0.657404 0.480945 -0.617881
O30   O     O_3   0.085997 0.335468 0.501552 -0.618989
O31   O     O_R   0.378020 0.426350 0.500020 -0.617524
O32   O     O_R   0.500010 0.573660 0.428760 -0.572219
O33   O     O_R   0.499990 0.426340 0.571240 -0.585619
O34   O     O_R   0.499990 0.573660 0.571240 -0.579314
O35   O     O_R   0.500010 0.426340 0.428760 -0.577654
O36   O     O_2   0.368189 0.484121 0.203053 -0.535323
Zn1   Zn    Zn3+2 0.500000 0.598370 0.500000 1.013884
Zn2   Zn    Zn3+2 0.500000 0.401630 0.500000 0.994607

loop_
_geom_bond_atom_site_label_1
_geom_bond_atom_site_label_2
_ccdc_geom_bond_type
C62   O11   S    
C66   C68   S    
C87   C88   S    
C108  H126  S    
C34   C56   A    
C93   C94   S    
O23   Zn1   S    
C11   O30   S    
C35   C36   A    
C10   H23   S    
C6    H14   S    
C50   N3    T    
C4    H8    S    
C87   O15   S    
C87   H72   S    
C63   C65   A    
C81   C82   S    
C96   H95   S    
C104  H115  S    
C27   O35   A    
C13   C60   A    
C85   C86   S    
C106  H121  S    
C95   H92   S    
C14   H32   S    
C98   H100  S    
C76   H48   S    
C5    O28   S    
C96   O19   S    
C71   H2    S    
C73   H37   S    
C71   H13   S    
C19   C21   A    
C11   H28   S    
C10   H26   S    
C51   C56   A    
C8    O29   S    
C92   H84   S    
C3    H6    S    
C52   O2    S    
C103  H112  S    
C87   H73   S    
C5    C6    S    
C82   H60   S    
C28   O34   A    
C90   H77   S    
C101  H106  S    
C95   H93   S    
C72   H35   S    
C11   C12   S    
C5    H11   S    
C69   H85   S    
C56   C78   A    
C108  C109  S    
C60   C62   A    
C94   H89   S    
C42   C46   A    
C103  O24   S    
C61   C63   A    
C53   O4    S    
C80   H54   S    
C64   N1    S    
C62   C64   A    
C3    H7    S    
C1    C40   S    
C103  H113  S    
C14   H33   S    
O12   Zn2   S    
C101  H108  S    
C63   O13   S    
C29   C78   A    
C99   O20   S    
C22   O22   S    
C8    C9    S    
C22   C25   A    
C83   H61   S    
C45   C67   A    
C86   H71   S    
C34   C100  A    
C107  C108  S    
C12   H30   S    
C4    H9    S    
C96   H94   S    
C70   C71   S    
C18   C30   A    
C66   H1    S    
C84   H65   S    
C1    O1    A    
C9    C10   S    
C110  H4    S    
C1    O31   A    
C20   C45   A    
C44   C47   A    
C102  H110  S    
C97   C98   S    
C99   H102  S    
C33   O27   S    
C88   H76   S    
C107  H123  S    
C14   H31   S    
C42   O10   S    
C2    C45   A    
C55   C64   A    
C93   H88   S    
N3    Zn2   S    
C74   H42   S    
C94   C95   S    
N4    Zn1   S    
C79   H51   S    
C23   O12   A    
C75   O9    S    
C80   H56   S    
C104  C105  S    
C74   O8    S    
C49   N4    T    
C73   O7    S    
C66   O5    S    
C9    H21   S    
C53   C100  A    
C15   C61   A    
C98   H99   S    
C46   C48   A    
C76   H47   S    
C12   H29   S    
C17   C24   A    
C77   H50   S    
C73   H38   S    
O32   Zn1   S    
C70   H107  S    
C32   C35   A    
C82   H59   S    
C77   O11   S    
C84   C85   S    
C38   C41   T    
C47   C49   S    
C92   H83   S    
C2    C54   A    
O1    Zn1   S    
C39   C40   T    
C68   C69   S    
C28   O33   A    
C26   O21   S    
C99   H103  S    
C109  H128  S    
C91   H81   S    
C5    H12   S    
C23   O23   A    
C17   C21   A    
C106  H120  S    
C51   O36   S    
C66   H41   S    
C61   O6    S    
C105  H119  S    
C93   H87   S    
C43   C44   A    
C46   O7    S    
C84   O14   S    
C75   H45   S    
C103  H114  S    
C93   O18   S    
C13   C27   S    
C75   H43   S    
C72   H24   S    
O34   Zn1   S    
C12   C14   S    
C16   C20   A    
C43   C48   A    
C57   C65   A    
C83   H62   S    
C31   C33   A    
C17   C18   A    
C69   H96   S    
C77   C79   S    
C89   O15   S    
C59   O16   S    
C32   C37   A    
C97   H97   S    
C79   H53   S    
C109  H3    S    
C81   H57   S    
C52   C67   A    
C102  H109  S    
C77   H49   S    
C27   O32   A    
C44   O8    S    
C88   H75   S    
C107  H124  S    
C88   C90   S    
O31   Zn2   S    
C109  H127  S    
C101  O21   S    
C76   O10   S    
C8    H20   S    
C7    H18   S    
C102  O22   S    
C55   C58   A    
C30   O26   S    
C35   O28   S    
C3    C4    S    
C19   C29   A    
C80   H55   S    
C107  O26   S    
C92   O17   S    
C96   C97   S    
C74   H39   S    
C98   H101  S    
C9    H22   S    
C72   H34   S    
C91   H80   S    
C16   C22   A    
C81   O13   S    
C24   O24   S    
C55   O19   S    
C15   C59   A    
C74   H40   S    
C24   C26   A    
C6    H15   S    
C70   H118  S    
C83   H64   S    
C92   H86   S    
C110  O27   S    
C68   H63   S    
C104  H116  S    
C6    C7    S    
C21   C34   A    
C99   H104  S    
C68   H52   S    
C53   N1    A    
C95   H91   S    
C105  C106  S    
C73   H36   S    
C57   O18   S    
C23   C41   S    
C58   O17   S    
C78   O14   S    
C36   C38   S    
C86   H70   S    
C85   H68   S    
C54   N2    A    
C10   H25   S    
C37   C39   S    
C13   C58   A    
C31   O29   S    
C25   O20   S    
C75   H44   S    
C15   C28   S    
C90   H78   S    
C101  H105  S    
C91   H82   S    
C29   O25   S    
C30   C89   A    
C48   C50   S    
C86   H69   S    
C81   H58   S    
C76   H46   S    
O33   Zn2   S    
C2    C25   A    
C18   C20   A    
C42   C47   A    
C105  H117  S    
C7    H16   S    
C11   H27   S    
C54   O3    S    
C97   H98   S    
C33   C37   A    
C108  H125  S    
C57   C59   A    
C52   N2    A    
C69   H74   S    
C79   C80   S    
C106  H122  S    
C94   H90   S    
C43   O9    S    
C71   C72   S    
C60   O5    S    
C85   H67   S    
C82   C83   S    
O35   Zn2   S    
C70   O6    S    
C8    H19   S    
C91   O16   S    
C67   C89   A    
C31   C36   A    
C4    H10   S    
C51   N1    A    
C3    C110  S    
C7    H17   S    
C84   H66   S    
C110  H5    S    
C90   H79   S    
C32   O30   S    
C65   N2    S    
C102  H111  S    
C26   C100  A    
C104  O25   S    
C16   C19   A    
