data_mof_unit_40297.cif
_audit_creation_date              2012-12-10T18:06:50-0500
_audit_creation_method            fapswitch 2.2
_symmetry_space_group_name_H-M    P1
_symmetry_Int_Tables_number       1
_space_group_crystal_system       triclinic
_cell_length_a                    12.6418
_cell_length_b                    13.167908
_cell_length_c                    15.458953
_cell_angle_alpha                 83.629914
_cell_angle_beta                  98.583461
_cell_angle_gamma                 96.482228
_cell_volume                      2516.67663029

loop_
_atom_site_label
_atom_site_type_symbol
_atom_type_description
_atom_site_fract_x
_atom_site_fract_y
_atom_site_fract_z
_atom_type_partial_charge
C1    C     C_R   0.442310 0.308852 0.506597 0.851803
C2    C     C_R   0.647931 0.401864 0.938362 0.153264
C3    C     C_R   0.541747 0.424853 0.903424 0.049943
C4    C     C_R   0.434736 0.509745 0.336264 0.858283
C5    C     C_R   0.726679 0.404051 0.881431 0.209441
C6    C     C_R   0.699459 0.432725 0.791499 -0.197229
C7    C     C_R   0.519370 0.456531 0.814169 -0.272308
C8    C     C_R   0.645491 0.941749 0.370137 -0.201787
C9    C     C_R   0.581567 0.800709 0.468827 -0.050460
C10   C     C_R   0.330091 0.160007 0.566034 -0.186613
C11   C     C_R   0.308074 0.054717 0.582927 -0.148138
C12   C     C_R   0.424442 0.446615 0.105035 0.092124
C13   C     C_R   0.366322 0.988736 0.549083 -0.188667
C14   C     C_R   0.444859 0.027742 0.494115 0.088127
C15   C     C_R   0.454229 0.133342 0.466137 0.091638
C16   C     C_R   0.555670 0.691486 0.488900 0.856092
C17   C     C_R   0.514429 0.965494 0.465965 0.083429
C18   C     C_R   0.578851 0.004953 0.399727 0.179265
C19   C     C_R   0.574289 0.106182 0.363181 -0.253107
C20   C     C_R   0.512570 0.169785 0.395932 -0.204706
C21   C     C_R   0.523263 0.865388 0.503541 -0.254183
C22   C     C_R   0.645456 0.839000 0.403623 -0.191644
C23   C     C_R   0.315437 0.457185 0.071034 0.177353
C24   C     C_R   0.405548 0.199813 0.509918 -0.113384
C25   C     C_R   0.133226 0.633749 0.626539 -0.303776
C26   C     C_R   0.757651 0.382079 0.394151 0.023964
C27   C     C_R   0.852618 0.357423 0.370510 -0.254987
C28   C     C_R   0.563648 0.484651 0.664053 0.872233
C29   C     C_R   0.950200 0.401941 0.410282 -0.192746
C30   C     C_R   0.952380 0.471740 0.473869 0.030885
C31   C     C_R   0.852994 0.494026 0.495433 0.230044
C32   C     C_R   0.048265 0.520082 0.517046 -0.015033
C33   C     C_R   0.041424 0.587414 0.581206 0.146008
C34   C     C_R   0.495555 0.419570 0.050874 0.074973
C35   C     C_R   0.942843 0.608428 0.600285 -0.280292
C36   C     C_R   0.849810 0.562839 0.557202 -0.211639
C37   C     C_R   0.151056 0.504484 0.499885 -0.104993
C38   C     C_R   0.232639 0.615670 0.608164 0.360548
C39   C     C_R   0.392027 0.497760 0.244293 -0.057569
C40   C     C_R   0.596338 0.460045 0.758200 -0.105957
C41   C     C_R   0.244939 0.483532 0.125133 -0.204786
C42   C     C_R   0.282925 0.502941 0.211807 -0.193939
C43   C     C_R   0.461527 0.471111 0.190393 -0.273027
C44   C     C_3   0.839684 0.377856 0.914799 -0.960134
C45   C     C_R   0.462519 0.423701 0.959504 0.085778
C46   C     C_3   0.327737 0.667372 0.662943 -0.879171
C47   C     C_R   0.351995 0.429026 0.927447 -0.234182
C48   C     C_R   0.279273 0.443512 0.983096 -0.240184
C49   C     C_R   0.598940 0.390280 0.084813 -0.242556
C50   C     C_R   0.672913 0.379510 0.029358 -0.230176
H1    H     H_    0.195538 0.448555 0.956338 0.148813
H2    H     H_    0.681489 0.348660 0.362925 0.124819
H3    H     H_    0.021871 0.380371 0.390097 0.137119
H4    H     H_    0.776397 0.582886 0.573606 0.214918
H5    H     H_    0.758910 0.434212 0.747488 0.167335
H6    H     H_    0.751225 0.357967 0.059078 0.159698
H7    H     H_    0.227296 0.521889 0.253084 0.157902
H8    H     H_    0.319312 0.420131 0.859796 0.150592
H9    H     H_    0.623864 0.373254 0.154363 0.139557
H10   H     H_    0.889663 0.383322 0.860827 0.245710
H11   H     H_    0.879079 0.431903 0.962837 0.239830
H12   H     H_    0.690698 0.788745 0.375738 0.161094
H13   H     H_    0.837680 0.298018 0.946782 0.245044
H14   H     H_    0.482344 0.834318 0.558524 0.143377
H15   H     H_    0.248785 0.024143 0.625273 0.143114
H16   H     H_    0.404970 0.665434 0.640521 0.284501
H17   H     H_    0.317034 0.749912 0.663030 0.199370
H18   H     H_    0.332674 0.631645 0.731763 0.218140
H19   H     H_    0.442344 0.482354 0.787355 0.171843
H20   H     H_    0.163759 0.455191 0.452066 0.135380
H21   H     H_    0.850583 0.304278 0.321502 0.144370
H22   H     H_    0.160946 0.490023 0.100176 0.135883
H23   H     H_    0.619881 0.136766 0.310404 0.140237
H24   H     H_    0.546008 0.472913 0.215105 0.162421
H25   H     H_    0.694198 0.970703 0.319017 0.137669
H26   H     H_    0.290265 0.210247 0.598813 0.160621
H27   H     H_    0.346279 0.907742 0.564970 0.134755
H28   H     H_    0.509573 0.247352 0.364893 0.155708
H29   H     H_    0.937517 0.660660 0.648676 0.155041
H30   H     H_    0.127699 0.684041 0.676500 0.150888
N1    N     N_R   0.239390 0.551900 0.544730 -0.102255
N2    N     N_R   0.759950 0.448600 0.455730 -0.130629
O1    O     O_R   0.374950 0.371210 0.521360 -0.614523
O2    O     O_R   0.542050 0.338030 0.492790 -0.607855
O3    O     O_R   0.368720 0.526070 0.390200 -0.612347
O4    O     O_R   0.535820 0.492890 0.361630 -0.629346
O5    O     O_R   0.457950 0.661970 0.507210 -0.614449
O6    O     O_R   0.625050 0.628790 0.478640 -0.633835
O7    O     O_R   0.464180 0.507110 0.638370 -0.619474
O8    O     O_R   0.631280 0.473930 0.609800 -0.632910
Zn1   Zn    Zn3+2 0.388420 0.522150 0.519080 0.937326
Zn2   Zn    Zn3+2 0.611580 0.477850 0.480920 0.926725

loop_
_geom_bond_atom_site_label_1
_geom_bond_atom_site_label_2
_ccdc_geom_bond_type
O5    Zn1   S    
C27   C29   A    
C25   H30   S    
C41   C42   A    
C19   C20   A    
C6    H5    S    
O3    Zn1   S    
C1    O2    A    
C12   C23   A    
C26   C27   A    
C31   N2    A    
C9    C16   S    
C46   H16   S    
C12   C43   A    
C3    C7    A    
C5    C6    A    
C9    C22   A    
C4    O4    A    
C28   C40   S    
N2    Zn2   S    
C18   C19   A    
C21   H14   S    
C2    C50   A    
C10   H26   S    
C48   H1    S    
O6    Zn2   S    
C16   O5    A    
C8    C22   A    
C7    C40   A    
C28   O7    A    
O7    Zn1   S    
C43   H24   S    
C26   N2    A    
C37   H20   S    
C14   C17   A    
C37   N1    A    
C42   H7    S    
C39   C42   A    
C45   C47   A    
C44   H13   S    
C15   C20   A    
C13   H27   S    
C19   H23   S    
C39   C43   A    
C4    O3    A    
C10   C24   A    
C3    C45   A    
C8    H25   S    
C50   H6    S    
C35   C36   A    
C46   H18   S    
C29   C30   A    
C26   H2    S    
C25   C38   A    
C22   H12   S    
O8    Zn2   S    
C47   C48   A    
C4    C39   S    
C17   C18   A    
C34   C45   A    
C32   C37   A    
C41   H22   S    
C15   C24   A    
C5    C44   S    
C38   N1    A    
C6    C40   A    
C2    C5    A    
C12   C34   A    
C27   H21   S    
C34   C49   A    
C23   C48   A    
C14   C15   A    
C23   C41   A    
C7    H19   S    
C44   H11   S    
C1    O1    A    
O1    Zn1   S    
C49   H9    S    
C20   H28   S    
C32   C33   A    
C2    C3    A    
C46   H17   S    
O4    Zn2   S    
C47   H8    S    
C30   C32   A    
C11   C13   A    
C9    C21   A    
C30   C31   A    
C29   H3    S    
C44   H10   S    
C35   H29   S    
C33   C35   A    
C8    C18   A    
C38   C46   S    
C36   H4    S    
C10   C11   A    
N1    Zn1   S    
C1    C24   S    
C49   C50   A    
C16   O6    A    
C31   C36   A    
C28   O8    A    
O2    Zn2   S    
C13   C14   A    
C11   H15   S    
C25   C33   A    
C17   C21   A    
