data_mof_unit_18232.cif
_audit_creation_date              2012-12-10T17:31:07-0500
_audit_creation_method            fapswitch 2.2
_symmetry_space_group_name_H-M    P1
_symmetry_Int_Tables_number       1
_space_group_crystal_system       triclinic
_cell_length_a                    11.991801
_cell_length_b                    12.887504
_cell_length_c                    15.510324
_cell_angle_alpha                 87.112129
_cell_angle_beta                  116.057762
_cell_angle_gamma                 93.413112
_cell_volume                      2148.77462258

loop_
_atom_site_label
_atom_site_type_symbol
_atom_type_description
_atom_site_fract_x
_atom_site_fract_y
_atom_site_fract_z
_atom_type_partial_charge
C1    C     C_R   0.477652 0.299403 0.499320 0.886449
C2    C     C_R   0.522402 0.700584 0.500787 0.885163
C3    C     C_R   0.656539 0.562909 0.112949 -0.209387
C4    C     C_R   0.363948 0.583167 0.888136 -0.164171
C5    C     C_R   0.744485 0.558545 0.077709 -0.224814
C6    C     C_R   0.276037 0.588071 0.923311 -0.195292
C7    C     C_R   0.536124 0.811855 0.501946 -0.058831
C8    C     C_R   0.464070 0.188098 0.498466 -0.054838
C9    C     C_R   0.336295 0.030684 0.467549 -0.211513
C10   C     C_R   0.664005 0.969218 0.533173 -0.210612
C11   C     C_R   0.347658 0.137890 0.473317 -0.200054
C12   C     C_R   0.652597 0.862018 0.527278 -0.182621
C13   C     C_R   0.569489 0.131806 0.519924 -0.272134
C14   C     C_R   0.430755 0.868145 0.480630 -0.271485
C15   C     C_R   0.558933 0.025387 0.513691 0.181781
C16   C     C_R   0.441361 0.974537 0.487001 0.183030
C17   C     C_R   0.999950 0.595459 0.404441 -0.094149
C18   C     C_R   0.005819 0.417089 0.604618 -0.100072
C19   C     C_R   0.121081 0.583883 0.414217 -0.080608
C20   C     C_R   0.881590 0.421702 0.589878 -0.087347
C21   C     C_R   0.165308 0.464339 0.544621 -0.021512
C22   C     C_R   0.835026 0.536733 0.456043 -0.018051
C23   C     C_R   0.577557 0.497516 0.680838 0.891294
C24   C     C_R   0.422876 0.505913 0.319084 0.890985
C25   C     C_R   0.044809 0.472357 0.539914 0.028435
C26   C     C_R   0.958985 0.536261 0.466200 0.028647
C27   C     C_R   0.628160 0.510758 0.784860 -0.111543
C28   C     C_R   0.376093 0.521547 0.214761 -0.104766
C29   C     C_R   0.794516 0.533479 0.945180 -0.276150
C30   C     C_R   0.219048 0.565450 0.054946 -0.273935
C31   C     C_R   0.756634 0.517849 0.847321 0.216197
C32   C     C_R   0.251143 0.541996 0.152027 0.223099
C33   C     C_R   0.541829 0.523230 0.820815 -0.293688
C34   C     C_R   0.464641 0.524270 0.179104 -0.295889
C35   C     C_R   0.578463 0.546706 0.916193 0.090418
C36   C     C_R   0.435404 0.553091 0.084266 0.095672
C37   C     C_R   0.706464 0.546742 0.979956 0.151673
C38   C     C_R   0.309705 0.569540 0.020626 0.135574
C39   C     C_R   0.489518 0.563305 0.950414 0.066942
C40   C     C_R   0.527687 0.559778 0.050400 0.075397
H1    H     H_    0.842262 0.560740 0.127482 0.135041
H2    H     H_    0.180717 0.602937 0.873693 0.149507
H3    H     H_    0.850948 0.380532 0.638787 0.138697
H4    H     H_    0.153095 0.627797 0.367377 0.138722
H5    H     H_    0.557134 0.500938 0.226264 0.170361
H6    H     H_    0.444500 0.511034 0.773700 0.199973
H7    H     H_    0.892751 0.536053 0.993755 0.135786
H8    H     H_    0.122989 0.579215 0.006203 0.133933
H9    H     H_    0.691961 0.571737 0.189366 0.160181
H10   H     H_    0.331964 0.598181 0.812039 0.160914
H11   H     H_    0.340203 0.829312 0.459900 0.161705
H12   H     H_    0.660010 0.170665 0.540577 0.157737
H13   H     H_    0.734518 0.818534 0.543962 0.173788
H14   H     H_    0.265718 0.181345 0.456621 0.163926
H15   H     H_    0.245919 0.991924 0.447329 0.146836
H16   H     H_    0.754397 0.007962 0.553444 0.142501
H17   H     H_    0.765248 0.580865 0.399103 0.185320
H18   H     H_    0.231199 0.412262 0.595674 0.186230
N1    N     N_R   0.799120 0.480200 0.517090 -0.104152
N2    N     N_R   0.200880 0.519800 0.482910 -0.105327
O1    O     O_R   0.580150 0.341050 0.504560 -0.621886
O2    O     O_R   0.419850 0.658950 0.495440 -0.621877
O3    O     O_R   0.388090 0.353760 0.493600 -0.625804
O4    O     O_R   0.611910 0.646240 0.506400 -0.618106
O5    O     O_R   0.650890 0.490020 0.640860 -0.588353
O6    O     O_R   0.349110 0.509980 0.359140 -0.586532
O7    O     O_R   0.458830 0.502730 0.629890 -0.622468
O8    O     O_R   0.541170 0.497270 0.370110 -0.627995
Zn1   Zn    Zn3+2 0.628240 0.491510 0.507320 0.951372
Zn2   Zn    Zn3+2 0.371760 0.508490 0.492680 0.950861
C41   C     C_2   0.923835 0.672350 0.330581 0.326157
H19   H     H_    0.940894 0.689100 0.267999 0.066502
O9    O     O_2   0.847694 0.722536 0.341009 -0.576586
C42   C     C_2   0.089772 0.356741 0.690457 0.347534
H20   H     H_    0.051637 0.291973 0.718003 0.069385
O10   O     O_2   0.199573 0.381993 0.734954 -0.592052
N3    N     N_2   0.157787 0.539801 0.185365 -0.301929
H21   H     H_    0.091137 0.594039 0.151330 0.204167
C43   C     C_3   0.102974 0.437337 0.188040 -0.766462
H22   H     H_    0.051274 0.407739 0.114130 0.226997
H23   H     H_    0.037359 0.441473 0.220578 0.229415
H24   H     H_    0.175740 0.382259 0.232240 0.254295
N4    N     N_2   0.847834 0.507823 0.813251 -0.297961
H25   H     H_    0.922275 0.465534 0.859543 0.215857
C44   C     C_3   0.887969 0.605350 0.783253 -0.752161
H26   H     H_    0.939082 0.655548 0.846089 0.216842
H27   H     H_    0.807126 0.647008 0.729078 0.255936
H28   H     H_    0.950617 0.589940 0.750209 0.235880

loop_
_geom_bond_atom_site_label_1
_geom_bond_atom_site_label_2
_ccdc_geom_bond_type
C8    C13   A    
C5    C37   A    
C1    C8    S    
C2    C7    S    
C22   H17   S    
C3    H9    S    
C44   H26   S    
C27   C33   A    
O2    Zn2   S    
C42   O10   D    
C29   H7    S    
C17   C26   A    
C30   H8    S    
C35   C37   A    
C9    C16   A    
C10   C15   A    
C15   C16   A    
C31   N4    S    
C30   C38   A    
C23   O7    A    
C36   C40   A    
C21   C25   A    
C33   C35   A    
C32   N3    S    
C7    C14   A    
C14   H11   S    
O8    Zn1   S    
C6    C38   A    
C9    H15   S    
C23   C27   S    
C10   H16   S    
C34   C36   A    
C12   H13   S    
C24   O6    A    
N3    C43   S    
C28   C34   A    
C18   C42   S    
C33   H6    S    
C18   C25   A    
C1    O3    A    
C2    O4    A    
C44   H27   S    
C7    C12   A    
C42   H20   S    
O3    Zn2   S    
C27   C31   A    
C28   C32   A    
C21   N2    A    
C4    C6    A    
C39   C40   A    
C43   H23   S    
C25   C26   A    
N3    H21   S    
C4    H10   S    
C35   C39   A    
C13   H12   S    
N4    H25   S    
C4    C39   A    
N2    Zn2   S    
C34   H5    S    
O4    Zn1   S    
C20   N1    A    
C9    C11   A    
C11   H14   S    
C10   C12   A    
N1    Zn1   S    
N4    C44   S    
C3    C40   A    
C17   C41   S    
C13   C15   A    
C6    H2    S    
C14   C16   A    
C22   N1    A    
C20   H3    S    
C19   H4    S    
C41   O9    D    
C44   H28   S    
O1    Zn1   S    
C5    H1    S    
C24   C28   S    
C3    C5    A    
C1    O1    A    
C43   H24   S    
C19   N2    A    
O7    Zn2   S    
C23   O5    A    
C36   C38   A    
C41   H19   S    
C29   C31   A    
C30   C32   A    
O6    Zn2   S    
C8    C11   A    
O5    Zn1   S    
C17   C19   A    
C18   C20   A    
C24   O8    A    
C43   H22   S    
C21   H18   S    
C22   C26   A    
C29   C37   A    
C2    O2    A    
