data_mof_unit_30493.cif
_audit_creation_date              2013-03-05T16:06:01-0500
_audit_creation_method            fapswitch 2.2
_symmetry_space_group_name_H-M    P1
_symmetry_Int_Tables_number       1
_space_group_crystal_system       triclinic
_cell_length_a                    10.819823
_cell_length_b                    9.493202
_cell_length_c                    23.597123
_cell_angle_alpha                 90.552053
_cell_angle_beta                  91.172995
_cell_angle_gamma                 90.703597
_cell_volume                      2422.96383406

loop_
_atom_site_label
_atom_site_type_symbol
_atom_site_description
_atom_site_fract_x
_atom_site_fract_y
_atom_site_fract_z
_atom_type_partial_charge
O1    O     O_R   0.319640 0.618740 0.500000 -0.576742
O2    O     O_R   0.680360 0.381260 0.500000 -0.576505
O3    O     O_R   0.680360 0.618740 0.500000 -0.582295
O4    O     O_R   0.319640 0.381260 0.500000 -0.583170
C1    C     C_R   0.262424 0.499147 0.500073 0.831166
C2    C     C_R   0.737548 0.500880 0.500023 0.833999
O5    O     O_R   0.499960 0.618810 0.417880 -0.577283
O6    O     O_R   0.500040 0.381190 0.582120 -0.578671
O7    O     O_R   0.500040 0.618810 0.582120 -0.579037
O8    O     O_R   0.499960 0.381190 0.417880 -0.580753
C3    C     C_R   0.503053 0.499261 0.390611 0.807734
C4    C     C_R   0.495885 0.500707 0.609291 0.808094
Cu1   Cu    Cu3+1 0.500000 0.640660 0.500000 0.935396
Cu2   Cu    Cu3+1 0.500000 0.359340 0.500000 0.934489
C5    C     C_R   0.584152 0.446110 0.879143 0.567895
C6    C     C_R   0.424615 0.577843 0.121579 0.564682
N1    N     N_R   0.482150 0.498056 0.852498 -0.460285
N2    N     N_R   0.525651 0.521782 0.147641 -0.459793
C7    C     C_R   0.388761 0.557783 0.881649 0.554648
C8    C     C_R   0.622505 0.472101 0.117859 0.547718
C9    C     C_R   0.390446 0.557290 0.941766 -0.024056
C10   C     C_R   0.622063 0.480559 0.057988 -0.022660
C11   C     C_R   0.501309 0.515570 0.970036 -0.049813
C12   C     C_R   0.510739 0.521309 0.029909 -0.048076
C13   C     C_R   0.602157 0.465527 0.938258 -0.113442
C14   C     C_R   0.409177 0.568281 0.061923 -0.123871
C15   C     C_R   0.285431 0.594491 0.973990 0.067027
C16   C     C_R   0.728302 0.449606 0.025754 0.048552
C17   C     C_R   0.295772 0.601776 0.033869 0.001471
C18   C     C_R   0.716951 0.437252 0.966061 -0.004574
O9    O     O_2   0.666340 0.374871 0.848018 -0.506597
O10   O     O_2   0.340096 0.641612 0.153944 -0.504782
O11   O     O_2   0.296460 0.618680 0.851922 -0.542228
O12   O     O_2   0.716129 0.410630 0.146512 -0.534172
C19   C     C_R   0.472048 0.388823 0.233514 0.194762
C20   C     C_R   0.421823 0.385371 0.760469 0.198848
C21   C     C_R   0.466532 0.382514 0.293570 0.106397
C22   C     C_R   0.422154 0.388800 0.700229 0.084919
C23   C     C_R   0.513815 0.498062 0.327468 -0.108783
C24   C     C_R   0.483833 0.502155 0.672261 -0.108300
C25   C     C_R   0.573823 0.612704 0.300263 0.085101
C26   C     C_R   0.532123 0.617302 0.705296 0.102368
C27   C     C_R   0.577839 0.615734 0.241249 -0.141587
C28   C     C_R   0.528642 0.611935 0.764178 -0.137045
H1    H     H_    0.620596 0.704219 0.220161 0.155318
H2    H     H_    0.567499 0.697688 0.789761 0.160740
C29   C     C_R   0.526088 0.507683 0.208160 0.285308
C30   C     C_R   0.477040 0.497500 0.791665 0.283786
C31   C     C_R   0.062325 0.450960 0.451576 0.131401
C32   C     C_R   0.937528 0.549257 0.548537 0.130881
C33   C     C_R   0.932354 0.455249 0.450534 0.129930
C34   C     C_R   0.067534 0.545458 0.549513 0.130612
C35   C     C_R   0.871528 0.502829 0.499399 -0.113346
C36   C     C_R   0.128387 0.497354 0.500712 -0.112649
C37   C     C_R   0.419696 0.072545 0.465721 -0.023420
C38   C     C_R   0.580273 0.927448 0.534296 -0.023710
C39   C     C_R   0.580166 0.076440 0.534364 -0.014554
C40   C     C_R   0.419818 0.923558 0.465645 -0.015850
H3    H     H_    0.355268 0.127239 0.438408 0.118200
H4    H     H_    0.644641 0.872737 0.561639 0.118064
H5    H     H_    0.644237 0.134306 0.561908 0.128178
H6    H     H_    0.355735 0.865692 0.438107 0.128100
N3    N     N_R   0.500000 0.852070 0.500000 -0.158338
N4    N     N_R   0.500000 0.147930 0.500000 -0.158094
C41   C     C_3   0.159690 0.614086 0.945040 -0.659694
H7    H     H_    0.140384 0.524835 0.915353 0.238730
H8    H     H_    0.080467 0.613786 0.973897 0.205630
H9    H     H_    0.157935 0.715931 0.922354 0.274832
C42   C     C_3   0.855613 0.442354 0.054257 -0.628601
H10   H     H_    0.867993 0.338199 0.074431 0.273654
H11   H     H_    0.932778 0.458698 0.024877 0.204468
H12   H     H_    0.867344 0.528562 0.086131 0.248738
C43   C     C_2   0.184577 0.637434 0.066659 0.913477
O13   O     O_2   0.135643 0.547948 0.095979 -0.574981
O14   O     O_R   0.134910 0.772318 0.062878 -0.737093
H13   H     H_    0.058430 0.783347 0.086560 0.337985
C44   C     C_2   0.827857 0.401741 0.932929 0.912542
O15   O     O_2   0.879327 0.289193 0.940259 -0.570331
O16   O     O_R   0.872972 0.497642 0.893536 -0.735392
H14   H     H_    0.945340 0.459303 0.871861 0.340030
C45   C     C_3   0.420640 0.269682 0.196350 -0.760105
H15   H     H_    0.319690 0.257787 0.202755 0.240709
H16   H     H_    0.433320 0.286194 0.150441 0.231335
H17   H     H_    0.468166 0.170078 0.207004 0.232125
C46   C     C_3   0.364744 0.262367 0.791435 -0.777766
H18   H     H_    0.404201 0.162052 0.775893 0.236828
H19   H     H_    0.382010 0.266596 0.837868 0.234718
H20   H     H_    0.262974 0.261115 0.784440 0.230241
C47   C     C_3   0.411039 0.253305 0.321268 -0.824353
H21   H     H_    0.484558 0.195510 0.344457 0.246006
H22   H     H_    0.338306 0.285622 0.350565 0.229576
H23   H     H_    0.366049 0.176600 0.291755 0.231557
C48   C     C_3   0.354277 0.274498 0.665922 -0.793913
H24   H     H_    0.299072 0.322095 0.631022 0.232596
H25   H     H_    0.421644 0.199258 0.648380 0.245873
H26   H     H_    0.286976 0.213108 0.690619 0.227870
C49   C     C_3   0.637899 0.732013 0.332552 -0.781396
H27   H     H_    0.568539 0.801384 0.352175 0.246076
H28   H     H_    0.701485 0.689493 0.365549 0.234992
H29   H     H_    0.694539 0.798920 0.304434 0.218816
C50   C     C_3   0.588222 0.747926 0.679847 -0.811292
H30   H     H_    0.627366 0.821465 0.712637 0.225948
H31   H     H_    0.664538 0.718813 0.651904 0.230441
H32   H     H_    0.516444 0.806308 0.655755 0.245711
C51   C     C_3   0.133270 0.396906 0.401132 -0.838435
H33   H     H_    0.181260 0.299166 0.413665 0.224776
H34   H     H_    0.076088 0.370338 0.363098 0.246279
H35   H     H_    0.202041 0.477474 0.388049 0.217838
C52   C     C_3   0.866439 0.602923 0.599027 -0.838446
H36   H     H_    0.817918 0.700371 0.586550 0.225029
H37   H     H_    0.797987 0.522026 0.612133 0.218175
H38   H     H_    0.923615 0.629749 0.637039 0.245789
C53   C     C_3   0.860145 0.412192 0.397006 -0.819652
H39   H     H_    0.759084 0.424910 0.399682 0.219199
H40   H     H_    0.889359 0.478886 0.361146 0.236754
H41   H     H_    0.876791 0.299566 0.387005 0.241070
C54   C     C_3   0.139702 0.589816 0.602878 -0.822852
H42   H     H_    0.240851 0.578317 0.600083 0.219282
H43   H     H_    0.122170 0.702347 0.612702 0.242018
H44   H     H_    0.111251 0.523216 0.638901 0.235289

loop_
_geom_bond_atom_site_label_1
_geom_bond_atom_site_label_2
_geom_bond_distance
_ccdc_geom_bond_type
C40   H6    1.081718 S    
C50   H30   1.111007 S    
C37   H3    1.080670 S    
C15   C17   1.416062 A    
C43   O14   1.397685 S    
C43   O13   1.223098 D    
C16   C42   1.523105 S    
N1    C30   1.435378 S    
O3    C2    1.285201 A    
C19   C29   1.408604 A    
N2    C29   1.435519 S    
C49   H29   1.111061 S    
C49   H27   1.109852 S    
C19   C45   1.517618 S    
C23   C25   1.425240 A    
C44   O15   1.223048 D    
O5    C3    1.300354 A    
C51   H34   1.104975 S    
C48   H24   1.110331 S    
O1    C1    1.286480 A    
C7    C9    1.418400 A    
C12   C14   1.420070 A    
C52   H37   1.110829 S    
C5    C13   1.414490 A    
C17   C43   1.484520 S    
C31   C36   1.413421 A    
C40   N3    1.366270 A    
C38   C39   1.414409 A    
C42   H11   1.106523 S    
O7    Cu1   1.950844 S    
C25   C49   1.512126 S    
C49   H28   1.110621 S    
C18   C44   1.485979 S    
C34   C36   1.412947 A    
C31   C33   1.407073 A    
C32   C34   1.407270 A    
C11   C12   1.414904 A    
C47   H22   1.102494 S    
O3    Cu1   1.965065 S    
C53   H41   1.110354 S    
C8    O12   1.348300 S    
C34   C54   1.521263 S    
C46   H19   1.107985 S    
C9    C15   1.426195 A    
C48   H25   1.110087 S    
C10   C16   1.423380 A    
Cu1   Cu2   2.670628 S    
C25   C27   1.394678 A    
O2    C2    1.286512 A    
C26   C28   1.392140 A    
C45   H16   1.107157 S    
C28   H2    1.084265 S    
C45   H15   1.110267 S    
C44   O16   1.398279 S    
C6    C14   1.416095 A    
C51   H35   1.110835 S    
C32   C35   1.413225 A    
C1    C36   1.450530 S    
C7    O11   1.347934 S    
C52   H38   1.105056 S    
C31   C51   1.518142 S    
C41   H8    1.105592 S    
C46   H18   1.110547 S    
C5    O9    1.348896 S    
C32   C52   1.518580 S    
C38   H4    1.080754 S    
C33   C35   1.412478 A    
C4    C24   1.494225 S    
C42   H12   1.110520 S    
O14   H13   1.013872 S    
C15   C41   1.524093 S    
C24   C26   1.424240 A    
Cu1   N3    2.006958 S    
O6    C4    1.299548 A    
C41   H9    1.109819 S    
Cu2   N4    2.006959 S    
C37   N4    1.366087 A    
C38   N3    1.366081 A    
C33   C53   1.521416 S    
C47   H23   1.104469 S    
C3    C23   1.496856 S    
C27   H1    1.084053 S    
C6    N2    1.359995 A    
C8    C10   1.415758 A    
C48   H26   1.105894 S    
C9    C11   1.422923 A    
O8    Cu2   1.950844 S    
C10   C12   1.422397 A    
C54   H44   1.110570 S    
O1    Cu1   1.959984 S    
C2    C35   1.449913 S    
C26   C50   1.509143 S    
C45   H17   1.110384 S    
C39   N4    1.366292 A    
C53   H39   1.104598 S    
C46   H20   1.109992 S    
C13   C18   1.422464 A    
C5    N1    1.359218 A    
O6    Cu2   1.946868 S    
C19   C21   1.421426 A    
O4    C1    1.285575 A    
C39   H5    1.081715 S    
C20   C46   1.515282 S    
C6    O10   1.348807 S    
C51   H33   1.108542 S    
C21   C47   1.518453 S    
C54   H43   1.110393 S    
C16   C18   1.415031 A    
C21   C23   1.434348 A    
C54   H42   1.104417 S    
C22   C24   1.432834 A    
C22   C48   1.520295 S    
C20   C22   1.422258 A    
N1    C7    1.360404 A    
C20   C30   1.408251 A    
N2    C8    1.360304 A    
C11   C13   1.420558 A    
O4    Cu2   1.965066 S    
C42   H10   1.109929 S    
O2    Cu2   1.959983 S    
O7    C4    1.297657 A    
O8    C3    1.298218 A    
O16   H14   1.013397 S    
O5    Cu1   1.946868 S    
C14   C17   1.423138 A    
C50   H31   1.103341 S    
C41   H7    1.109261 S    
C37   C40   1.414367 A    
C50   H32   1.109995 S    
C47   H21   1.109911 S    
C52   H36   1.108577 S    
C27   C29   1.388493 A    
C28   C30   1.387837 A    
C53   H40   1.110501 S    
