data_mof_unit_48617.cif
_audit_creation_date              2012-10-26T20:12:41-0400
_audit_creation_method            fapswitch 2.2
_symmetry_space_group_name_H-M    P1
_symmetry_Int_Tables_number       1
_space_group_crystal_system       triclinic
_cell_length_a                    15.12388
_cell_length_b                    13.868991
_cell_length_c                    10.790931
_cell_angle_alpha                 90.084573
_cell_angle_beta                  90.641473
_cell_angle_gamma                 90.122184
_cell_volume                      2263.28012357

loop_
_atom_site_label
_atom_site_type_symbol
_atom_type_description
_atom_site_fract_x
_atom_site_fract_y
_atom_site_fract_z
_atom_type_partial_charge
C1    C     C_R   0.330041 0.499940 0.500356 0.525117
C2    C     C_R   0.456784 0.790337 0.408216 0.044943
C3    C     C_R   0.432507 0.209162 0.444053 0.046932
C4    C     C_R   0.543076 0.790793 0.591849 0.044135
C5    C     C_R   0.499992 0.054662 0.499937 0.025474
C6    C     C_R   0.499947 0.945272 0.499971 0.024626
C7    C     C_R   0.499133 0.499963 0.262734 0.529675
C8    C     C_R   0.501085 0.500014 0.737200 0.527194
C9    C     C_R   0.340788 0.542341 0.124557 -0.103101
C10   C     C_R   0.659923 0.460343 0.874813 -0.100531
C11   C     C_R   0.340968 0.536206 0.867043 -0.093975
C12   C     C_R   0.670199 0.500107 0.500631 0.527883
C13   C     C_R   0.657646 0.455446 0.132478 -0.091407
C14   C     C_R   0.262235 0.560089 0.058850 0.155284
C15   C     C_R   0.737589 0.438303 0.940395 0.155680
C16   C     C_R   0.261987 0.557109 0.928029 0.162609
C17   C     C_R   0.736190 0.434779 0.070775 0.157670
C18   C     C_R   0.420894 0.519604 0.932908 -0.030514
C19   C     C_R   0.578797 0.477823 0.066854 -0.030944
C20   C     C_R   0.420593 0.521281 0.063039 -0.035892
C21   C     C_R   0.579717 0.479230 0.936645 -0.035090
C22   C     C_R   0.500666 0.499863 0.870987 -0.001245
C23   C     C_R   0.049179 0.501227 0.507049 0.029654
C24   C     C_R   0.499504 0.499896 0.128854 -0.001305
C25   C     C_R   0.095352 0.577365 0.451443 -0.115661
C26   C     C_R   0.905243 0.414068 0.490950 -0.110572
C27   C     C_R   0.905131 0.587433 0.520670 -0.133809
C28   C     C_R   0.096504 0.425008 0.561713 -0.115333
C29   C     C_R   0.187149 0.577268 0.450394 -0.122503
C30   C     C_R   0.813400 0.413724 0.490096 -0.106329
C31   C     C_R   0.813280 0.587304 0.517422 -0.138262
C32   C     C_R   0.188332 0.423944 0.558188 -0.115582
C33   C     C_R   0.233894 0.500084 0.502483 0.016789
C34   C     C_R   0.951939 0.500887 0.506547 0.029595
C35   C     C_R   0.766826 0.500398 0.502403 0.023016
C36   C     C_3   0.816628 0.316201 0.189372 -0.316817
C37   C     C_3   0.184549 0.655629 0.775253 -0.307858
C38   C     C_3   0.864381 0.500477 0.833359 -0.314680
C39   C     C_3   0.168260 0.683300 0.143019 -0.319885
C40   C     C_R   0.569146 0.108136 0.556067 -0.142906
C41   C     C_R   0.456519 0.891784 0.405921 -0.144078
C42   C     C_R   0.430866 0.107709 0.443807 -0.142287
C43   C     C_R   0.543315 0.892242 0.594096 -0.143924
C44   C     C_R   0.567514 0.209584 0.555893 0.044374
Cu1   Cu    Cu3+1 0.500000 0.596430 0.500000 0.918320
Cu2   Cu    Cu3+1 0.500000 0.403570 0.500000 0.925394
H1    H     H_    0.338067 0.544502 0.224696 0.138863
H2    H     H_    0.778990 0.345704 0.478441 0.114299
H3    H     H_    0.778772 0.655053 0.528617 0.124583
H4    H     H_    0.223764 0.364600 0.600824 0.122537
H5    H     H_    0.625161 0.072400 0.598754 0.085718
H6    H     H_    0.423319 0.927504 0.329576 0.086360
H7    H     H_    0.374845 0.071635 0.401106 0.084986
H8    H     H_    0.576454 0.928329 0.670462 0.087944
H9    H     H_    0.620888 0.248948 0.600447 0.123066
H10   H     H_    0.422469 0.750842 0.335701 0.118892
H11   H     H_    0.379136 0.248202 0.399556 0.124436
H12   H     H_    0.663240 0.461576 0.774704 0.137541
H13   H     H_    0.577297 0.751656 0.664453 0.121591
H14   H     H_    0.872254 0.435422 0.103354 0.253266
H15   H     H_    0.876940 0.306910 0.247656 0.138539
H16   H     H_    0.818706 0.263686 0.111576 0.135245
H17   H     H_    0.757920 0.301221 0.247316 0.156320
H18   H     H_    0.124313 0.565151 0.902032 0.246747
H19   H     H_    0.121478 0.659072 0.721737 0.141693
H20   H     H_    0.239377 0.650604 0.708131 0.165323
H21   H     H_    0.192015 0.722886 0.830392 0.132199
H22   H     H_    0.855153 0.364341 0.912278 0.250225
H23   H     H_    0.338647 0.531489 0.767106 0.138461
H24   H     H_    0.920679 0.477443 0.775296 0.155769
H25   H     H_    0.890796 0.540617 0.914966 0.129467
H26   H     H_    0.821232 0.548897 0.777645 0.161500
H27   H     H_    0.129493 0.542380 0.101919 0.245298
H28   H     H_    0.154468 0.717791 0.052102 0.144548
H29   H     H_    0.226184 0.718903 0.188059 0.143530
H30   H     H_    0.109881 0.693539 0.202918 0.131450
H31   H     H_    0.659662 0.454363 0.232680 0.147341
H32   H     H_    0.060586 0.636391 0.407339 0.099467
H33   H     H_    0.939564 0.346483 0.477690 0.093420
H34   H     H_    0.939364 0.655133 0.535824 0.095628
H35   H     H_    0.062687 0.366612 0.607991 0.099200
H36   H     H_    0.221620 0.636702 0.407240 0.124384
N1    N     N_R   0.500000 0.258690 0.500000 -0.219490
N2    N     N_R   0.500000 0.741310 0.500000 -0.218790
N3    N     N_2   0.813514 0.413598 0.141965 -0.520183
N4    N     N_2   0.183286 0.572588 0.856388 -0.522504
N5    N     N_2   0.815432 0.416612 0.873066 -0.529851
N6    N     N_2   0.184853 0.581438 0.127165 -0.524587
O1    O     O_R   0.371460 0.581430 0.500010 -0.515474
O2    O     O_R   0.628540 0.418570 0.499990 -0.522030
O3    O     O_R   0.628540 0.581430 0.499990 -0.502825
O4    O     O_R   0.371460 0.418570 0.500010 -0.510285
O5    O     O_R   0.499990 0.581440 0.319660 -0.507270
O6    O     O_R   0.500010 0.418560 0.680340 -0.495977
O7    O     O_R   0.500010 0.581440 0.680340 -0.511309
O8    O     O_R   0.499990 0.418560 0.319660 -0.499131

loop_
_geom_bond_atom_site_label_1
_geom_bond_atom_site_label_2
_ccdc_geom_bond_type
C5    C42   A    
C38   H24   S    
C3    C42   A    
C12   O3    A    
C2    N2    A    
C44   N1    A    
Cu1   O5    S    
C1    C33   S    
C11   C18   A    
Cu1   Cu2   S    
C7    O8    A    
C30   C35   A    
C17   N3    S    
C30   H2    S    
C10   H12   S    
C10   C15   A    
C42   H7    S    
C5    C6    S    
Cu2   O4    S    
C2    C41   A    
C7    C24   S    
C29   C33   A    
C39   H28   S    
C31   C35   A    
C9    C20   A    
C26   C34   A    
C20   C24   A    
C6    C41   A    
Cu2   O6    S    
C8    C22   S    
C39   H29   S    
C36   H17   S    
Cu1   O1    S    
C41   H6    S    
C27   C34   A    
C21   C22   A    
C16   N4    S    
C8    O7    A    
C39   N6    S    
C31   H3    S    
C36   H16   S    
H18   N4    S    
C13   H31   S    
C10   C21   A    
C25   C29   A    
C7    O5    A    
C38   H26   S    
C13   C19   A    
C27   C31   A    
C25   H32   S    
C37   N4    S    
C28   C32   A    
C8    O6    A    
C27   H34   S    
C23   C28   A    
C37   H19   S    
C9    C14   A    
H27   N6    S    
C11   C16   A    
C43   H8    S    
C4    N2    A    
C23   C34   S    
C37   H20   S    
C39   H30   S    
C12   C35   S    
C32   H4    S    
C3    H11   S    
C26   C30   A    
C1    O4    A    
C6    C43   A    
C3    N1    A    
C14   C16   A    
Cu1   N2    S    
C36   H15   S    
Cu1   O7    S    
C15   N5    S    
C12   O2    A    
C15   C17   A    
C38   H25   S    
C1    O1    A    
C19   C21   A    
C28   H35   S    
C18   C22   A    
H14   N3    S    
C11   H23   S    
C9    H1    S    
Cu2   O2    S    
C4    C43   A    
C36   N3    S    
C40   H5    S    
C26   H33   S    
C13   C17   A    
C38   N5    S    
C32   C33   A    
C19   C24   A    
C14   N6    S    
C29   H36   S    
C2    H10   S    
C44   H9    S    
C37   H21   S    
C4    H13   S    
C18   C20   A    
C23   C25   A    
Cu1   O3    S    
Cu2   N1    S    
C40   C44   A    
Cu2   O8    S    
C5    C40   A    
H22   N5    S    
