data_mof_unit_17974.cif
_audit_creation_date              2012-12-10T20:38:20-0500
_audit_creation_method            fapswitch 2.2
_symmetry_space_group_name_H-M    P1
_symmetry_Int_Tables_number       1
_space_group_crystal_system       triclinic
_cell_length_a                    9.852669
_cell_length_b                    10.684482
_cell_length_c                    16.617558
_cell_angle_alpha                 90.102785
_cell_angle_beta                  85.371489
_cell_angle_gamma                 90.149822
_cell_volume                      1743.62834489

loop_
_atom_site_label
_atom_site_type_symbol
_atom_type_description
_atom_site_fract_x
_atom_site_fract_y
_atom_site_fract_z
_atom_type_partial_charge
C1    C     C_R   0.499720 0.740053 0.501690 0.885877
C2    C     C_R   0.343177 0.539638 0.783136 -0.201121
C3    C     C_R   0.442452 0.695206 0.166794 0.125019
C4    C     C_R   0.431897 0.641618 0.243065 -0.200200
C5    C     C_R   0.642069 0.527050 0.211480 -0.212342
C6    C     C_R   0.652177 0.578514 0.134453 -0.182197
C7    C     C_R   0.550280 0.658714 0.110925 0.150144
C8    C     C_2   0.444293 0.619075 0.989274 -0.237987
C9    C     C_2   0.543409 0.678361 0.024795 -0.258735
C10   C     C_R   0.528917 0.554532 0.264715 -0.069752
C11   C     C_R   0.376681 0.935887 0.501384 0.084366
C12   C     C_R   0.481357 0.501784 0.653750 0.857051
C13   C     C_R   0.496569 0.871658 0.512067 -0.092724
C14   C     C_R   0.610493 0.935804 0.536533 -0.223291
C15   C     C_R   0.610436 0.065233 0.536674 -0.220676
C16   C     C_R   0.496104 0.128583 0.512640 -0.134931
C17   C     C_R   0.376200 0.063673 0.502172 0.140676
C18   C     C_3   0.284668 0.070422 0.434583 -0.093175
C19   C     C_3   0.285298 0.927963 0.433797 -0.536991
C20   C     C_R   0.919939 0.540011 0.566317 0.220871
C21   C     C_R   0.936326 0.449459 0.437628 -0.136125
C22   C     C_R   0.080360 0.449469 0.437617 -0.111846
C23   C     C_R   0.499501 0.260012 0.501883 0.882066
C24   C     C_R   0.062529 0.539598 0.566427 0.218741
C25   C     C_3   0.064353 0.666272 0.603896 -0.514478
C26   C     C_3   0.910380 0.667361 0.603077 -0.522778
C27   C     C_R   0.518567 0.507339 0.346821 0.860233
C28   C     C_R   0.470686 0.520842 0.740882 -0.032613
C29   C     C_R   0.589725 0.531962 0.781187 -0.216568
C30   C     C_R   0.581943 0.566020 0.861812 -0.153434
C31   C     C_R   0.454844 0.589800 0.903229 0.210510
C32   C     C_R   0.335464 0.573287 0.864231 -0.182481
H1    H     H_    0.689259 0.516322 0.750241 0.151625
H2    H     H_    0.735079 0.549920 0.091579 0.134953
H3    H     H_    0.701379 0.887028 0.550948 0.159476
H4    H     H_    0.701578 0.114777 0.550912 0.171162
H5    H     H_    0.333191 0.114597 0.378833 0.158219
H6    H     H_    0.185514 0.884080 0.452918 0.200859
H7    H     H_    0.337515 0.887936 0.377757 0.193730
H8    H     H_    0.888842 0.410603 0.386682 0.145368
H9    H     H_    0.099322 0.663493 0.665788 0.195755
H10   H     H_    0.348546 0.669535 0.285873 0.161784
H11   H     H_    0.116091 0.737284 0.563344 0.217112
H12   H     H_    0.856514 0.666511 0.664465 0.197618
H13   H     H_    0.873583 0.738208 0.561233 0.210510
H14   H     H_    0.720052 0.463398 0.228704 0.144496
H15   H     H_    0.632283 0.715570 0.989885 0.153089
H16   H     H_    0.236606 0.587959 0.896315 0.123281
H17   H     H_    0.675386 0.571338 0.891706 0.122693
N1    N     N_R   0.857140 0.500860 0.500530 -0.105873
N2    N     N_R   0.142780 0.500820 0.500530 -0.105410
O1    O     O_R   0.385310 0.683210 0.499990 -0.617368
O2    O     O_R   0.614650 0.683240 0.500000 -0.619896
O3    O     O_R   0.371780 0.500000 0.615800 -0.617219
O4    O     O_R   0.601120 0.500040 0.615800 -0.619019
O5    O     O_R   0.385350 0.316760 0.500000 -0.595472
O6    O     O_R   0.614690 0.316790 0.500010 -0.620676
O7    O     O_R   0.398880 0.499960 0.384200 -0.625676
O8    O     O_R   0.628220 0.500000 0.384200 -0.613325
Zn1   Zn    Zn3+2 0.346870 0.499980 0.499990 0.948122
Zn2   Zn    Zn3+2 0.653130 0.500020 0.500010 0.942014
N3    N     N_3   0.151947 0.124554 0.460790 -0.429252
H18   H     H_    0.086855 0.108399 0.415180 0.185537
H19   H     H_    0.109666 0.079169 0.512734 0.196196
H20   H     H_    0.141404 0.410511 0.386677 0.152629
N4    N     N_3   0.343904 0.786793 0.147768 -0.476530
H21   H     H_    0.287467 0.752598 0.101947 0.186650
H22   H     H_    0.395896 0.867154 0.126600 0.189545
H23   H     H_    0.249870 0.530883 0.753305 0.148807
H24   H     H_    0.358482 0.578804 0.025749 0.153378

loop_
_geom_bond_atom_site_label_1
_geom_bond_atom_site_label_2
_ccdc_geom_bond_type
C10   C27   S    
C32   H16   S    
N4    H22   S    
C22   H20   S    
O6    Zn2   S    
N3    H18   S    
C19   H6    S    
C2    H23   S    
C2    C28   A    
C5    H14   S    
C8    H24   S    
C31   C32   A    
C27   O8    A    
C30   C31   A    
C6    H2    S    
C7    C9    S    
C25   H11   S    
C24   N2    A    
N4    H21   S    
C25   C26   S    
C26   H12   S    
C23   O5    A    
O3    Zn1   S    
C21   C22   A    
C11   C13   A    
C11   C19   S    
C6    C7    A    
C21   H8    S    
C4    H10   S    
C12   C28   S    
O4    Zn2   S    
C2    C32   A    
C21   N1    A    
C30   H17   S    
C17   C18   S    
C16   C23   S    
C3    C7    A    
C5    C10   A    
C5    C6    A    
C1    O1    A    
O8    Zn2   S    
C9    H15   S    
C1    C13   S    
C19   H7    S    
C29   C30   A    
C15   C16   A    
C3    N4    S    
C16   C17   A    
C29   H1    S    
C15   H4    S    
C12   O4    A    
O5    Zn1   S    
C24   C25   S    
C28   C29   A    
O2    Zn2   S    
C20   N1    A    
C18   C19   S    
C25   H9    S    
C14   H3    S    
C23   O6    A    
N1    Zn2   S    
C1    O2    A    
C14   C15   A    
C22   N2    A    
N3    H19   S    
N2    Zn1   S    
O1    Zn1   S    
C26   H13   S    
C18   N3    S    
C13   C14   A    
C8    C31   S    
O7    Zn1   S    
C20   C24   A    
C12   O3    A    
C3    C4    A    
C4    C10   A    
C18   H5    S    
C8    C9    D    
C20   C26   S    
C27   O7    A    
C11   C17   A    
