data_mof_unit_35256.cif
_audit_creation_date              2012-12-11T15:26:32-0500
_audit_creation_method            fapswitch 2.2
_symmetry_space_group_name_H-M    P1
_symmetry_Int_Tables_number       1
_space_group_crystal_system       triclinic
_cell_length_a                    7.222442
_cell_length_b                    12.099362
_cell_length_c                    29.219344
_cell_angle_alpha                 89.969294
_cell_angle_beta                  90.004879
_cell_angle_gamma                 89.999866
_cell_volume                      2553.38869326

loop_
_atom_site_label
_atom_site_type_symbol
_atom_type_description
_atom_site_fract_x
_atom_site_fract_y
_atom_site_fract_z
_atom_type_partial_charge
O1    O     O_R   0.647170 0.849180 0.201220 -0.526835
O2    O     O_R   0.352830 0.150820 0.798780 -0.526837
O3    O     O_R   0.352830 0.150820 0.701220 -0.532988
O4    O     O_R   0.647170 0.849180 0.298780 -0.532987
O5    O     O_R   0.147170 0.650820 0.298780 -0.526885
O6    O     O_R   0.852830 0.349180 0.701220 -0.526885
O7    O     O_R   0.852830 0.349180 0.798780 -0.532992
O8    O     O_R   0.147170 0.650820 0.201220 -0.532994
O9    O     O_R   0.317430 0.862210 0.298450 -0.539284
O10   O     O_R   0.682570 0.137790 0.701550 -0.539284
O11   O     O_R   0.682570 0.137790 0.798450 -0.542699
O12   O     O_R   0.317430 0.862210 0.201550 -0.542701
O13   O     O_R   0.817430 0.637790 0.201550 -0.539289
O14   O     O_R   0.182570 0.362210 0.798450 -0.539286
O15   O     O_R   0.182570 0.362210 0.701550 -0.542686
O16   O     O_R   0.817430 0.637790 0.298450 -0.542686
H1    H     H_    0.009494 0.224306 0.454239 0.143853
H2    H     H_    0.990512 0.775694 0.545761 0.143854
H3    H     H_    0.929422 0.772290 0.953881 0.146437
H4    H     H_    0.070556 0.227708 0.046119 0.146442
H5    H     H_    0.508323 0.275727 0.045763 0.143857
H6    H     H_    0.491465 0.724308 0.954248 0.143852
H7    H     H_    0.428830 0.727762 0.546112 0.146422
H8    H     H_    0.571157 0.272242 0.453887 0.146422
C1    C     C_R   0.485740 0.887697 0.313323 0.769927
C2    C     C_R   0.514260 0.112303 0.686677 0.769927
C3    C     C_R   0.514440 0.112294 0.813356 0.764194
C4    C     C_R   0.485560 0.887708 0.186645 0.764185
C5    C     C_R   0.985728 0.612305 0.186676 0.769951
C6    C     C_R   0.014272 0.387695 0.813323 0.769953
C7    C     C_R   0.014427 0.387712 0.686647 0.764232
C8    C     C_R   0.985573 0.612288 0.313353 0.764234
H9    H     H_    0.048901 0.609024 0.690216 0.126663
H10   H     H_    0.951100 0.390976 0.309785 0.126663
H11   H     H_    0.993408 0.390106 0.190681 0.126520
H12   H     H_    0.006588 0.609895 0.809319 0.126520
H13   H     H_    0.549661 0.891030 0.809802 0.126680
H14   H     H_    0.450326 0.108971 0.190209 0.126676
H15   H     H_    0.493784 0.109895 0.309317 0.126522
H16   H     H_    0.506212 0.890105 0.690682 0.126523
H17   H     H_    0.962120 0.261165 0.373966 0.141717
H18   H     H_    0.037884 0.738835 0.626035 0.141717
H19   H     H_    0.976577 0.738531 0.873461 0.142326
H20   H     H_    0.023414 0.261469 0.126540 0.142328
H21   H     H_    0.460988 0.238801 0.126031 0.141713
H22   H     H_    0.538914 0.761215 0.873984 0.141714
H23   H     H_    0.476031 0.761486 0.626537 0.142331
H24   H     H_    0.523961 0.238516 0.373462 0.142330
O17   O     O_3   0.480630 0.680630 0.250000 -0.388017
O18   O     O_3   0.519370 0.319370 0.750000 -0.388016
O19   O     O_3   0.980630 0.819370 0.250000 -0.387998
O20   O     O_3   0.019370 0.180630 0.750000 -0.387999
V1    V     V_3+5 0.205800 0.762860 0.250000 1.536907
V2    V     V_3+5 0.794200 0.237140 0.750000 1.536914
V3    V     V_3+5 0.705800 0.737140 0.250000 1.536945
V4    V     V_3+5 0.294200 0.262860 0.750000 1.536949
H25   H     H_    0.048881 0.283305 0.530704 0.221126
H26   H     H_    0.951126 0.716696 0.469297 0.221127
H27   H     H_    0.904436 0.711207 0.030448 0.229011
H28   H     H_    0.095549 0.288790 0.969552 0.229001
H29   H     H_    0.547969 0.216782 0.969301 0.221079
H30   H     H_    0.451794 0.783272 0.030709 0.221063
H31   H     H_    0.404002 0.788868 0.469543 0.228987
H32   H     H_    0.595984 0.211137 0.530456 0.228989
C9    C     C_R   0.991192 0.535206 0.351946 -0.111499
C10   C     C_R   0.008808 0.464794 0.648054 -0.111499
C11   C     C_R   0.006818 0.464427 0.851953 -0.114339
C12   C     C_R   0.993182 0.535573 0.148047 -0.114339
C13   C     C_R   0.491120 0.964801 0.148055 -0.111508
C14   C     C_R   0.508873 0.035212 0.851949 -0.111503
C15   C     C_R   0.506766 0.035572 0.648046 -0.114335
C16   C     C_R   0.493234 0.964429 0.351953 -0.114335
C17   C     C_R   0.972615 0.348997 0.380831 -0.157124
C18   C     C_R   0.027388 0.651003 0.619170 -0.157125
C19   C     C_R   0.987292 0.650770 0.880499 -0.154586
C20   C     C_R   0.012701 0.349230 0.119502 -0.154589
C21   C     C_R   0.471856 0.150985 0.119168 -0.157167
C22   C     C_R   0.528066 0.849033 0.880843 -0.157164
C23   C     C_R   0.486918 0.849240 0.619500 -0.154550
C24   C     C_R   0.513076 0.150761 0.380499 -0.154550
C25   C     C_R   0.967925 0.422380 0.344257 -0.291764
C26   C     C_R   0.032076 0.577620 0.655743 -0.291763
C27   C     C_R   0.003138 0.577944 0.843959 -0.295140
C28   C     C_R   0.996858 0.422056 0.156041 -0.295139
C29   C     C_R   0.467375 0.077593 0.155739 -0.291676
C30   C     C_R   0.532596 0.922416 0.844270 -0.291689
C31   C     C_R   0.502864 0.922057 0.656041 -0.295145
C32   C     C_R   0.497133 0.077944 0.343958 -0.295143
C33   C     C_R   0.011839 0.575838 0.396611 0.577403
C34   C     C_R   0.988162 0.424162 0.603388 0.577403
C35   C     C_R   0.001252 0.423034 0.896783 0.578480
C36   C     C_R   0.998748 0.576965 0.103217 0.578463
C37   C     C_R   0.512021 0.924202 0.103393 0.577354
C38   C     C_R   0.487946 0.075824 0.896609 0.577379
C39   C     C_R   0.501328 0.076967 0.603216 0.578469
C40   C     C_R   0.498673 0.923035 0.396784 0.578467
C41   C     C_R   0.998131 0.503493 0.435000 -0.037246
C42   C     C_R   0.001872 0.496508 0.565000 -0.037245
C43   C     C_R   0.001234 0.496226 0.935005 -0.042068
C44   C     C_R   0.998761 0.503772 0.064995 -0.042065
C45   C     C_R   0.498054 0.996528 0.065003 -0.037210
C46   C     C_R   0.501854 0.003505 0.935003 -0.037215
C47   C     C_R   0.501201 0.003773 0.564995 -0.042061
C48   C     C_R   0.498795 0.996230 0.435005 -0.042061
C49   C     C_R   0.989717 0.388214 0.425814 0.067782
C50   C     C_R   0.010286 0.611787 0.574186 0.067783
C51   C     C_R   0.983450 0.611075 0.925624 0.067128
C52   C     C_R   0.016541 0.388924 0.074377 0.067134
C53   C     C_R   0.489178 0.111794 0.074187 0.067834
C54   C     C_R   0.510710 0.888235 0.925822 0.067814
C55   C     C_R   0.483181 0.888937 0.574374 0.067113
C56   C     C_R   0.516813 0.111065 0.425625 0.067113
C57   C     C_R   0.995887 0.539868 0.481830 0.063726
C58   C     C_R   0.004116 0.460133 0.518169 0.063725
C59   C     C_R   0.012574 0.460687 0.981882 0.060101
C60   C     C_R   0.987418 0.539311 0.018118 0.060093
C61   C     C_R   0.495960 0.960148 0.018173 0.063751
C62   C     C_R   0.503911 0.039891 0.981833 0.063767
C63   C     C_R   0.512646 0.039304 0.518118 0.060071
C64   C     C_R   0.487348 0.960700 0.481881 0.060071
C65   C     C_R   0.019975 0.347373 0.506296 -0.113126
C66   C     C_R   0.980030 0.652628 0.493704 -0.113128
C67   C     C_R   0.947072 0.649823 0.006109 -0.112539
C68   C     C_R   0.052915 0.350175 0.993892 -0.112543
C69   C     C_R   0.519322 0.152673 0.993707 -0.113162
C70   C     C_R   0.480496 0.847368 0.006301 -0.113110
C71   C     C_R   0.446761 0.850218 0.493887 -0.112496
C72   C     C_R   0.553230 0.149786 0.506113 -0.112499
C73   C     C_R   0.004549 0.312240 0.461355 -0.209226
C74   C     C_R   0.995456 0.687761 0.538645 -0.209229
C75   C     C_R   0.954054 0.685579 0.961108 -0.205309
C76   C     C_R   0.045930 0.314419 0.038892 -0.205310
C77   C     C_R   0.503737 0.187786 0.038647 -0.209280
C78   C     C_R   0.496089 0.812248 0.961363 -0.209244
C79   C     C_R   0.453648 0.814455 0.538888 -0.205252
C80   C     C_R   0.546342 0.185548 0.461111 -0.205253
F1    F     F_    0.943366 0.315798 0.599133 -0.696272
F2    F     F_    0.056634 0.684202 0.400867 -0.696273
F3    F     F_    0.019230 0.687838 0.098603 -0.693309
F4    F     F_    0.980777 0.312160 0.901396 -0.693299
F5    F     F_    0.442749 0.184130 0.900852 -0.696267
F6    F     F_    0.557258 0.815902 0.099141 -0.696255
F7    F     F_    0.518944 0.812149 0.401401 -0.693319
F8    F     F_    0.481061 0.187853 0.598599 -0.693320

loop_
_geom_bond_atom_site_label_1
_geom_bond_atom_site_label_2
_ccdc_geom_bond_type
C7    C10   S    
O14   V4    S    
C11   C27   A    
C60   C67   A    
C4    C13   S    
C44   C60   A    
H23   C23   S    
C19   C27   A    
C20   C28   A    
H17   C17   S    
C23   C31   A    
O4    C1    A    
C64   C71   A    
O9    C1    A    
C10   C34   A    
C9    C33   A    
H6    C78   S    
O8    C5    A    
H16   C31   S    
O5    V1    S    
C14   C38   A    
C71   C79   A    
C13   C37   A    
C72   C80   A    
C43   C59   A    
C42   C58   A    
C15   C39   A    
H12   C27   S    
C45   C53   A    
C59   C60   A    
C68   C76   A    
C47   C55   A    
H5    C77   S    
H20   C20   S    
C58   C65   A    
C9    C25   A    
C57   C66   A    
C39   C47   A    
H32   C72   S    
O1    C4    A    
O2    C3    A    
C19   C51   A    
C62   C69   A    
C61   C70   A    
C6    C11   S    
C46   C62   A    
O5    C8    A    
C41   C49   A    
C63   C72   A    
H8    C80   S    
O6    C7    A    
C21   C29   A    
C39   F8    S    
C20   C52   A    
O7    C6    A    
H3    C75   S    
C2    C15   S    
H15   C32   S    
C56   C80   A    
C17   C25   A    
C16   C32   A    
O20   V2    S    
H27   C67   S    
C44   C52   A    
H26   C66   S    
H14   C29   S    
C53   C77   A    
C12   C28   A    
H13   C30   S    
C51   C75   A    
C37   C45   A    
H22   C22   S    
C49   C73   A    
O17   V3    S    
H1    C73   S    
O18   V4    S    
C33   C41   A    
O19   V1    S    
H4    C76   S    
C18   C50   A    
C5    C12   S    
O3    V4    S    
C17   C49   A    
O11   C3    A    
H11   C28   S    
C69   C77   A    
C24   C56   A    
C11   C35   A    
O10   C2    A    
H7    C79   S    
C22   C54   A    
C1    C16   S    
C21   C53   A    
O11   V2    S    
C33   F2    S    
C38   C46   A    
H18   C18   S    
C15   C31   A    
H30   C70   S    
H10   C25   S    
O12   C4    A    
O6    V2    S    
C40   C48   A    
O4    V3    S    
H2    C74   S    
O9    V1    S    
C41   C57   A    
C14   C30   A    
C34   F1    S    
C13   C29   A    
C36   C44   A    
H19   C19   S    
C48   C56   A    
C57   C58   A    
C18   C26   A    
O13   C5    A    
C50   C74   A    
C59   C68   A    
C67   C75   A    
C38   F5    S    
O3    C2    A    
C47   C63   A    
O12   V1    S    
C65   C73   A    
O8    V1    S    
H21   C21   S    
C63   C64   A    
O15   C7    A    
C3    C14   S    
O16   C8    A    
C43   C51   A    
C42   C50   A    
C23   C55   A    
C45   C61   A    
O15   V4    S    
H24   C24   S    
O1    V3    S    
O16   V3    S    
O14   C6    A    
C24   C32   A    
O2    V4    S    
C61   C62   A    
C40   F7    S    
C55   C79   A    
C46   C54   A    
C12   C36   A    
C34   C42   A    
O10   V2    S    
H9    C26   S    
O13   V3    S    
C52   C76   A    
C54   C78   A    
H25   C65   S    
C35   F4    S    
C16   C40   A    
C70   C78   A    
C22   C30   A    
H28   C68   S    
H29   C69   S    
O7    V2    S    
C35   C43   A    
C36   F3    S    
C66   C74   A    
H31   C71   S    
C37   F6    S    
C10   C26   A    
C8    C9    S    
C48   C64   A    
