data_mof_unit_22104.cif
_audit_creation_date              2012-12-11T16:13:59-0500
_audit_creation_method            fapswitch 2.2
_symmetry_space_group_name_H-M    P1
_symmetry_Int_Tables_number       1
_space_group_crystal_system       triclinic
_cell_length_a                    26.074864
_cell_length_b                    7.243244
_cell_length_c                    23.875679
_cell_angle_alpha                 89.999954
_cell_angle_beta                  101.374062
_cell_angle_gamma                 89.999947
_cell_volume                      4420.75785533

loop_
_atom_site_label
_atom_site_type_symbol
_atom_type_description
_atom_site_fract_x
_atom_site_fract_y
_atom_site_fract_z
_atom_type_partial_charge
O1    O     O_R   0.192370 0.384760 0.193350 -0.533708
O2    O     O_R   0.807630 0.615240 0.806650 -0.533724
O3    O     O_R   0.307630 0.884760 0.306650 -0.533715
O4    O     O_R   0.692370 0.115240 0.693350 -0.533720
O5    O     O_R   0.296630 0.711620 0.196480 -0.508765
O6    O     O_R   0.703370 0.288380 0.803520 -0.508795
O7    O     O_R   0.203370 0.211620 0.303520 -0.508794
O8    O     O_R   0.796630 0.788380 0.696480 -0.508778
C1    C     C_R   0.312036 0.545917 0.183514 0.719499
C2    C     C_R   0.687962 0.454082 0.816484 0.719851
C3    C     C_R   0.187963 0.045917 0.316486 0.719417
C4    C     C_R   0.812038 0.954082 0.683516 0.719899
O9    O     O_R   0.192080 0.714290 0.186600 -0.530355
O10   O     O_R   0.807920 0.285710 0.813400 -0.530330
O11   O     O_R   0.307920 0.214290 0.313400 -0.530339
O12   O     O_R   0.692080 0.785710 0.686600 -0.530340
O13   O     O_R   0.202340 0.887460 0.296690 -0.544661
O14   O     O_R   0.797660 0.112540 0.703310 -0.544609
O15   O     O_R   0.297660 0.387460 0.203310 -0.544654
O16   O     O_R   0.702340 0.612540 0.796690 -0.544614
C5    C     C_R   0.173753 0.545813 0.171390 0.697217
C6    C     C_R   0.826249 0.454186 0.828607 0.697306
C7    C     C_R   0.326248 0.045813 0.328610 0.697177
C8    C     C_R   0.673751 0.954186 0.671393 0.697330
O17   O     O_3   0.253490 0.552180 0.286130 -0.379487
O18   O     O_3   0.746510 0.447820 0.713870 -0.379540
O19   O     O_3   0.246510 0.052180 0.213870 -0.379472
O20   O     O_3   0.753490 0.947820 0.786130 -0.379549
V1    V     V_3+5 0.249350 0.825920 0.243300 1.504520
V2    V     V_3+5 0.750650 0.174080 0.756700 1.505467
V3    V     V_3+5 0.250650 0.325920 0.256700 1.504548
V4    V     V_3+5 0.749350 0.674080 0.743300 1.505450
C9    C     C_3   0.537418 0.909478 0.481013 0.404129
C10   C     C_3   0.462415 0.090576 0.519181 0.358031
C11   C     C_3   0.962582 0.409480 0.018987 0.404127
C12   C     C_3   0.037585 0.590577 0.980819 0.358037
C13   C     C_3   0.511831 0.090750 0.455948 0.396969
C14   C     C_3   0.488020 0.909197 0.544262 0.350652
C15   C     C_3   0.988169 0.590752 0.044051 0.396968
C16   C     C_3   0.011981 0.409198 0.955737 0.350654
H1    H     H_    0.530704 0.313225 0.530325 0.244795
H2    H     H_    0.469204 0.686773 0.469793 0.244810
H3    H     H_    0.969296 0.813226 0.969674 0.244796
H4    H     H_    0.030797 0.186775 0.030207 0.244809
C17   C     C_1   0.371903 0.036060 0.374331 -0.109623
C18   C     C_1   0.628072 0.963936 0.625700 -0.109252
C19   C     C_1   0.128097 0.536061 0.125669 -0.109625
C20   C     C_1   0.871929 0.463936 0.874300 -0.109251
C21   C     C_3   0.482873 0.828048 0.483287 -0.306319
C22   C     C_3   0.516998 0.171951 0.516879 -0.305915
C23   C     C_3   0.017128 0.328049 0.016713 -0.306321
C24   C     C_3   0.983002 0.671952 0.983120 -0.305914
C25   C     C_3   0.457464 0.012104 0.458400 -0.203545
C26   C     C_3   0.542414 0.987896 0.541756 -0.203562
C27   C     C_3   0.042536 0.512105 0.041600 -0.203544
C28   C     C_3   0.957586 0.487897 0.958244 -0.203564
C29   C     C_1   0.410376 0.025728 0.412260 0.227350
C30   C     C_1   0.589565 0.974269 0.587814 0.227396
C31   C     C_1   0.089625 0.525729 0.087740 0.227345
C32   C     C_1   0.910435 0.474269 0.912185 0.227398
C33   C     C_R   0.877356 0.126753 0.638849 -0.189529
C34   C     C_R   0.122658 0.873231 0.361167 -0.191290
C35   C     C_R   0.622649 0.626765 0.861156 -0.189509
C36   C     C_R   0.377351 0.373248 0.138843 -0.191320
H5    H     H_    0.871596 0.247571 0.663612 0.180780
H6    H     H_    0.128421 0.752407 0.336409 0.180557
H7    H     H_    0.628414 0.747588 0.836398 0.180803
H8    H     H_    0.371596 0.252434 0.163609 0.180519
C37   C     C_R   0.913827 0.137063 0.603059 -0.106882
C38   C     C_R   0.086192 0.862915 0.396962 -0.108566
C39   C     C_R   0.586179 0.637080 0.896946 -0.106902
C40   C     C_R   0.413818 0.362937 0.103048 -0.108534
H9    H     H_    0.934627 0.265563 0.601121 0.164952
H10   H     H_    0.065397 0.734407 0.398907 0.164736
H11   H     H_    0.565383 0.765587 0.898889 0.164959
H12   H     H_    0.434621 0.234441 0.101111 0.164722
C41   C     C_R   0.923809 0.983338 0.570912 -0.044124
C42   C     C_R   0.076207 0.016645 0.429106 -0.043939
C43   C     C_R   0.576192 0.483350 0.929089 -0.044149
C44   C     C_R   0.423794 0.516658 0.070896 -0.043896
C45   C     C_R   0.895541 0.820170 0.574623 -0.201275
C46   C     C_R   0.104468 0.179822 0.425387 -0.200717
C47   C     C_R   0.604453 0.320172 0.925373 -0.201220
C48   C     C_R   0.395523 0.679820 0.074604 -0.200812
H13   H     H_    0.902351 0.699291 0.550399 0.156854
H14   H     H_    0.097660 0.300704 0.449611 0.157185
H15   H     H_    0.597641 0.199289 0.949594 0.156881
H16   H     H_    0.402326 0.800694 0.050375 0.157137
C49   C     C_R   0.857795 0.809700 0.609253 0.417974
C50   C     C_R   0.142207 0.190302 0.390749 0.416975
C51   C     C_R   0.642198 0.309695 0.890741 0.417949
C52   C     C_R   0.357781 0.690289 0.109241 0.417016
C53   C     C_R   0.849363 0.962870 0.643367 -0.146645
C54   C     C_R   0.150643 0.037126 0.356640 -0.146308
C55   C     C_R   0.650637 0.462872 0.856633 -0.146663
C56   C     C_R   0.349357 0.537127 0.143361 -0.146276
N1    N     N_R   0.973490 0.842645 0.503259 -0.273020
N2    N     N_R   0.026528 0.157333 0.496762 -0.272319
N3    N     N_R   0.526513 0.342664 0.996745 -0.273023
N4    N     N_R   0.473471 0.657347 0.003237 -0.272319
N5    N     N_R   0.009121 0.850161 0.470196 -0.273299
N6    N     N_R   0.990898 0.149817 0.529825 -0.272491
N7    N     N_R   0.490883 0.350181 0.029809 -0.273306
N8    N     N_R   0.509101 0.649831 0.970174 -0.272489
C57   C     C_R   0.036482 0.007705 0.466192 0.550327
C58   C     C_R   0.963536 0.992274 0.533829 0.550687
C59   C     C_R   0.463519 0.507722 0.033810 0.550322
C60   C     C_R   0.536465 0.492289 0.966173 0.550691
S1    S     S_3+6 0.527313 0.215495 0.397173 0.113401
O21   O     O_2   0.514108 0.099652 0.344068 -0.296272
O22   O     O_2   0.495969 0.390923 0.389031 -0.298356
O23   O     O_3   0.591479 0.266011 0.410730 -0.437732
H17   H     H_    0.598193 0.319775 0.374724 0.375333
S2    S     S_3+6 0.473372 0.782205 0.603067 0.115295
O24   O     O_2   0.505090 0.607613 0.610428 -0.264693
O25   O     O_2   0.487250 0.895551 0.656662 -0.330242
O26   O     O_3   0.409396 0.728090 0.590491 -0.419103
H18   H     H_    0.392961 0.820084 0.612076 0.370140
S3    S     S_3+6 0.972687 0.715498 0.102826 0.113407
O27   O     O_2   0.985893 0.599656 0.155931 -0.296266
O28   O     O_2   0.004032 0.890926 0.110967 -0.298359
O29   O     O_3   0.908522 0.766012 0.089268 -0.437723
H19   H     H_    0.901808 0.819796 0.125273 0.375333
S4    S     S_3+6 0.026628 0.282205 0.896932 0.115293
O30   O     O_2   0.994910 0.107613 0.889572 -0.264693
O31   O     O_2   0.012751 0.395550 0.843337 -0.330244
O32   O     O_3   0.090605 0.228089 0.909509 -0.419109
H20   H     H_    0.107040 0.320082 0.887924 0.370137
S5    S     S_3+6 0.587579 0.785128 0.456304 0.095626
O33   O     O_2   0.636231 0.901280 0.464244 -0.316438
O34   O     O_2   0.598893 0.609703 0.490074 -0.310233
O35   O     O_3   0.567460 0.734627 0.386738 -0.429541
H21   H     H_    0.598533 0.681161 0.374708 0.375511
S6    S     S_3+6 0.412134 0.217197 0.542984 0.096554
O36   O     O_2   0.401494 0.391880 0.508738 -0.276558
O37   O     O_2   0.362943 0.103634 0.534330 -0.351421
O38   O     O_3   0.431366 0.271113 0.612479 -0.412013
H22   H     H_    0.414351 0.178964 0.633440 0.372707
S7    S     S_3+6 0.912422 0.285132 0.043696 0.095631
O39   O     O_2   0.863770 0.401285 0.035757 -0.316435
O40   O     O_2   0.901107 0.109707 0.009927 -0.310226
O41   O     O_3   0.932541 0.234631 0.113263 -0.429542
H23   H     H_    0.901466 0.181179 0.125294 0.375509
S8    S     S_3+6 0.087867 0.717197 0.957015 0.096543
O42   O     O_2   0.098507 0.891879 0.991262 -0.276570
O43   O     O_2   0.137058 0.603633 0.965670 -0.351427
O44   O     O_3   0.068635 0.771114 0.887521 -0.412015
H24   H     H_    0.085649 0.678963 0.866559 0.372705
O45   O     O_3   0.830961 0.645836 0.611155 -0.553624
C61   C     C_3   0.789495 0.638210 0.563182 0.080277
H25   H     H_    0.804359 0.644620 0.522549 0.132192
H26   H     H_    0.761438 0.753688 0.564259 0.132669
C62   C     C_3   0.760186 0.456853 0.563843 -0.599207
H27   H     H_    0.743152 0.447992 0.602805 0.226828
H28   H     H_    0.728004 0.448590 0.525761 0.217386
H29   H     H_    0.787204 0.338724 0.563098 0.204507
O46   O     O_3   0.169027 0.354189 0.388842 -0.554282
C63   C     C_3   0.210555 0.361691 0.436755 0.082839
H30   H     H_    0.238650 0.246437 0.435529 0.133825
H31   H     H_    0.195774 0.354783 0.477432 0.133988
C64   C     C_3   0.239766 0.543288 0.436173 -0.596704
H32   H     H_    0.212709 0.661193 0.437094 0.203797
H33   H     H_    0.272015 0.551404 0.474193 0.221242
H34   H     H_    0.256698 0.552704 0.397153 0.225905
O47   O     O_3   0.669021 0.145812 0.888835 -0.553634
C65   C     C_3   0.710516 0.138229 0.936780 0.080430
H35   H     H_    0.695693 0.144927 0.977434 0.132159
H36   H     H_    0.738600 0.253564 0.935624 0.132658
C66   C     C_3   0.739762 0.956718 0.936166 -0.599406
H37   H     H_    0.756739 0.947524 0.897172 0.226827
H38   H     H_    0.771980 0.948526 0.974214 0.217410
H39   H     H_    0.712716 0.838731 0.937010 0.204537
O48   O     O_3   0.330944 0.854147 0.111140 -0.554264
C67   C     C_3   0.289465 0.861725 0.063179 0.082585
H40   H     H_    0.261417 0.746232 0.064272 0.133849
H41   H     H_    0.304317 0.855306 0.022539 0.134037
C68   C     C_3   0.260149 0.043065 0.063841 -0.596368
H42   H     H_    0.287159 0.161211 0.063087 0.203738
H43   H     H_    0.227959 0.051300 0.025766 0.221206
H44   H     H_    0.243123 0.051925 0.102809 0.225911

loop_
_geom_bond_atom_site_label_1
_geom_bond_atom_site_label_2
_ccdc_geom_bond_type
O17   V3    S    
C6    C20   S    
O1    C5    A    
O46   C63   S    
C7    C17   S    
C27   C31   S    
O19   V1    S    
O13   V1    S    
C66   H37   S    
N3    N7    A    
O44   H24   S    
C52   C56   A    
C44   C48   A    
O15   V3    S    
S6    O38   S    
C39   C43   A    
S2    O24   D    
C14   C21   S    
O48   C67   S    
O7    C3    A    
N3    C60   A    
C44   C59   S    
C17   C29   T    
O5    C1    A    
O47   C65   S    
N2    C57   A    
C42   C57   S    
C36   H8    S    
O9    V1    S    
C41   C58   S    
S1    O22   D    
O16   V4    S    
C14   S2    S    
S7    O41   S    
C21   C25   S    
H3    C24   S    
C38   C42   A    
C10   S6    S    
C9    C21   S    
C35   C55   A    
O1    V3    S    
C34   C38   A    
O2    V4    S    
O3    V1    S    
C67   H40   S    
C63   C64   S    
C11   S7    S    
O3    C7    A    
C63   H31   S    
N4    N8    A    
C15   C27   S    
C2    O16   A    
O35   H21   S    
C16   C28   S    
C61   C62   S    
O2    C6    A    
C37   H9    S    
O14   V2    S    
C62   H28   S    
C13   S1    S    
C12   C24   S    
C40   H12   S    
S5    O35   S    
C45   C49   A    
O11   C7    A    
C15   C24   S    
O12   C8    A    
C18   C30   T    
C65   H36   S    
C66   H38   S    
C20   C32   T    
O10   V2    S    
S8    O44   S    
O23   H17   S    
C64   H33   S    
C1    O15   A    
C45   H13   S    
C50   C54   A    
O5    V1    S    
O29   H19   S    
S3    O28   D    
N5    C57   A    
C16   S4    S    
S7    O39   D    
C35   H7    S    
C10   C22   S    
O7    V3    S    
C34   H6    S    
O8    V4    S    
C12   C16   S    
C36   C56   A    
S8    O43   D    
S1    O21   D    
S1    O23   S    
C25   C29   S    
O18   V4    S    
S6    O37   D    
C68   H43   S    
C46   H14   S    
C51   C55   A    
C9    C13   S    
C28   C32   S    
C11   C15   S    
C13   C25   S    
C38   H10   S    
C42   C46   A    
C14   C26   S    
C41   C45   A    
O8    C4    A    
C68   H44   S    
N1    N5    A    
O9    C5    A    
C22   C26   S    
C62   H29   S    
C1    C56   S    
C67   C68   S    
C65   C66   S    
S4    O32   S    
N1    C58   A    
H4    C23   S    
O6    V2    S    
C35   C39   A    
C34   C54   A    
C11   C23   S    
C63   H30   S    
C66   H39   S    
C61   H26   S    
C4    C53   S    
O32   H20   S    
H1    C22   S    
N8    C60   A    
C64   H34   S    
C3    C54   S    
S4    O31   D    
S5    O33   D    
C26   C30   S    
S3    O29   S    
C9    S5    S    
C9    C26   S    
C3    O13   A    
N4    C59   A    
C11   C28   S    
C10   C14   S    
C51   O47   S    
C48   H16   S    
S8    O42   D    
C47   H15   S    
O6    C2    A    
S2    O25   D    
S3    O27   D    
O11   V3    S    
S6    O36   D    
C52   O48   S    
O12   V4    S    
C16   C23   S    
C47   C51   A    
O38   H22   S    
C46   C50   A    
C33   C37   A    
O10   C6    A    
C50   O46   S    
O20   V2    S    
C12   S8    S    
C8    C18   S    
C40   C44   A    
C12   C27   S    
N2    N6    A    
O26   H18   S    
C39   H11   S    
C13   C22   S    
S7    O40   D    
C37   C41   A    
C65   H35   S    
C64   H32   S    
C2    C55   S    
O4    C8    A    
C15   S3    S    
C49   O45   S    
C43   C60   S    
N6    C58   A    
C23   C27   S    
C36   C40   A    
C49   C53   A    
C67   H41   S    
S2    O26   S    
H2    C21   S    
C19   C31   T    
C43   C47   A    
C33   H5    S    
C10   C25   S    
C68   H42   S    
C4    O14   A    
O41   H23   S    
C61   H25   S    
N7    C59   A    
C48   C52   A    
S5    O34   D    
C62   H27   S    
O45   C61   S    
C33   C53   A    
O4    V2    S    
C24   C28   S    
S4    O30   D    
C5    C19   S    
