data_mof_unit_23124.cif
_audit_creation_date              2012-12-10T17:35:41-0500
_audit_creation_method            fapswitch 2.2
_symmetry_space_group_name_H-M    P1
_symmetry_Int_Tables_number       1
_space_group_crystal_system       triclinic
_cell_length_a                    10.532857
_cell_length_b                    12.114416
_cell_length_c                    12.784509
_cell_angle_alpha                 91.89493
_cell_angle_beta                  90.991499
_cell_angle_gamma                 86.019565
_cell_volume                      1626.28661268

loop_
_atom_site_label
_atom_site_type_symbol
_atom_type_description
_atom_site_fract_x
_atom_site_fract_y
_atom_site_fract_z
_atom_type_partial_charge
C1    C     C_R   0.499342 0.520966 0.699816 0.888402
C2    C     C_R   0.592190 0.157472 0.600905 0.297894
C3    C     C_R   0.527346 0.858325 0.557403 -0.103982
C4    C     C_R   0.454282 0.143356 0.453571 -0.095274
C5    C     C_R   0.523946 0.975657 0.547813 0.055752
C6    C     C_R   0.455719 0.026986 0.465581 0.061492
C7    C     C_R   0.742203 0.500364 0.500584 0.932901
C8    C     C_R   0.257652 0.499566 0.499741 0.927580
C9    C     C_3   0.962388 0.472161 0.594379 0.513343
C10   C     C_3   0.036686 0.526830 0.406892 0.510924
C11   C     C_3   0.038999 0.573551 0.575058 -0.402141
C12   C     C_R   0.500371 0.479117 0.300165 0.887596
C13   C     C_3   0.960349 0.425445 0.426586 -0.405327
C14   C     C_3   0.122866 0.497886 0.500703 -0.185326
C15   C     C_3   0.876771 0.501519 0.500418 -0.178802
C16   C     C_3   0.046996 0.396652 0.521894 0.110153
C17   C     C_3   0.952609 0.602532 0.479554 0.112971
C18   C     C_R   0.492729 0.467325 0.189486 -0.028640
C19   C     C_R   0.505726 0.533482 0.810456 -0.020461
C20   C     C_R   0.602599 0.611705 0.964517 -0.242519
C21   C     C_R   0.394149 0.390374 0.035555 -0.238769
C22   C     C_R   0.585567 0.609132 0.857038 -0.193247
C23   C     C_R   0.438630 0.463595 0.869193 -0.313621
C24   C     C_R   0.412705 0.391806 0.142922 -0.192601
C25   C     C_3   0.998933 0.449847 0.771137 0.095203
C26   C     C_3   0.947012 0.400940 0.868389 -0.850033
C27   C     C_3   0.994477 0.543064 0.230081 0.106610
C28   C     C_3   0.037750 0.595093 0.131321 -0.863393
C29   C     C_3   0.105261 0.279909 0.542942 -0.344131
C30   C     C_3   0.004679 0.202377 0.571692 -0.876087
C31   C     C_3   0.895822 0.719701 0.458333 -0.353014
C32   C     C_3   0.998833 0.798864 0.440170 -0.851471
C33   C     C_3   0.673152 0.219466 0.678096 -0.354939
C34   C     C_R   0.557749 0.538822 0.130820 -0.314018
C35   C     C_3   0.616239 0.225168 0.787487 -0.853214
C36   C     C_3   0.415861 0.790189 0.284711 -0.401617
C37   C     C_3   0.293929 0.732616 0.263164 -0.733679
C38   C     C_R   0.456492 0.464068 0.976069 0.194118
C39   C     C_R   0.539620 0.538477 0.024023 0.196588
C40   C     C_R   0.398574 0.960224 0.391883 -0.337971
C41   C     C_R   0.591215 0.042354 0.615888 -0.312603
C42   C     C_R   0.422010 0.844332 0.392898 0.319944
H1    H     H_    0.075872 0.632715 0.634391 0.158141
H2    H     H_    0.576784 0.819767 0.623113 0.133595
H3    H     H_    0.350545 0.998764 0.325236 0.142114
H4    H     H_    0.646388 0.004601 0.679341 0.146403
H5    H     H_    0.015958 0.538027 0.789586 0.142647
H6    H     H_    0.090771 0.403286 0.751489 0.131665
H7    H     H_    0.928856 0.312672 0.852505 0.254062
H8    H     H_    0.017165 0.406286 0.933929 0.207829
H9    H     H_    0.856588 0.447338 0.891499 0.263920
H10   H     H_    0.899856 0.583549 0.251435 0.127308
H11   H     H_    0.984929 0.453527 0.212192 0.143338
H12   H     H_    0.923170 0.365735 0.367915 0.157588
H13   H     H_    0.131474 0.555672 0.107028 0.263672
H14   H     H_    0.967140 0.583150 0.067121 0.210441
H15   H     H_    0.046039 0.685201 0.145721 0.252917
H16   H     H_    0.967159 0.227052 0.650069 0.277241
H17   H     H_    0.925666 0.204496 0.512944 0.267796
H18   H     H_    0.048210 0.116387 0.574920 0.243069
H19   H     H_    0.154647 0.246273 0.471459 0.212561
H20   H     H_    0.176285 0.283542 0.607945 0.204486
H21   H     H_    0.067213 0.799625 0.507256 0.266217
H22   H     H_    0.050271 0.773556 0.367631 0.281728
H23   H     H_    0.621045 0.595375 0.168676 0.128050
H24   H     H_    0.954467 0.883931 0.431127 0.237952
H25   H     H_    0.831631 0.717570 0.388597 0.198867
H26   H     H_    0.839103 0.751023 0.526914 0.214562
H27   H     H_    0.512931 0.249646 0.783497 0.269342
H28   H     H_    0.629421 0.143304 0.824214 0.237301
H29   H     H_    0.664596 0.286503 0.837727 0.264384
H30   H     H_    0.768618 0.175104 0.682993 0.174310
H31   H     H_    0.689974 0.302790 0.653786 0.284172
H32   H     H_    0.272242 0.680173 0.328283 0.319499
H33   H     H_    0.213630 0.795606 0.252061 0.216174
H34   H     H_    0.374914 0.407477 0.831202 0.133391
H35   H     H_    0.303986 0.680414 0.190383 0.250210
H36   H     H_    0.418790 0.853036 0.223306 0.167700
H37   H     H_    0.504663 0.740130 0.267701 0.216516
H38   H     H_    0.361637 0.337166 0.189878 0.149983
H39   H     H_    0.637667 0.662996 0.810051 0.149444
H40   H     H_    0.666064 0.669003 0.000712 0.138522
H41   H     H_    0.330730 0.333040 0.999362 0.139825
H42   H     H_    0.399656 0.182148 0.390530 0.129949
N1    N     N_R   0.523490 0.207800 0.519350 -0.121355
N2    N     N_R   0.476510 0.792200 0.480650 -0.113325
O1    O     O_R   0.506270 0.421700 0.658830 -0.624888
O2    O     O_3   0.085977 0.556541 0.310580 -0.631618
O3    O     O_R   0.493730 0.578300 0.341170 -0.626748
O4    O     O_R   0.491200 0.609310 0.646410 -0.630248
O5    O     O_R   0.508800 0.390690 0.353590 -0.628110
O6    O     O_R   0.693580 0.406210 0.506230 -0.626380
O7    O     O_R   0.306420 0.593790 0.493770 -0.609249
O8    O     O_R   0.678510 0.593830 0.493810 -0.648413
O9    O     O_R   0.321490 0.406170 0.506190 -0.646116
O10   O     O_3   0.908833 0.442171 0.688909 -0.623400
Zn1   Zn    Zn3+2 0.510060 0.374730 0.508290 0.926973
Zn2   Zn    Zn3+2 0.489940 0.625270 0.491710 0.929399

loop_
_geom_bond_atom_site_label_1
_geom_bond_atom_site_label_2
_ccdc_geom_bond_type
C1    O1    A    
C37   H32   S    
C1    O4    A    
C20   H40   S    
C12   O5    A    
C36   C42   S    
C23   H34   S    
C28   H14   S    
C28   H15   S    
C31   H25   S    
C10   O2    S    
C18   C24   A    
C36   C37   S    
C9    C16   S    
C26   H8    S    
C38   C39   A    
C11   C14   S    
O8    Zn2   S    
C10   C17   S    
C2    N1    A    
C33   H30   S    
C24   H38   S    
C21   C38   A    
C21   H41   S    
C35   H28   S    
C30   H18   S    
C41   H4    S    
C11   H1    S    
C42   N2    A    
C25   H5    S    
C9    O10   S    
C40   C42   A    
C37   H33   S    
C35   H29   S    
C3    N2    A    
C40   H3    S    
C8    O9    A    
C34   H23   S    
C28   H13   S    
O6    Zn1   S    
C31   H26   S    
C29   H19   S    
C3    H2    S    
C1    C19   S    
C34   C39   A    
C22   H39   S    
C12   O3    A    
C19   C22   A    
C32   H22   S    
C4    C6    A    
C10   C14   S    
C26   H7    S    
C20   C39   A    
C4    N1    A    
C16   C29   S    
C37   H35   S    
C10   C13   S    
C19   C23   A    
C29   C30   S    
C9    C11   S    
C31   C32   S    
C4    H42   S    
C30   H17   S    
O9    Zn1   S    
O5    Zn1   S    
C18   C34   A    
C25   H6    S    
C2    C33   S    
C33   H31   S    
C20   C22   A    
C13   C15   S    
C17   C31   S    
C14   C16   S    
C21   C24   A    
C27   H10   S    
C32   H24   S    
C13   H12   S    
C15   C17   S    
C7    O8    A    
C5    C41   A    
C29   H20   S    
C11   C17   S    
C8    C14   S    
C8    O7    A    
C32   H21   S    
C3    C5    A    
C36   H37   S    
C27   H11   S    
C23   C38   A    
O3    Zn2   S    
C25   C26   S    
C36   H36   S    
C26   H9    S    
C5    C6    A    
C7    O6    A    
C30   H16   S    
C7    C15   S    
C33   C35   S    
C6    C40   A    
C9    C15   S    
C27   O2    S    
N2    Zn2   S    
N1    Zn1   S    
C35   H27   S    
C25   O10   S    
C13   C16   S    
C12   C18   S    
C27   C28   S    
C2    C41   A    
O7    Zn2   S    
O4    Zn2   S    
O1    Zn1   S    
