data_mof_unit_65434.cif
_audit_creation_date              2012-10-26T18:36:25-0400
_audit_creation_method            fapswitch 2.2
_symmetry_space_group_name_H-M    P1
_symmetry_Int_Tables_number       1
_space_group_crystal_system       triclinic
_cell_length_a                    12.764689
_cell_length_b                    13.918166
_cell_length_c                    17.331992
_cell_angle_alpha                 90.132161
_cell_angle_beta                  97.618591
_cell_angle_gamma                 82.032413
_cell_volume                      3022.17097918

loop_
_atom_site_label
_atom_site_type_symbol
_atom_type_description
_atom_site_fract_x
_atom_site_fract_y
_atom_site_fract_z
_atom_type_partial_charge
Br1   Br    Br    0.371451 0.677440 0.718433 -0.384745
Br2   Br    Br    0.628591 0.322573 0.281579 -0.384737
C1    C     C_R   0.516534 0.315927 0.500753 0.568238
C2    C     C_2   0.026078 0.526782 0.477772 0.200178
C3    C     C_1   0.143974 0.519312 0.484008 0.297272
C4    C     C_1   0.856026 0.480688 0.515992 0.297272
C5    C     C_R   0.513874 0.499013 0.650576 0.591025
C6    C     C_R   0.486126 0.500985 0.349424 0.591016
C7    C     C_R   0.522666 0.497698 0.735031 0.037376
C8    C     C_R   0.477335 0.502292 0.264968 0.037368
C9    C     C_R   0.462123 0.570510 0.773275 0.125346
C10   C     C_R   0.537895 0.429486 0.226729 0.125349
C11   C     C_R   0.469982 0.567998 0.853997 -0.067203
C12   C     C_R   0.483465 0.684073 0.499247 0.568235
C13   C     C_R   0.530036 0.431989 0.146007 -0.067201
C14   C     C_R   0.537000 0.492946 0.897127 -0.029316
C15   C     C_R   0.463002 0.507027 0.102871 -0.029311
C16   C     C_R   0.599805 0.422625 0.859270 -0.059363
C17   C     C_R   0.400180 0.577342 0.140724 -0.059368
C18   C     C_R   0.592720 0.424124 0.778493 0.211794
C19   C     C_R   0.407264 0.575851 0.221500 0.211795
C20   C     C_2   0.542622 0.485929 0.981880 -0.104529
C21   C     C_2   0.457382 0.514039 0.018118 -0.104526
C22   C     C_1   0.473934 0.787181 0.499296 0.087344
C23   C     C_1   0.526066 0.212819 0.500704 0.087348
C24   C     C_2   0.456409 0.977858 0.499675 0.238819
C25   C     C_2   0.543591 0.022142 0.500326 0.238819
C26   C     C_1   0.534638 0.125915 0.500567 0.102932
C27   C     C_1   0.465363 0.874085 0.499433 0.102930
C28   C     C_2   0.973922 0.473217 0.522228 0.200177
Cl1   Cl    Cl    0.331221 0.670304 0.266153 -0.487479
Cl2   Cl    Cl    0.668740 0.329664 0.733832 -0.487494
Cl3   Cl    Cl    0.672280 0.956433 0.500834 -0.457283
Cl4   Cl    Cl    0.327721 0.043567 0.499166 -0.457284
Cl5   Cl    Cl    0.952359 0.610555 0.408167 -0.470970
Cl6   Cl    Cl    0.047641 0.389445 0.591833 -0.470977
Cu1   Cu    Cu3+1 0.605120 0.493930 0.505020 1.171955
Cu2   Cu    Cu3+1 0.394880 0.506070 0.494980 1.171954
H1    H     H_    0.382202 0.546039 0.985390 0.146979
H2    H     H_    0.617802 0.453928 0.014606 0.146978
H3    H     H_    0.652218 0.364917 0.892474 0.172458
H4    H     H_    0.347753 0.635038 0.107515 0.172455
H5    H     H_    0.575439 0.374467 0.117251 0.164466
H6    H     H_    0.424593 0.625524 0.882759 0.164470
N1    N     N_1   0.763100 0.484810 0.512560 -0.156184
N2    N     N_1   0.236900 0.515190 0.487440 -0.156184
O1    O     O_R   0.601320 0.356300 0.504850 -0.463727
O2    O     O_R   0.398680 0.643700 0.495150 -0.463732
O3    O     O_R   0.423780 0.366550 0.496380 -0.493291
O4    O     O_R   0.576220 0.633450 0.503620 -0.493289
O5    O     O_R   0.599070 0.494270 0.618330 -0.468512
O6    O     O_R   0.400930 0.505730 0.381670 -0.468507
O7    O     O_R   0.421520 0.504520 0.609850 -0.473570
O8    O     O_R   0.578480 0.495480 0.390150 -0.473567

loop_
_geom_bond_atom_site_label_1
_geom_bond_atom_site_label_2
_ccdc_geom_bond_type
C12   O2    A    
C17   H4    S    
Cu1   Cu2   S    
C4    N1    T    
Cu1   O1    S    
C19   Cl1   S    
C3    N2    T    
C6    O6    A    
C7    C18   A    
Cu2   O2    S    
Br1   C9    S    
C10   C13   A    
C28   Cl6   S    
Br2   C10   S    
C1    O3    A    
C2    Cl5   S    
C13   H5    S    
Cu2   O3    S    
C15   C21   S    
C25   Cl3   S    
C23   C26   T    
Cu1   O4    S    
C7    C9    A    
C24   C25   D    
C12   O4    A    
Cu2   O7    S    
C8    C10   A    
C12   C22   S    
C21   H1    S    
Cu1   O8    S    
C1    O1    A    
C4    C28   S    
C16   C18   A    
C20   C21   D    
C8    C19   A    
Cu1   O5    S    
Cu2   N2    S    
Cu2   O6    S    
C5    O7    A    
C5    O5    A    
C5    C7    S    
C9    C11   A    
C1    C23   S    
C24   C27   S    
C14   C16   A    
C18   Cl2   S    
C11   C14   A    
C6    O8    A    
C25   C26   S    
C13   C15   A    
C20   H2    S    
C14   C20   S    
C15   C17   A    
C11   H6    S    
C22   C27   T    
Cu1   N1    S    
C24   Cl4   S    
C6    C8    S    
C2    C28   D    
C16   H3    S    
C2    C3    S    
C17   C19   A    
