data_mof_unit_11319.cif
_audit_creation_date              2012-12-11T14:49:23-0500
_audit_creation_method            fapswitch 2.2
_symmetry_space_group_name_H-M    P1
_symmetry_Int_Tables_number       1
_space_group_crystal_system       triclinic
_cell_length_a                    16.889175
_cell_length_b                    16.688894
_cell_length_c                    19.534192
_cell_angle_alpha                 117.826688
_cell_angle_beta                  62.148213
_cell_angle_gamma                 101.026112
_cell_volume                      4302.65969741

loop_
_atom_site_label
_atom_site_type_symbol
_atom_type_description
_atom_site_fract_x
_atom_site_fract_y
_atom_site_fract_z
_atom_type_partial_charge
C1    C     C_R   0.041386 0.759712 0.010445 -0.135132
C2    C     C_R   0.251783 0.520765 0.827666 -0.131492
C3    C     C_R   0.183376 0.491917 0.088139 -0.136159
C4    C     C_R   0.763903 0.418513 0.164185 -0.151408
C5    C     C_R   0.985756 0.340455 0.760562 -0.221596
C6    C     C_R   0.259110 0.539425 0.062825 0.056035
C7    C     C_R   0.932949 0.265893 0.762381 0.036247
C8    C     C_R   0.258447 0.459865 0.746264 0.072459
C9    C     C_R   0.028362 0.220292 0.000334 0.014963
C10   C     C_R   0.853411 0.127420 0.702101 -0.243210
C11   C     C_R   0.898226 0.206411 0.698327 0.129799
C12   C     C_R   0.766064 0.438550 0.240524 0.091132
C13   C     C_R   0.918668 0.222565 0.627275 -0.264293
C14   C     C_R   0.906069 0.155397 0.556462 0.156599
C15   C     C_R   0.866877 0.073739 0.559272 0.034483
C16   C     C_R   0.804895 0.561856 0.962833 -0.133301
C17   C     C_R   0.834977 0.062781 0.634690 0.076553
C18   C     C_R   0.939530 0.165040 0.480232 -0.211227
C19   C     C_R   0.943572 0.090679 0.404849 -0.205611
C20   C     C_R   0.913082 0.006669 0.405624 0.165924
C21   C     C_R   0.869009 0.999508 0.484171 -0.021931
C22   C     C_R   0.835942 0.915573 0.486021 0.078938
C23   C     C_R   0.724479 0.555288 0.028121 0.074338
C24   C     C_R   0.791718 0.909420 0.565321 0.298148
C25   C     C_R   0.792963 0.983312 0.638938 -0.246138
C26   C     C_R   0.935045 0.928075 0.328751 -0.252194
C27   C     C_R   0.914683 0.843217 0.330292 0.110019
C28   C     C_R   0.952837 0.673434 0.248373 -0.132566
C29   C     C_R   0.856611 0.838413 0.407939 -0.242863
C30   C     C_R   0.424661 0.436636 0.671150 -0.256238
C31   C     C_R   0.341209 0.415890 0.668432 0.115264
C32   C     C_R   0.338047 0.361683 0.589047 -0.257816
C33   C     C_R   0.415826 0.342483 0.512591 0.142110
C34   C     C_R   0.961322 0.760209 0.253694 0.071768
C35   C     C_R   0.497995 0.374829 0.515944 0.026159
C36   C     C_R   0.503175 0.417755 0.595256 0.140359
C37   C     C_R   0.411208 0.299875 0.433483 -0.205504
C38   C     C_R   0.485404 0.297887 0.359377 -0.207720
C39   C     C_R   0.564675 0.338283 0.363945 0.144954
C40   C     C_R   0.739685 0.488502 0.044501 -0.115981
C41   C     C_R   0.572661 0.372595 0.441386 0.028144
C42   C     C_R   0.652248 0.413027 0.446434 0.146652
C43   C     C_R   0.659596 0.447020 0.523735 -0.206143
C44   C     C_R   0.585247 0.449426 0.597958 -0.202330
C45   C     C_R   0.251601 0.568256 0.010316 -0.139137
C46   C     C_R   0.632472 0.352885 0.295092 -0.259672
C47   C     C_R   0.706932 0.403182 0.303595 0.110316
C48   C     C_R   0.719617 0.426723 0.376829 -0.273212
C49   C     C_R   0.637173 0.601965 0.067696 0.081589
C50   C     C_R   0.327180 0.563808 0.095083 0.130432
C51   C     C_R   0.407265 0.525347 0.151532 -0.207270
C52   C     C_R   0.023347 0.753283 0.173096 -0.122425
C53   C     C_R   0.332551 0.517690 0.137393 -0.184574
C54   C     C_R   0.392572 0.626036 0.076302 -0.256289
C55   C     C_R   0.469562 0.630985 0.087008 0.134392
C56   C     C_R   0.913002 0.265918 0.840304 0.329641
C57   C     C_R   0.478266 0.576918 0.121081 0.195420
C58   C     C_R   0.561040 0.565873 0.114351 -0.331525
C59   C     C_R   0.625164 0.671177 0.050132 0.316517
C60   C     C_R   0.540949 0.683314 0.058019 -0.272025
C61   C     C_R   0.840202 0.188271 0.149542 0.117417
C62   C     C_R   0.962160 0.865053 0.996738 0.127341
C63   C     C_R   0.882363 0.953100 0.976218 -0.221851
C64   C     C_R   0.841138 0.489319 0.240732 -0.155562
C65   C     C_R   0.921092 0.871108 0.950986 -0.166110
C66   C     C_R   0.966354 0.943967 0.066881 -0.273826
C67   C     C_R   0.172356 0.451333 0.751584 -0.130019
C68   C     C_R   0.926721 0.026356 0.093225 0.182749
C69   C     C_R   0.883247 0.030595 0.048148 0.186809
C70   C     C_R   0.839984 0.111868 0.076940 -0.280452
C71   C     C_R   0.883946 0.184533 0.193531 -0.146781
C72   C     C_R   0.927274 0.104034 0.165584 -0.213919
C73   C     C_R   0.962708 0.690970 0.935066 -0.139885
C74   C     C_R   0.990540 0.775447 0.978602 0.058743
C75   C     C_3   0.829608 0.230871 0.892496 -1.106023
C76   C     C_R   0.088464 0.317339 0.108474 0.122630
C77   C     C_R   0.041077 0.366596 0.197777 -0.179452
C78   C     C_R   0.049158 0.305086 0.051363 0.034287
C79   C     C_R   0.076975 0.374993 0.252330 -0.129689
C80   C     C_R   0.159969 0.333528 0.218055 -0.104520
C81   C     C_R   0.206789 0.282980 0.129236 -0.127018
C82   C     C_R   0.170891 0.274212 0.074545 -0.144438
C83   C     C_3   0.749118 0.823615 0.572037 -1.030489
C84   C     C_3   0.697639 0.734382 0.025819 -1.045808
C85   C     C_R   0.974982 0.238088 0.972123 -0.148324
H1    H     H_    0.084316 0.807776 0.036143 0.086569
H2    H     H_    0.723048 0.369103 0.136348 0.086535
H3    H     H_    0.975825 0.097324 0.345104 0.124257
H4    H     H_    0.974806 0.933221 0.268705 0.111928
H5    H     H_    0.834884 0.773410 0.408034 0.139125
H6    H     H_    0.765484 0.977163 0.698710 0.138236
H7    H     H_    0.428781 0.474428 0.731805 0.119073
H8    H     H_    0.274763 0.341033 0.585706 0.118415
H9    H     H_    0.348729 0.273523 0.429909 0.129185
H10   H     H_    0.478973 0.269951 0.299834 0.127844
H11   H     H_    0.622905 0.331276 0.238051 0.116370
H12   H     H_    0.151704 0.409118 0.701348 0.097896
H13   H     H_    0.815814 0.599515 0.927506 0.113954
H14   H     H_    0.778176 0.462239 0.383313 0.116055
H15   H     H_    0.720930 0.476978 0.528064 0.128133
H16   H     H_    0.590423 0.481283 0.658333 0.130363
H17   H     H_    0.566317 0.519613 0.136461 0.132521
H18   H     H_    0.412832 0.484553 0.179074 0.123269
H19   H     H_    0.532399 0.730386 0.037919 0.142399
H20   H     H_    0.282597 0.470566 0.154259 0.133098
H21   H     H_    0.387827 0.664864 0.046803 0.115339
H22   H     H_    0.805860 0.116424 0.043678 0.124115
H23   H     H_    0.944856 0.187580 0.932663 0.129657
H24   H     H_    0.911297 0.652310 0.298414 0.096033
H25   H     H_    0.883822 0.244136 0.249596 0.126445
H26   H     H_    0.849856 0.955348 0.940648 0.125952
H27   H     H_    0.960197 0.102197 0.200994 0.125134
H28   H     H_    0.917004 0.812077 0.896594 0.116955
H29   H     H_    0.996464 0.940681 0.103835 0.115289
H30   H     H_    0.693522 0.463606 0.090425 0.096700
H31   H     H_    0.049287 0.808346 0.155789 0.086486
H32   H     H_    0.870024 0.507267 0.284744 0.079916
H33   H     H_    0.931801 0.676028 0.893251 0.086988
H34   H     H_    0.305019 0.542920 0.847524 0.096309
H35   H     H_    0.291318 0.618152 0.988971 0.087348
H36   H     H_    0.772363 0.235723 0.881312 0.263561
H37   H     H_    0.841232 0.160102 0.877381 0.238122
H38   H     H_    0.810223 0.272234 0.962230 0.259378
H39   H     H_    0.976133 0.397231 0.225074 0.108495
H40   H     H_    0.040254 0.413264 0.321170 0.109087
H41   H     H_    0.187769 0.340155 0.260317 0.103314
H42   H     H_    0.270805 0.250455 0.102791 0.112079
H43   H     H_    0.207550 0.234508 0.005866 0.113545
H44   H     H_    0.801281 0.769023 0.536397 0.245649
H45   H     H_    0.159190 0.476815 0.142262 0.120338
H46   H     H_    0.713485 0.833459 0.639861 0.252198
H47   H     H_    0.699420 0.802026 0.545040 0.256457
H48   H     H_    0.669183 0.804675 0.060880 0.261739
H49   H     H_    0.751005 0.736611 0.044578 0.260990
H50   H     H_    0.726292 0.713991 0.955764 0.243470
H51   H     H_    0.002474 0.370543 0.717304 0.110292
H52   H     H_    0.839506 0.110006 0.752817 0.148228
H53   H     H_    0.951350 0.283498 0.622995 0.116458
H54   H     H_    0.968445 0.227895 0.477449 0.126662
N1    N     N_R   0.036080 0.671900 0.995420 -0.037231
N2    N     N_R   0.867430 0.509300 0.948100 -0.039138
N3    N     N_R   0.003360 0.617250 0.167070 -0.040715
N4    N     N_R   0.825450 0.461270 0.995400 -0.037647
N5    N     N_R   0.045340 0.665280 0.119770 -0.039900
N6    N     N_R   0.883740 0.497640 0.167070 -0.037311
N7    N     N_R   0.987050 0.628910 0.948110 -0.036275
N8    N     N_R   0.174550 0.538730 0.004600 -0.039131
N9    N     N_R   0.954660 0.334720 0.880230 -0.052535
N10   N     N_R   0.116260 0.502360 0.832930 -0.040038
N11   N     N_R   0.012950 0.371090 0.051890 -0.061472
N12   N     N_R   0.963920 0.328100 0.004580 -0.047378
N13   N     N_R   0.165290 0.545350 0.880240 -0.041767
N14   N     N_R   0.132570 0.490700 0.051900 -0.042276
N15   N     N_R   0.996640 0.382750 0.832930 -0.051196
N16   N     N_R   0.834710 0.454650 0.119760 -0.037858
Ni1   Ni    Ni4+2 0.104370 0.604370 0.000010 0.212587
Ni2   Ni    Ni4+2 0.895630 0.395630 0.999990 0.206633
Ni3   Ni    Ni4+2 0.991920 0.505780 0.891500 0.210848
Ni4   Ni    Ni4+2 0.008080 0.494220 0.108500 0.209664

loop_
_geom_bond_atom_site_label_1
_geom_bond_atom_site_label_2
_ccdc_geom_bond_type
C61   C70   A    
C5    H51   S    
C66   C68   A    
C63   C65   A    
C84   H50   S    
C56   N9    A    
C6    C45   A    
C64   N6    A    
N16   Ni2   S    
C3    H45   S    
C41   C42   A    
C14   C18   A    
C35   C36   A    
N3    Ni4   S    
C3    C6    A    
C72   H27   S    
C81   C82   A    
C39   C41   A    
C4    H2    S    
C26   H4    S    
C7    C11   S    
C84   H49   S    
C26   C27   A    
C50   C54   A    
C67   H12   S    
C20   C26   A    
C43   H15   S    
C75   H38   S    
C1    C74   A    
N12   Ni2   S    
C21   C22   A    
C22   C29   A    
C24   C83   S    
C76   C78   S    
C83   H44   S    
C70   H22   S    
N2    N4    A    
C30   C31   A    
C12   C64   A    
C23   C49   S    
C40   H30   S    
C27   C29   A    
C10   C17   A    
C51   H18   S    
C23   C40   A    
C75   H37   S    
C71   H25   S    
C3    N14   A    
C18   C19   A    
C73   C74   A    
C9    C85   A    
C46   C47   A    
C63   C69   A    
C68   C69   A    
C38   H10   S    
C51   C57   A    
C10   H52   S    
C4    C12   A    
C85   H23   S    
C66   H29   S    
N10   Ni3   S    
N9    Ni2   S    
C61   C71   A    
C52   H31   S    
C32   H8    S    
C79   H40   S    
C28   C34   A    
C59   C60   A    
C56   C75   S    
C45   N8    A    
C13   C14   A    
C81   H42   S    
C69   C70   A    
N9    N15   A    
C7    C56   A    
C12   C47   S    
C35   C41   A    
C29   H5    S    
N4    Ni2   S    
C77   C79   A    
C27   C34   S    
C2    N13   A    
C84   H48   S    
C25   H6    S    
C50   C53   A    
N11   Ni4   S    
C54   H21   S    
N13   Ni1   S    
C76   C77   A    
C30   H7    S    
C19   H3    S    
N10   N13   A    
N1    N7    A    
C5    C7    A    
C62   C66   A    
C42   C48   A    
C33   C37   A    
C64   H32   S    
C51   C53   A    
N5    Ni1   S    
C43   C44   A    
C85   N12   A    
C83   H46   S    
C37   C38   A    
C47   C48   A    
C14   C15   A    
C15   C21   A    
C68   C72   A    
C52   N5    A    
C24   C25   A    
N8    Ni1   S    
C82   H43   S    
C1    N1    A    
N1    Ni1   S    
C39   C46   A    
C58   H17   S    
C45   H35   S    
C16   C23   A    
C55   C57   A    
N3    N5    A    
C36   C44   A    
C28   N3    A    
C42   C43   A    
C76   C82   A    
N14   Ni4   S    
C78   N11   A    
C1    H1    S    
C15   C17   A    
C48   H14   S    
C54   C55   A    
C73   H33   S    
C6    C50   S    
C62   C65   A    
C75   H36   S    
C8    C31   S    
C65   H28   S    
C31   C32   A    
C2    C8    A    
C44   H16   S    
C80   C81   A    
C2    H34   S    
N15   Ni3   S    
N7    Ni3   S    
C30   C36   A    
C28   H24   S    
C34   C52   A    
C59   C84   S    
C49   C59   A    
C67   N10   A    
C73   N7    A    
C17   C25   A    
C13   H53   S    
C19   C20   A    
C16   N2    A    
C83   H47   S    
C77   H39   S    
C60   H19   S    
C32   C33   A    
C11   C13   A    
C16   H13   S    
C57   C58   A    
C38   C39   A    
C80   H41   S    
N6    Ni4   S    
C33   C35   A    
C37   H9    S    
C22   C24   A    
C9    C78   A    
C63   H26   S    
C18   H54   S    
N8    N14   A    
C10   C11   A    
C49   C58   A    
C79   C80   A    
N6    N16   A    
C53   H20   S    
N2    Ni3   S    
C71   C72   A    
C4    N16   A    
C46   H11   S    
C20   C21   A    
C8    C67   A    
C40   N4    A    
N11   N12   A    
C62   C74   S    
C55   C60   A    
C5    N15   A    
