data_mof_unit_48056.cif
_audit_creation_date              2012-10-26T19:42:32-0400
_audit_creation_method            fapswitch 2.2
_symmetry_space_group_name_H-M    P1
_symmetry_Int_Tables_number       1
_space_group_crystal_system       triclinic
_cell_length_a                    19.339845
_cell_length_b                    10.883791
_cell_length_c                    9.684836
_cell_angle_alpha                 89.5546
_cell_angle_beta                  90.143866
_cell_angle_gamma                 95.838613
_cell_volume                      2027.92954461

loop_
_atom_site_label
_atom_site_type_symbol
_atom_type_description
_atom_site_fract_x
_atom_site_fract_y
_atom_site_fract_z
_atom_type_partial_charge
C1    C     C_R   0.491520 0.262471 0.500125 0.550230
C2    C     C_R   0.852504 0.495151 0.494908 0.021219
C3    C     C_R   0.443186 0.099316 0.744006 0.254387
C4    C     C_R   0.367507 0.502305 0.500118 0.579947
C5    C     C_R   0.460039 0.048476 0.871057 -0.072165
C6    C     C_R   0.504955 0.956232 0.874645 -0.127897
C7    C     C_R   0.522488 0.900994 0.751976 -0.100987
C8    C     C_R   0.498713 0.942500 0.624023 -0.044899
C9    C     C_R   0.473339 0.058513 0.622628 0.028315
C10   C     C_R   0.478643 0.127094 0.499390 -0.026389
C11   C     C_R   0.479708 0.063983 0.374632 -0.115108
C12   C     C_R   0.291112 0.508239 0.498585 -0.017318
C13   C     C_R   0.481636 0.936772 0.374182 0.244606
C14   C     C_R   0.496963 0.874281 0.498574 0.024372
C15   C     C_R   0.617610 0.627540 0.133183 0.282551
C16   C     C_R   0.500340 0.738592 0.499621 0.591326
C17   C     C_R   0.678255 0.649989 0.053181 0.255847
C18   C     C_R   0.672020 0.660271 0.912234 -0.168674
C19   C     C_R   0.608051 0.631998 0.851644 -0.161102
C20   C     C_R   0.553265 0.566310 0.923879 0.101505
C21   C     C_R   0.554966 0.566396 0.072732 0.136120
C22   C     C_R   0.450605 0.429599 0.072279 0.104489
C23   C     C_R   0.928595 0.494963 0.487113 0.341415
C24   C     C_R   0.450553 0.433943 0.925458 0.056693
C25   C     C_R   0.631919 0.499168 0.500508 0.542916
C26   C     C_R   0.249087 0.486833 0.617528 0.255857
C27   C     C_R   0.177083 0.482993 0.606569 -0.093077
C28   C     C_R   0.145091 0.503934 0.480090 -0.002887
C29   C     C_R   0.186600 0.532104 0.362631 0.228951
C30   C     C_R   0.258800 0.535216 0.373207 -0.140951
C31   C     C_3   0.399970 0.330534 0.138265 -0.257835
C32   C     C_3   0.323810 0.339758 0.098228 -0.296311
C33   C     C_3   0.274133 0.260130 0.192691 -0.401969
C34   C     C_R   0.068813 0.497756 0.476465 0.376490
C35   C     C_3   0.695654 0.282036 0.618513 -0.249362
C36   C     C_3   0.692392 0.294596 0.775941 -0.283915
C37   C     C_3   0.642431 0.192520 0.839722 -0.431202
C38   C     C_R   0.810850 0.393742 0.551166 -0.092905
C39   C     C_R   0.738227 0.392724 0.555675 -0.016169
C40   C     C_R   0.707309 0.495507 0.502407 0.024308
C41   C     C_R   0.749272 0.598289 0.452667 -0.101816
C42   C     C_R   0.821033 0.597942 0.447544 -0.074561
Cl1   Cl    Cl    0.282051 0.467666 0.784429 -0.558888
Cl2   Cl    Cl    0.370496 0.183603 0.732581 -0.597845
Cl3   Cl    Cl    0.460160 0.863721 0.215778 -0.575097
Cl4   Cl    Cl    0.618814 0.740880 0.260559 -0.546274
Cl5   Cl    Cl    0.760024 0.699463 0.125380 -0.556603
Cl6   Cl    Cl    0.150702 0.557050 0.198681 -0.496832
Cu1   Cu    Cu3+1 0.500000 0.499990 0.640660 0.997423
Cu2   Cu    Cu3+1 0.500000 0.500010 0.359340 1.028009
H1    H     H_    0.438425 0.079336 0.965840 0.152180
H2    H     H_    0.726605 0.680128 0.419319 0.200738
H3    H     H_    0.851872 0.678899 0.407335 0.186485
H4    H     H_    0.476795 0.112680 0.277167 0.149024
H5    H     H_    0.283394 0.161424 0.183840 0.189200
H6    H     H_    0.281486 0.288855 0.301899 0.162890
H7    H     H_    0.219623 0.270327 0.162137 0.208857
H8    H     H_    0.311827 0.437115 0.102114 0.222709
H9    H     H_    0.314630 0.305655 0.991589 0.245580
H10   H     H_    0.414314 0.239277 0.105122 0.112469
H11   H     H_    0.403630 0.329163 0.250302 0.218155
H12   H     H_    0.523579 0.922880 0.971624 0.204619
H13   H     H_    0.588977 0.199852 0.800971 0.172479
H14   H     H_    0.658382 0.100294 0.813605 0.167483
H15   H     H_    0.642378 0.202190 0.953766 0.161740
H16   H     H_    0.745061 0.289900 0.820681 0.181669
H17   H     H_    0.674663 0.385247 0.803424 0.195856
H18   H     H_    0.642366 0.271284 0.574385 0.162397
H19   H     H_    0.719290 0.196218 0.592266 0.149326
H20   H     H_    0.556551 0.830269 0.758355 0.137526
H21   H     H_    0.715749 0.698148 0.850207 0.169072
H22   H     H_    0.603691 0.661680 0.747419 0.182310
H23   H     H_    0.145745 0.465317 0.698629 0.194227
H24   H     H_    0.410747 0.380464 0.869134 0.210881
H25   H     H_    0.289753 0.558487 0.282218 0.184506
H26   H     H_    0.834633 0.314590 0.590574 0.147549
N1    N     N_R   0.036162 0.582673 0.405058 -0.119055
N2    N     N_R   0.967336 0.581151 0.410155 -0.187434
N3    N     N_R   0.961352 0.409823 0.558109 -0.209331
N4    N     N_R   0.030167 0.411613 0.553421 -0.206808
N5    N     N_R   0.500660 0.501210 0.147910 -0.222773
N6    N     N_R   0.500680 0.501290 0.852040 -0.247587
O1    O     O_R   0.499990 0.319640 0.618810 -0.482278
O2    O     O_R   0.500000 0.319660 0.381240 -0.547510
O3    O     O_R   0.400140 0.499970 0.618820 -0.415094
O4    O     O_R   0.400150 0.500000 0.381250 -0.533087
O5    O     O_R   0.500000 0.680340 0.618760 -0.533662
O6    O     O_R   0.500010 0.680360 0.381190 -0.376267
O7    O     O_R   0.599850 0.500000 0.618750 -0.540072
O8    O     O_R   0.599860 0.500030 0.381180 -0.466912

loop_
_geom_bond_atom_site_label_1
_geom_bond_atom_site_label_2
_ccdc_geom_bond_type
C33   H5    S    
C20   N6    A    
C41   C42   A    
Cu1   O5    S    
C19   C20   A    
C32   H8    S    
C7    H20   S    
C36   H17   S    
Cu2   O2    S    
C7    C8    A    
C38   H26   S    
N1    N2    A    
C1    O2    A    
C26   C27   A    
C28   C29   A    
C34   N1    A    
C5    C6    A    
C36   H16   S    
Cu1   N6    S    
C4    O4    A    
C18   C19   A    
C31   H11   S    
C24   N6    A    
C34   N4    A    
Cu2   O8    S    
C35   C36   S    
C8    C9    A    
C37   H15   S    
C16   O5    A    
C33   H7    S    
C4    C12   S    
C9    C10   A    
C41   H2    S    
Cu2   O6    S    
C33   H6    S    
C28   C34   S    
C13   C14   A    
C19   H22   S    
C37   H13   S    
C26   Cl1   S    
C3    Cl2   S    
C42   H3    S    
C22   C31   S    
C29   Cl6   S    
C22   N5    A    
Cu1   O3    S    
C39   C40   A    
C4    O3    A    
C12   C26   A    
C31   H10   S    
C35   C39   S    
C29   C30   A    
C3    C9    A    
C2    C38   A    
C31   C32   S    
C17   C18   A    
C25   O8    A    
C11   H4    S    
C40   C41   A    
C21   N5    A    
C22   C24   A    
C2    C23   S    
C37   H14   S    
C18   H21   S    
C15   C17   A    
C36   C37   S    
C8    C14   A    
C12   C30   A    
C1    C10   S    
C17   Cl5   S    
Cu1   O7    S    
C3    C5    A    
C6    C7    A    
C1    O1    A    
C25   O7    A    
C15   Cl4   S    
C6    H12   S    
C32   C33   S    
Cu1   O1    S    
C25   C40   S    
C13   Cl3   S    
C30   H25   S    
C11   C13   A    
C24   H24   S    
C38   C39   A    
C35   H18   S    
C2    C42   A    
C14   C16   S    
C23   N2    A    
C10   C11   A    
Cu2   O4    S    
N3    N4    A    
C15   C21   A    
C20   C21   A    
C35   H19   S    
Cu1   Cu2   S    
C27   C28   A    
C16   O6    A    
C5    H1    S    
C32   H9    S    
C23   N3    A    
C27   H23   S    
Cu2   N5    S    
