data_mof_unit_23557.cif
_audit_creation_date              2012-10-26T19:04:17-0400
_audit_creation_method            fapswitch 2.2
_symmetry_space_group_name_H-M    P1
_symmetry_Int_Tables_number       1
_space_group_crystal_system       triclinic
_cell_length_a                    14.599311
_cell_length_b                    16.101303
_cell_length_c                    9.619643
_cell_angle_alpha                 90.800804
_cell_angle_beta                  89.888394
_cell_angle_gamma                 89.855226
_cell_volume                      2261.03703928

loop_
_atom_site_label
_atom_site_type_symbol
_atom_type_description
_atom_site_fract_x
_atom_site_fract_y
_atom_site_fract_z
_atom_type_partial_charge
C1    C     C_R   0.374461 0.887650 0.499746 0.516096
C2    C     C_R   0.714040 0.220953 0.381379 -0.139783
C3    C     C_R   0.219466 0.281986 0.378751 -0.143323
C4    C     C_R   0.214042 0.720952 0.381379 -0.139781
C5    C     C_R   0.673090 0.804078 0.501167 -0.000635
C6    C     C_R   0.683650 0.189361 0.508284 -0.000727
C7    C     C_R   0.173092 0.304080 0.501165 -0.000624
C8    C     C_R   0.183651 0.689360 0.508284 -0.000726
C9    C     C_R   0.668810 0.973583 0.141190 0.354247
C10   C     C_R   0.168809 0.473580 0.141190 0.354235
C11   C     C_R   0.743466 0.941559 0.069813 -0.149131
C12   C     C_R   0.384150 0.121561 0.501932 0.521086
C13   C     C_R   0.243463 0.441552 0.069814 -0.149165
C14   C     C_R   0.744575 0.941850 0.927263 0.245443
C15   C     C_R   0.244572 0.441841 0.927263 0.245433
C16   C     C_R   0.669147 0.972498 0.856659 0.389305
C17   C     C_R   0.169146 0.472494 0.856659 0.389307
C18   C     C_R   0.582519 0.986688 0.924445 0.018616
C19   C     C_R   0.082519 0.486685 0.924445 0.018616
C20   C     C_R   0.582437 0.987056 0.074385 0.101060
C21   C     C_R   0.082437 0.487055 0.074385 0.101056
C22   C     C_R   0.422776 0.013038 0.074613 0.013041
C23   C     C_R   0.874461 0.387651 0.499746 0.516096
C24   C     C_R   0.922777 0.513041 0.074613 0.013042
C25   C     C_R   0.619550 0.118837 0.502062 0.609722
C26   C     C_R   0.612815 0.876742 0.499723 0.604334
C27   C     C_R   0.119550 0.618836 0.502062 0.609718
C28   C     C_R   0.112816 0.376742 0.499722 0.604334
C29   C     C_R   0.422902 0.013839 0.927446 0.438985
C30   C     C_R   0.922902 0.513842 0.927446 0.438989
C31   C     C_R   0.313478 0.204087 0.768363 -0.044833
C32   C     C_R   0.253827 0.861808 0.743497 -0.132535
C33   C     C_R   0.813497 0.704100 0.768360 -0.044837
C34   C     C_R   0.884150 0.621561 0.501932 0.521085
C35   C     C_R   0.753828 0.361809 0.743498 -0.132535
C36   C     C_R   0.260417 0.216353 0.887645 -0.040564
C37   C     C_R   0.236927 0.831050 0.875263 -0.088024
C38   C     C_R   0.760445 0.716374 0.887650 -0.040532
C39   C     C_R   0.736927 0.331051 0.875264 -0.088024
C40   C     C_R   0.669362 0.742745 0.876151 0.275529
C41   C     C_R   0.715181 0.247608 0.889100 0.267366
C42   C     C_R   0.169334 0.242724 0.876136 0.275527
C43   C     C_R   0.215182 0.747606 0.889099 0.267365
C44   C     C_R   0.637695 0.768056 0.746646 -0.060410
C45   C     C_R   0.288725 0.223429 0.381155 -0.162086
C46   C     C_R   0.695005 0.199953 0.770548 -0.082903
C47   C     C_R   0.137679 0.268044 0.746629 -0.060403
C48   C     C_R   0.195007 0.699952 0.770548 -0.082907
C49   C     C_R   0.694532 0.763672 0.627119 -0.006835
C50   C     C_R   0.708700 0.231306 0.634902 -0.021455
C51   C     C_R   0.194525 0.263667 0.627112 -0.006844
C52   C     C_R   0.208701 0.731304 0.634901 -0.021457
C53   C     C_R   0.276874 0.218449 0.634457 0.023094
C54   C     C_R   0.252855 0.808710 0.625681 -0.002837
C55   C     C_R   0.776882 0.718456 0.634457 0.023094
C56   C     C_R   0.274002 0.787326 0.377640 -0.154531
C57   C     C_R   0.752854 0.308711 0.625681 -0.002835
C58   C     C_R   0.318684 0.190936 0.507627 -0.001189
C59   C     C_R   0.297039 0.829612 0.500297 -0.003744
C60   C     C_R   0.818683 0.690935 0.507625 -0.001193
C61   C     C_R   0.797038 0.329613 0.500298 -0.003743
C62   C     C_3   0.887471 0.975694 0.851158 -0.094630
C63   C     C_3   0.387469 0.475683 0.851157 -0.094631
C64   C     C_3   0.603181 0.680219 0.063498 -0.136308
C65   C     C_3   0.801854 0.176830 0.040704 -0.146657
C66   C     C_3   0.103199 0.180201 0.063532 -0.136298
C67   C     C_R   0.788714 0.723420 0.381152 -0.162071
C68   C     C_3   0.301854 0.676824 0.040700 -0.146663
C69   C     C_R   0.774000 0.287328 0.377640 -0.154530
C70   C     C_R   0.719454 0.781976 0.378749 -0.143323
Cu1   Cu    Cu3+1 0.499990 0.000000 0.640660 1.070811
Cu2   Cu    Cu3+1 0.999990 0.500000 0.640660 1.070814
Cu3   Cu    Cu3+1 0.500010 0.000000 0.359340 1.031003
Cu4   Cu    Cu3+1 0.000010 0.500000 0.359340 1.031003
F1    F     F_    0.690654 0.997763 0.728533 -0.608811
F2    F     F_    0.190654 0.497762 0.728536 -0.608816
F3    F     F_    0.343559 0.030382 0.861471 -0.689020
F4    F     F_    0.843560 0.530388 0.861471 -0.689012
F5    F     F_    0.690741 0.999734 0.269514 -0.612425
F6    F     F_    0.190742 0.499733 0.269511 -0.612426
H1    H     H_    0.320066 0.204832 0.283354 0.133842
H2    H     H_    0.245506 0.870617 0.966238 0.141111
H3    H     H_    0.790478 0.705256 0.988496 0.110818
H4    H     H_    0.745506 0.370618 0.966239 0.141109
H5    H     H_    0.567622 0.789607 0.740946 0.143772
H6    H     H_    0.676166 0.137511 0.790980 0.203932
H7    H     H_    0.067607 0.289596 0.740918 0.143780
H8    H     H_    0.176168 0.637510 0.790980 0.203936
H9    H     H_    0.702414 0.810002 0.280456 0.168437
H10   H     H_    0.693323 0.192476 0.284354 0.203819
H11   H     H_    0.202433 0.310018 0.280460 0.168409
H12   H     H_    0.302850 0.805053 0.278645 0.149674
H13   H     H_    0.193326 0.692474 0.284353 0.203820
H14   H     H_    0.359205 0.023749 0.130069 0.122064
H15   H     H_    0.859206 0.523753 0.130069 0.122063
H16   H     H_    0.805055 0.924895 0.125719 0.149213
H17   H     H_    0.305052 0.424887 0.125719 0.149213
H18   H     H_    0.908350 0.996088 0.957468 0.079042
H19   H     H_    0.863401 0.029451 0.789637 0.158520
H20   H     H_    0.949330 0.950268 0.798479 0.144627
H21   H     H_    0.408347 0.496078 0.957466 0.079038
H22   H     H_    0.363400 0.529439 0.789633 0.158520
H23   H     H_    0.820047 0.704816 0.283348 0.133849
H24   H     H_    0.449327 0.450255 0.798481 0.144625
H25   H     H_    0.666297 0.664128 0.121622 0.118407
H26   H     H_    0.582982 0.628163 0.992499 0.116130
H27   H     H_    0.547408 0.688515 0.140997 0.137335
H28   H     H_    0.853621 0.226462 0.058198 0.128880
H29   H     H_    0.823874 0.135578 0.953237 0.103362
H30   H     H_    0.799867 0.137640 0.134386 0.158565
H31   H     H_    0.166308 0.164204 0.121748 0.118398
H32   H     H_    0.083105 0.128094 0.992566 0.116155
H33   H     H_    0.047377 0.188464 0.140958 0.137328
H34   H     H_    0.802847 0.305055 0.278645 0.149673
H35   H     H_    0.353624 0.726453 0.058189 0.128861
H36   H     H_    0.323869 0.635569 0.953233 0.103355
H37   H     H_    0.299866 0.637636 0.134383 0.158571
H38   H     H_    0.384205 0.187408 0.784401 0.170290
H39   H     H_    0.269024 0.926765 0.733370 0.215690
H40   H     H_    0.884224 0.687421 0.784388 0.170274
H41   H     H_    0.769026 0.426765 0.733372 0.215688
H42   H     H_    0.290445 0.205230 0.988493 0.110808
N1    N     N_R   0.501200 0.000000 0.147910 -0.263735
N2    N     N_R   0.001200 0.500000 0.147910 -0.263732
N3    N     N_R   0.501270 0.000000 0.852040 -0.226105
N4    N     N_R   0.001270 0.500000 0.852040 -0.226104
O1    O     O_R   0.409820 0.909830 0.618810 -0.499998
O2    O     O_R   0.590170 0.909830 0.618760 -0.446335
O3    O     O_R   0.090170 0.590170 0.618760 -0.468758
O4    O     O_R   0.090170 0.409830 0.618760 -0.446335
O5    O     O_R   0.590190 0.090180 0.381190 -0.424895
O6    O     O_R   0.590190 0.909820 0.381190 -0.437452
O7    O     O_R   0.090190 0.590180 0.381190 -0.424895
O8    O     O_R   0.090190 0.409820 0.381190 -0.437456
O9    O     O_3   0.820420 0.912933 0.854640 -0.533228
O10   O     O_3   0.320416 0.412923 0.854640 -0.533226
O11   O     O_3   0.613873 0.755343 0.991555 -0.593537
O12   O     O_R   0.409820 0.090170 0.618810 -0.474787
O13   O     O_3   0.714257 0.211692 0.018347 -0.587058
O14   O     O_3   0.113827 0.255310 0.991525 -0.593522
O15   O     O_3   0.214259 0.711692 0.018346 -0.587052
O16   O     O_R   0.909820 0.409830 0.618810 -0.500000
O17   O     O_R   0.909820 0.590170 0.618810 -0.474781
O18   O     O_R   0.409840 0.909830 0.381240 -0.526580
O19   O     O_R   0.409840 0.090170 0.381240 -0.531388
O20   O     O_R   0.909840 0.409830 0.381240 -0.526577
O21   O     O_R   0.909840 0.590170 0.381240 -0.531390
O22   O     O_R   0.590170 0.090170 0.618760 -0.468755

loop_
_geom_bond_atom_site_label_1
_geom_bond_atom_site_label_2
_ccdc_geom_bond_type
C44   C49   A    
C33   C55   A    
Cu2   O17   S    
Cu4   N2    S    
Cu3   O5    S    
C66   H33   S    
C29   N3    A    
C38   H3    S    
C16   F1    S    
C36   C42   A    
C36   H42   S    
C4    C8    A    
Cu1   O1    S    
C30   N4    A    
C67   H23   S    
Cu2   O3    S    
C39   C41   A    
Cu2   O16   S    
C34   O17   A    
C64   H25   S    
C28   O8    A    
C22   C29   A    
C39   H4    S    
C3    C7    A    
C1    C59   S    
C18   N3    A    
C11   C14   A    
C6    C25   S    
C14   O9    S    
Cu4   O7    S    
C24   N2    A    
C3    H11   S    
C9    F5    S    
C57   C61   A    
C2    H10   S    
C11   H16   S    
C20   N1    A    
C62   H18   S    
C60   C67   A    
Cu3   N1    S    
C17   F2    S    
C41   C46   A    
C48   H8    S    
C23   O16   A    
C14   C16   A    
C66   H31   S    
C2    C69   A    
C43   C48   A    
C8    C52   A    
C65   H28   S    
C28   O4    A    
C63   H21   S    
C64   O11   S    
C12   C58   S    
Cu1   O22   S    
Cu3   O6    S    
C55   C60   A    
C4    C56   A    
C34   C60   S    
C22   H14   S    
C5    C49   A    
C2    C6    A    
C63   H22   S    
C32   C54   A    
C52   C54   A    
Cu1   O12   S    
C40   C44   A    
C54   C59   A    
C10   C21   A    
C69   H34   S    
C23   O20   A    
C45   C58   A    
C42   O14   S    
C27   O7    A    
Cu4   O21   S    
C35   H41   S    
C62   O9    S    
Cu2   Cu4   S    
C24   H15   S    
Cu1   Cu3   S    
C10   F6    S    
C47   C51   A    
C15   O10   S    
C49   C55   A    
C3    C45   A    
C31   C53   A    
C7    C28   S    
C5    C26   S    
Cu2   N4    S    
C51   C53   A    
C30   F4    S    
C12   O19   A    
C37   C43   A    
C35   C39   A    
C31   H38   S    
C5    C70   A    
C68   H37   S    
C34   O21   A    
C9    C20   A    
C23   C61   S    
C40   O11   S    
C29   F3    S    
C68   O15   S    
C26   O2    A    
C32   C37   A    
C6    C50   A    
Cu2   O4    S    
C9    C11   A    
C65   H29   S    
C68   H36   S    
C62   H20   S    
C13   C15   A    
C27   O3    A    
C12   O12   A    
Cu1   O2    S    
C43   O15   S    
C70   H9    S    
C32   H39   S    
C44   H5    S    
C25   O5    A    
C26   O6    A    
C64   H27   S    
C22   N1    A    
C61   C69   A    
C15   C17   A    
C19   C21   A    
C50   C57   A    
Cu4   O20   S    
C45   H1    S    
C1    O1    A    
C63   H24   S    
C10   C13   A    
C53   C58   A    
C64   H26   S    
C46   C50   A    
C19   N4    A    
C33   C38   A    
C56   C59   A    
C35   C57   A    
C67   C70   A    
C63   O10   S    
C21   N2    A    
C7    C51   A    
C1    O18   A    
C38   C40   A    
C62   H19   S    
Cu4   O8    S    
C17   C19   A    
C25   O22   A    
C18   C20   A    
C42   C47   A    
C13   H17   S    
C37   H2    S    
C24   C30   A    
C65   H30   S    
C41   O13   S    
C68   H35   S    
C4    H13   S    
C65   O13   S    
C48   C52   A    
C66   O14   S    
C33   H40   S    
C16   C18   A    
Cu3   O19   S    
C8    C27   S    
C31   C36   A    
Cu1   N3    S    
C66   H32   S    
C56   H12   S    
C47   H7    S    
C46   H6    S    
Cu3   O18   S    
