data_mof_unit_60580.cif
_audit_creation_date              2012-12-10T19:29:30-0500
_audit_creation_method            fapswitch 2.2
_symmetry_space_group_name_H-M    P1
_symmetry_Int_Tables_number       1
_space_group_crystal_system       monoclinic
_cell_length_a                    22.256171
_cell_length_b                    22.253815
_cell_length_c                    14.944448
_cell_angle_alpha                 90.0
_cell_angle_beta                  90.002036
_cell_angle_gamma                 90.0
_cell_volume                      7401.75661964

loop_
_atom_site_label
_atom_site_type_symbol
_atom_type_description
_atom_site_fract_x
_atom_site_fract_y
_atom_site_fract_z
_atom_type_partial_charge
C1    C     C_R   0.418737 0.918730 0.499986 0.906988
C2    C     C_1   0.663352 0.836640 0.500021 -0.085824
C3    C     C_1   0.663352 0.163360 0.500021 -0.085825
C4    C     C_1   0.336647 0.836640 0.499979 -0.085825
C5    C     C_1   0.836647 0.663360 0.499979 -0.085824
C6    C     C_1   0.163353 0.336640 0.500021 -0.085827
C7    C     C_1   0.163353 0.663360 0.500021 -0.085825
C8    C     C_1   0.836647 0.336640 0.499979 -0.085825
C9    C     C_1   0.500017 0.000000 0.189690 0.027577
C10   C     C_1   0.499983 0.000000 0.810310 0.027577
C11   C     C_1   0.000017 0.500000 0.189690 0.027577
C12   C     C_R   0.581263 0.081270 0.500014 0.906989
C13   C     C_1   0.999983 0.500000 0.810310 0.027577
C14   C     C_3   0.471587 0.950792 0.969891 -0.151581
C15   C     C_3   0.528413 0.049208 0.030109 -0.151581
C16   C     C_3   0.528409 0.950789 0.030109 -0.151583
C17   C     C_3   0.471591 0.049210 0.969891 -0.151578
C18   C     C_3   0.971568 0.450803 0.969891 -0.151579
C19   C     C_3   0.028432 0.549197 0.030109 -0.151580
C20   C     C_3   0.028390 0.450779 0.030109 -0.151578
C21   C     C_3   0.971610 0.549221 0.969891 -0.151583
C22   C     C_3   0.700967 0.729040 0.542212 -0.165845
C23   C     C_R   0.581263 0.918730 0.500014 0.906989
C24   C     C_3   0.299032 0.270958 0.457782 -0.165848
C25   C     C_3   0.298914 0.729159 0.457354 -0.165832
C26   C     C_3   0.700839 0.271087 0.541739 -0.165863
C27   C     C_3   0.200968 0.229042 0.542218 -0.165848
C28   C     C_3   0.799033 0.770960 0.457788 -0.165845
C29   C     C_3   0.799161 0.228912 0.458261 -0.165863
C30   C     C_3   0.201086 0.770841 0.542646 -0.165831
C31   C     C_3   0.229191 0.201096 0.457278 -0.166117
C32   C     C_3   0.770807 0.798902 0.542728 -0.166114
C33   C     C_3   0.770676 0.201229 0.543198 -0.166102
C34   C     C_R   0.418737 0.081270 0.499986 0.906988
C35   C     C_3   0.229074 0.799021 0.457705 -0.166128
C36   C     C_3   0.729193 0.701098 0.457271 -0.166114
C37   C     C_3   0.270809 0.298904 0.542722 -0.166117
C38   C     C_3   0.270926 0.700979 0.542295 -0.166128
C39   C     C_3   0.729323 0.298771 0.456802 -0.166102
C40   C     C_1   0.374282 0.125726 0.499978 -0.188578
C41   C     C_1   0.625718 0.874273 0.500021 -0.188575
C42   C     C_1   0.625718 0.125726 0.500021 -0.188576
C43   C     C_1   0.374282 0.874273 0.499978 -0.188576
C44   C     C_1   0.874282 0.625726 0.499978 -0.188575
C45   C     C_R   0.918737 0.418730 0.499986 0.906988
C46   C     C_1   0.125718 0.374273 0.500021 -0.188577
C47   C     C_1   0.125718 0.625726 0.500021 -0.188576
C48   C     C_1   0.874282 0.374273 0.499979 -0.188576
C49   C     C_3   0.263915 0.235812 0.584928 -0.163683
C50   C     C_3   0.736088 0.764192 0.415072 -0.163688
C51   C     C_3   0.736346 0.235550 0.415075 -0.163683
C52   C     C_3   0.264150 0.763954 0.584928 -0.163688
C53   C     C_3   0.763912 0.735808 0.584928 -0.163688
C54   C     C_3   0.236085 0.264188 0.415072 -0.163683
C55   C     C_3   0.235850 0.736046 0.415071 -0.163688
C56   C     C_R   0.081263 0.581270 0.500014 0.906989
C57   C     C_3   0.763654 0.264450 0.584925 -0.163684
C58   C     C_3   0.291240 0.208764 0.499988 0.211671
C59   C     C_3   0.708760 0.791236 0.500012 0.211670
C60   C     C_3   0.708760 0.208764 0.500012 0.211671
C61   C     C_3   0.291240 0.791236 0.499988 0.211670
C62   C     C_3   0.791240 0.708764 0.499988 0.211670
C63   C     C_3   0.208760 0.291236 0.500012 0.211671
C64   C     C_3   0.208760 0.708764 0.500012 0.211670
C65   C     C_3   0.791240 0.291236 0.499988 0.211671
C66   C     C_3   0.443187 0.000002 0.030122 -0.151423
C67   C     C_R   0.081263 0.418730 0.500014 0.906988
C68   C     C_3   0.556813 0.999997 0.969877 -0.151427
C69   C     C_3   0.943187 0.500024 0.030122 -0.151427
C70   C     C_3   0.056813 0.499976 0.969877 -0.151423
C71   C     C_3   0.500009 0.000000 0.089228 0.121696
C72   C     C_3   0.499991 0.000000 0.910772 0.121697
C73   C     C_3   0.000009 0.500000 0.089228 0.121697
C74   C     C_3   0.999991 0.500000 0.910772 0.121696
C75   C     C_R   0.918737 0.581270 0.499986 0.906989
C76   C     C_1   0.336647 0.163360 0.499979 -0.085827
H1    H     H_    0.603834 0.999996 0.945115 0.127433
H2    H     H_    0.286715 0.339965 0.577635 0.131220
H3    H     H_    0.286928 0.659821 0.576858 0.131216
H4    H     H_    0.713526 0.339725 0.421501 0.131229
H5    H     H_    0.659799 0.713011 0.576707 0.131461
H6    H     H_    0.340198 0.286986 0.423281 0.131458
H7    H     H_    0.339985 0.713227 0.422504 0.131468
H8    H     H_    0.659567 0.287221 0.575848 0.131451
H9    H     H_    0.159802 0.213014 0.576719 0.131458
H10   H     H_    0.840201 0.786989 0.423292 0.131461
H11   H     H_    0.840433 0.212779 0.424152 0.131451
H12   H     H_    0.396166 0.000004 0.054885 0.127437
H13   H     H_    0.160015 0.786773 0.577496 0.131468
H14   H     H_    0.723620 0.776888 0.345670 0.132131
H15   H     H_    0.276386 0.223118 0.654330 0.132132
H16   H     H_    0.276812 0.776456 0.654330 0.132130
H17   H     H_    0.724090 0.222642 0.345676 0.132133
H18   H     H_    0.223614 0.276882 0.345670 0.132132
H19   H     H_    0.776380 0.723112 0.654330 0.132132
H20   H     H_    0.775910 0.277357 0.654323 0.132133
H21   H     H_    0.223188 0.723544 0.345670 0.132130
H22   H     H_    0.551922 0.910061 0.054860 0.127348
H23   H     H_    0.103834 0.499956 0.945115 0.127437
H24   H     H_    0.448078 0.089939 0.945140 0.127350
H25   H     H_    0.448071 0.910065 0.945140 0.127348
H26   H     H_    0.551929 0.089935 0.054860 0.127351
H27   H     H_    0.051888 0.410041 0.054860 0.127350
H28   H     H_    0.948112 0.589959 0.945140 0.127347
H29   H     H_    0.948036 0.410085 0.945140 0.127350
H30   H     H_    0.051964 0.589915 0.054860 0.127347
H31   H     H_    0.896166 0.500044 0.054885 0.127433
H32   H     H_    0.213285 0.160035 0.422365 0.131220
H33   H     H_    0.786712 0.839962 0.577646 0.131224
H34   H     H_    0.786474 0.160275 0.578499 0.131229
H35   H     H_    0.213072 0.840178 0.423142 0.131216
H36   H     H_    0.713288 0.660038 0.422354 0.131224
N1    N     N_1   0.500020 0.000000 0.268010 -0.090030
N2    N     N_1   0.499980 0.000000 0.731990 -0.090030
N3    N     N_1   0.000020 0.500000 0.268010 -0.090030
N4    N     N_1   0.999980 0.500000 0.731990 -0.090030
O1    O     O_R   0.438390 0.938390 0.574460 -0.611728
O2    O     O_R   0.561600 0.061610 0.574480 -0.611559
O3    O     O_R   0.561600 0.938390 0.574480 -0.611560
O4    O     O_R   0.438400 0.061610 0.425520 -0.611558
O5    O     O_R   0.938400 0.438390 0.425520 -0.611559
O6    O     O_R   0.061600 0.561610 0.574480 -0.611559
O7    O     O_R   0.061600 0.438390 0.574480 -0.611558
O8    O     O_R   0.938400 0.561610 0.425520 -0.611560
O9    O     O_R   0.561610 0.061610 0.425540 -0.611728
O10   O     O_R   0.561610 0.938390 0.425540 -0.611729
O11   O     O_R   0.438390 0.061610 0.574460 -0.611727
O12   O     O_R   0.938390 0.438390 0.574460 -0.611728
O13   O     O_R   0.061610 0.561610 0.425540 -0.611728
O14   O     O_R   0.061610 0.438390 0.425540 -0.611727
O15   O     O_R   0.938390 0.561610 0.574460 -0.611729
O16   O     O_R   0.438400 0.938390 0.425520 -0.611559
Zn1   Zn    Zn3+2 0.500000 1.000000 0.599450 0.972938
Zn2   Zn    Zn3+2 0.500000 0.000000 0.400550 0.972938
Zn3   Zn    Zn3+2 0.000000 0.500000 0.599450 0.972938
Zn4   Zn    Zn3+2 0.000000 0.500000 0.400550 0.972938

loop_
_geom_bond_atom_site_label_1
_geom_bond_atom_site_label_2
_ccdc_geom_bond_type
O9    Zn2   S    
C39   C51   S    
C3    C42   T    
C30   C64   S    
C53   H19   S    
C31   H32   S    
C20   C73   S    
C1    O16   A    
O1    Zn1   S    
C69   H31   S    
C58   C76   S    
N4    Zn3   S    
C17   C66   S    
O3    Zn1   S    
C30   C35   S    
C34   C40   S    
C50   C59   S    
C31   C58   S    
C19   C21   S    
O15   Zn3   S    
C52   C61   S    
C23   O3    A    
C26   C39   S    
C38   C52   S    
N3    Zn4   S    
C45   O12   A    
C24   C54   S    
C29   C33   S    
C27   H9    S    
C24   H6    S    
O5    Zn4   S    
C12   C42   S    
C21   H28   S    
C28   C50   S    
C1    C43   S    
C36   C50   S    
C75   O15   A    
C34   O11   A    
C57   H20   S    
C70   C74   S    
C33   C57   S    
C69   C73   S    
C16   C68   S    
C14   C16   S    
C11   N3    T    
O4    Zn2   S    
C56   O13   A    
C10   N2    T    
C3    C60   S    
C18   C69   S    
C8    C65   S    
C15   H26   S    
C39   C65   S    
C20   C70   S    
C16   C71   S    
C49   H15   S    
C30   H13   S    
C36   C62   S    
C37   C63   S    
C50   H14   S    
C22   C53   S    
C38   C64   S    
C34   O4    A    
C7    C64   S    
C54   H18   S    
C32   H33   S    
O8    Zn4   S    
C27   C31   S    
C75   O8    A    
C22   H5    S    
C9    C71   S    
C28   C32   S    
C11   C73   S    
O12   Zn3   S    
C22   C59   S    
C20   H27   S    
C2    C59   S    
C14   H25   S    
C25   C61   S    
C12   O9    A    
C45   O5    A    
C35   C55   S    
C4    C61   S    
C49   C58   S    
C40   C76   T    
C21   C69   S    
C7    C47   T    
C6    C63   S    
C44   C75   S    
C8    C48   T    
C36   H36   S    
C38   H3    S    
C25   C38   S    
O13   Zn4   S    
C37   C49   S    
C53   C62   S    
C66   C71   S    
C19   C73   S    
C68   C72   S    
C55   C64   S    
C55   H21   S    
C24   C37   S    
C14   C66   S    
C35   C61   S    
C1    O1    A    
O2    Zn1   S    
C27   C63   S    
C22   C36   S    
C51   H17   S    
C23   O10   A    
C29   C65   S    
C24   C58   S    
C5    C44   T    
C33   C60   S    
N1    Zn2   S    
C28   H10   S    
C12   O2    A    
C52   H16   S    
C67   O14   A    
C32   C53   S    
C35   H35   S    
C70   H23   S    
C29   C51   S    
C45   C48   S    
C68   H1    S    
C15   C17   S    
C30   C52   S    
C26   H8    S    
C6    C46   T    
C14   C72   S    
O14   Zn4   S    
O11   Zn1   S    
C57   C65   S    
C67   O7    A    
C28   C62   S    
C51   C60   S    
C4    C43   T    
C15   C71   S    
C37   H2    S    
C23   C41   S    
C9    N1    T    
C39   H4    S    
C18   H29   S    
C46   C67   S    
C66   H12   S    
C16   H22   S    
O16   Zn2   S    
C15   C68   S    
C21   C74   S    
C26   C57   S    
N2    Zn1   S    
C25   C55   S    
C5    C62   S    
C18   C20   S    
C31   C54   S    
C17   H24   S    
O6    Zn3   S    
C29   H11   S    
C13   N4    T    
C19   H30   S    
C13   C74   S    
O10   Zn2   S    
C17   C72   S    
C18   C74   S    
C54   C63   S    
O7    Zn3   S    
C25   H7    S    
C19   C70   S    
C33   H34   S    
C2    C41   T    
C32   C59   S    
C26   C60   S    
C27   C49   S    
C56   O6    A    
C47   C56   S    
C10   C72   S    
