data_mof_unit_31470.cif
_audit_creation_date              2012-12-11T14:40:10-0500
_audit_creation_method            fapswitch 2.2
_symmetry_space_group_name_H-M    P1
_symmetry_Int_Tables_number       1
_space_group_crystal_system       triclinic
_cell_length_a                    19.608085
_cell_length_b                    10.870387
_cell_length_c                    19.510371
_cell_angle_alpha                 90.0
_cell_angle_beta                  97.639537
_cell_angle_gamma                 89.99992
_cell_volume                      4121.67481919

loop_
_atom_site_label
_atom_site_type_symbol
_atom_type_description
_atom_site_fract_x
_atom_site_fract_y
_atom_site_fract_z
_atom_type_partial_charge
C1    C     C_R   0.708890 0.997250 0.366941 0.546369
C2    C     C_R   0.291110 0.997249 0.633059 0.546367
C3    C     C_R   0.208284 0.497970 0.366682 0.540380
C4    C     C_R   0.791717 0.497974 0.633318 0.540380
C5    C     C_3   0.729020 0.330393 0.488166 -0.119905
C6    C     C_3   0.270965 0.330369 0.511834 -0.119896
C7    C     C_3   0.191503 0.869007 0.492461 -0.146815
C8    C     C_3   0.808497 0.869015 0.507542 -0.146809
C9    C     C_3   0.751294 0.411271 0.430450 0.049192
C10   C     C_3   0.248705 0.411273 0.569550 0.049202
C11   C     C_3   0.240346 0.875229 0.437497 0.048233
C12   C     C_3   0.759652 0.875234 0.562504 0.048233
C13   C     C_3   0.723446 0.526942 0.461249 -0.142525
C14   C     C_3   0.276570 0.526929 0.538746 -0.142514
C15   C     C_3   0.257025 0.010954 0.453998 -0.124389
C16   C     C_3   0.742971 0.010958 0.546003 -0.124390
C17   C     C_3   0.795987 0.545820 0.503204 -0.171935
C18   C     C_3   0.204027 0.545834 0.496795 -0.171940
C19   C     C_3   0.318595 0.967119 0.506844 -0.142927
C20   C     C_3   0.681404 0.967120 0.493154 -0.142924
C21   C     C_3   0.823074 0.429168 0.470993 -0.097960
C22   C     C_3   0.176923 0.429197 0.529012 -0.097963
C23   C     C_3   0.301270 0.831294 0.489486 -0.103364
C24   C     C_3   0.698731 0.831296 0.510512 -0.103362
C25   C     C_3   0.801008 0.349546 0.529607 -0.099048
C26   C     C_3   0.198974 0.349551 0.470397 -0.099031
C27   C     C_3   0.252525 0.826146 0.545242 -0.125408
C28   C     C_3   0.747478 0.826153 0.454759 -0.125412
C29   C     C_3   0.774142 0.465864 0.561119 0.033427
C30   C     C_3   0.225858 0.465854 0.438880 0.033433
C31   C     C_3   0.270372 0.960309 0.562316 0.040720
C32   C     C_3   0.729628 0.960314 0.437684 0.040719
C33   C     C_3   0.521274 0.274329 0.969653 -0.103624
C34   C     C_3   0.478736 0.274340 0.030343 -0.103621
C35   C     C_3   0.021274 0.774327 0.969653 -0.103680
C36   C     C_3   0.978737 0.774338 0.030343 -0.103677
C37   C     C_3   0.568975 0.173096 0.004332 -0.144979
C38   C     C_3   0.431027 0.173116 0.995668 -0.144977
C39   C     C_3   0.068975 0.673093 0.004332 -0.145286
C40   C     C_3   0.931027 0.673114 0.995668 -0.145284
C41   C     C_3   0.526411 0.173477 0.064448 0.056841
C42   C     C_3   0.473590 0.173476 0.935552 0.056841
C43   C     C_3   0.026411 0.673475 0.064448 0.056675
C44   C     C_3   0.973590 0.673475 0.935552 0.056675
C45   C     C_R   0.535219 0.179994 0.338103 0.549989
C46   C     C_R   0.464778 0.179994 0.661896 0.549989
C47   C     C_R   0.035247 0.679940 0.338123 0.539803
C48   C     C_R   0.964753 0.679940 0.661877 0.539803
C49   C     C_3   0.478987 0.071907 0.030883 -0.106405
C50   C     C_3   0.521006 0.071897 0.969120 -0.106405
C51   C     C_3   0.978987 0.571906 0.030883 -0.106444
C52   C     C_3   0.021006 0.571895 0.969120 -0.106444
C53   C     C_1   0.763124 0.425442 0.904347 -0.005313
C54   C     C_1   0.236879 0.425433 0.095655 -0.005312
C55   C     C_1   0.263121 0.925433 0.904345 -0.005603
C56   C     C_1   0.736880 0.925429 0.095656 -0.005603
C57   C     C_1   0.747478 0.407864 0.034566 -0.047967
C58   C     C_1   0.252524 0.407857 0.965435 -0.047969
C59   C     C_1   0.247476 0.907855 0.034565 -0.048223
C60   C     C_1   0.752525 0.907852 0.965435 -0.048224
C61   C     C_1   0.754473 0.415324 0.963911 -0.047183
C62   C     C_1   0.245530 0.415315 0.036091 -0.047182
C63   C     C_1   0.254470 0.915314 0.963910 -0.046953
C64   C     C_1   0.745532 0.915309 0.036091 -0.046953
C65   C     C_1   0.742451 0.394651 0.094831 -0.005472
C66   C     C_1   0.257551 0.394646 0.905170 -0.005473
C67   C     C_1   0.242449 0.894646 0.094831 -0.007706
C68   C     C_1   0.757551 0.894645 0.905169 -0.007705
C69   C     C_R   0.740325 0.366287 0.360528 0.540992
C70   C     C_R   0.259675 0.366288 0.639472 0.540994
C71   C     C_R   0.227802 0.821568 0.369080 0.532188
C72   C     C_R   0.772197 0.821573 0.630920 0.532189
C73   C     C_R   0.721816 0.952685 0.163595 0.545780
C74   C     C_R   0.278183 0.952684 0.836405 0.545778
C75   C     C_R   0.221816 0.452686 0.163595 0.550004
C76   C     C_R   0.778185 0.452691 0.836407 0.550007
C77   C     C_R   0.557895 0.181863 0.135445 0.555728
C78   C     C_R   0.442106 0.181863 0.864555 0.555727
C79   C     C_R   0.057895 0.681863 0.135446 0.555730
C80   C     C_R   0.942106 0.681863 0.864554 0.555728
C81   C     C_R   0.735783 0.360290 0.164203 0.537858
C82   C     C_R   0.264217 0.360287 0.835797 0.537860
C83   C     C_R   0.235784 0.860293 0.164206 0.549080
C84   C     C_R   0.764216 0.860294 0.835793 0.549079
C85   C     C_1   0.485838 0.172227 0.594704 0.004771
C86   C     C_1   0.514158 0.172227 0.405294 0.004788
C87   C     C_1   0.985804 0.671848 0.594689 -0.012547
C88   C     C_1   0.014197 0.671848 0.405312 -0.012545
C89   C     C_1   0.504149 0.169039 0.464741 -0.035055
C90   C     C_1   0.495846 0.169039 0.535256 -0.035070
C91   C     C_1   0.004177 0.668287 0.464750 -0.056406
C92   C     C_1   0.995824 0.668287 0.535251 -0.056409
C93   C     C_3   0.702840 0.447022 0.520168 0.001596
C94   C     C_3   0.297162 0.446983 0.479828 0.001590
C95   C     C_3   0.209461 0.003285 0.510840 -0.008491
C96   C     C_3   0.790538 0.003292 0.489162 -0.008486
Cr1   Cr    Cr6+3 0.765830 0.160660 0.268180 1.045956
Cr2   Cr    Cr6+3 0.234170 0.160660 0.731820 1.045959
Cr3   Cr    Cr6+3 0.265830 0.660660 0.268180 1.041835
Cr4   Cr    Cr6+3 0.734170 0.660660 0.731820 1.041841
Cr5   Cr    Cr6+3 0.612110 0.009150 0.248770 1.027529
Cr6   Cr    Cr6+3 0.387890 0.009150 0.751230 1.027531
Cr7   Cr    Cr6+3 0.112110 0.509150 0.248770 1.026365
Cr8   Cr    Cr6+3 0.887890 0.509150 0.751230 1.026366
Cr9   Cr    Cr6+3 0.615930 0.324050 0.248450 1.032315
Cr10  Cr    Cr6+3 0.384070 0.324050 0.751550 1.032313
Cr11  Cr    Cr6+3 0.115930 0.824050 0.248450 1.029575
Cr12  Cr    Cr6+3 0.884070 0.824050 0.751550 1.029576
H1    H     H_    0.626085 0.173056 0.009828 0.111845
H2    H     H_    0.373916 0.173092 0.990172 0.111844
H3    H     H_    0.126085 0.673052 0.009828 0.111111
H4    H     H_    0.873916 0.673090 0.990172 0.111110
O1    O     O_R   0.783230 0.287800 0.346510 -0.505830
O2    O     O_R   0.216770 0.287800 0.653490 -0.505824
O3    O     O_R   0.283230 0.787800 0.346510 -0.509460
O4    O     O_R   0.716770 0.787800 0.653490 -0.509459
O5    O     O_R   0.554500 0.081650 0.170370 -0.498498
O6    O     O_R   0.445500 0.081650 0.829630 -0.498499
O7    O     O_R   0.054500 0.581650 0.170370 -0.498137
O8    O     O_R   0.945500 0.581650 0.829630 -0.498139
O9    O     O_R   0.545430 0.285140 0.163100 -0.513349
O10   O     O_R   0.454570 0.285140 0.836900 -0.513347
O11   O     O_R   0.045430 0.785140 0.163100 -0.513417
O12   O     O_R   0.954570 0.785140 0.836900 -0.513415
O13   O     O_R   0.677850 0.374730 0.185500 -0.508378
O14   O     O_R   0.322150 0.374730 0.814500 -0.508378
O15   O     O_R   0.177850 0.874730 0.185500 -0.501901
O16   O     O_R   0.822150 0.874730 0.814500 -0.501901
O17   O     O_3   0.664630 0.164620 0.255130 -0.295815
O18   O     O_3   0.335370 0.164620 0.744870 -0.295815
O19   O     O_3   0.164630 0.664620 0.255130 -0.309750
O20   O     O_3   0.835370 0.664620 0.744870 -0.309752
O21   O     O_R   0.760130 0.037060 0.338610 -0.488086
O22   O     O_R   0.239870 0.037060 0.661390 -0.488083
O23   O     O_R   0.260130 0.537060 0.338610 -0.497862
O24   O     O_R   0.739870 0.537060 0.661390 -0.497856
O25   O     O_R   0.666620 0.921370 0.332440 -0.510609
O26   O     O_R   0.333380 0.921370 0.667560 -0.510608
O27   O     O_R   0.166620 0.421370 0.332440 -0.510027
O28   O     O_R   0.833380 0.421370 0.667560 -0.510022
O29   O     O_R   0.557170 0.082420 0.312350 -0.509843
O30   O     O_R   0.442830 0.082420 0.687650 -0.509839
O31   O     O_R   0.057170 0.582420 0.312350 -0.504882
O32   O     O_R   0.942830 0.582420 0.687650 -0.504883
O33   O     O_R   0.548310 0.285980 0.316250 -0.486177
O34   O     O_R   0.451690 0.285980 0.683750 -0.486183
O35   O     O_R   0.048310 0.785980 0.316250 -0.502782
O36   O     O_R   0.951690 0.785980 0.683750 -0.502781
O37   O     O_R   0.680520 0.375500 0.327470 -0.503056
O38   O     O_R   0.319480 0.375500 0.672530 -0.503058
O39   O     O_R   0.180520 0.875500 0.327470 -0.492296
O40   O     O_R   0.819480 0.875500 0.672530 -0.492298
O41   O     O_R   0.780350 0.286970 0.193350 -0.505451
O42   O     O_R   0.219650 0.286970 0.806650 -0.505451
O43   O     O_R   0.280350 0.786970 0.193350 -0.499794
O44   O     O_R   0.719650 0.786970 0.806650 -0.499795
O45   O     O_R   0.757460 0.036290 0.196640 -0.490883
O46   O     O_R   0.242540 0.036290 0.803360 -0.490883
O47   O     O_R   0.257460 0.536290 0.196640 -0.489138
O48   O     O_R   0.742540 0.536290 0.803360 -0.489138
O49   O     O_R   0.663740 0.920540 0.179290 -0.509221
O50   O     O_R   0.336260 0.920540 0.820710 -0.509219
O51   O     O_R   0.163740 0.420540 0.179290 -0.507190
O52   O     O_R   0.836260 0.420540 0.820710 -0.507191
H5    H     H_    0.700298 0.242567 0.479653 0.097070
H6    H     H_    0.299673 0.242523 0.520348 0.097059
H7    H     H_    0.138356 0.831591 0.484632 0.116472
H8    H     H_    0.861643 0.831596 0.515372 0.116472
C97   C     C_1   0.636484 0.455160 0.546914 0.224498
N1    N     N_1   0.584142 0.461590 0.567951 -0.271164
C98   C     C_1   0.363524 0.455070 0.453075 0.224481
N2    N     N_1   0.415871 0.461455 0.432034 -0.271153
C99   C     C_1   0.155151 0.087549 0.526311 0.218373
N3    N     N_1   0.111570 0.152016 0.539008 -0.282924
C100  C     C_1   0.844850 0.087553 0.473694 0.218377
N4    N     N_1   0.888434 0.152014 0.460999 -0.282934
H9    H     H_    0.688160 0.592286 0.430782 0.120283
H10   H     H_    0.311861 0.592278 0.569205 0.120283
H11   H     H_    0.257887 0.085543 0.415252 0.126987
H12   H     H_    0.742106 0.085546 0.584749 0.126981
H13   H     H_    0.370907 0.007963 0.514411 0.117952
H14   H     H_    0.629091 0.007962 0.485586 0.117950
H15   H     H_    0.827188 0.629863 0.512622 0.100033
H16   H     H_    0.172836 0.629889 0.487374 0.100025
H17   H     H_    0.872346 0.422541 0.449006 0.152578
H18   H     H_    0.127650 0.422596 0.551002 0.152556
H19   H     H_    0.338859 0.759022 0.479812 0.142769
H20   H     H_    0.661142 0.759022 0.520185 0.142775
H21   H     H_    0.832397 0.278884 0.560303 0.153613
H22   H     H_    0.167574 0.278892 0.439702 0.153614
H23   H     H_    0.248536 0.757335 0.586392 0.134401
H24   H     H_    0.751476 0.757352 0.413605 0.134401
H25   H     H_    0.538791 0.357649 0.944060 0.144413
H26   H     H_    0.461226 0.357668 0.055934 0.144413
H27   H     H_    0.038792 0.857647 0.944060 0.144054
H28   H     H_    0.961226 0.857667 0.055933 0.144055
H29   H     H_    0.462374 0.989342 0.057777 0.136258
H30   H     H_    0.537611 0.989324 0.942228 0.136258
H31   H     H_    0.962374 0.489341 0.057778 0.135876
H32   H     H_    0.037611 0.489321 0.942228 0.135877

loop_
_geom_bond_atom_site_label_1
_geom_bond_atom_site_label_2
_ccdc_geom_bond_type
C46   O34   A    
C58   C62   S    
C29   C93   S    
C98   N2    T    
C6    H6    S    
C67   C83   S    
Cr10  O38   S    
C96   C100  S    
Cr3   O47   S    
Cr5   O17   S    
C17   C29   S    
C97   N1    T    
C14   C18   S    
C19   C23   S    
C35   C36   S    
C8    C96   S    
Cr1   O21   S    
C44   C80   S    
C19   C31   S    
C19   H13   S    
C80   O8    A    
C50   H30   S    
C7    C27   S    
C46   O30   A    
C38   C49   S    
C49   H29   S    
C99   N3    T    
C70   O2    A    
C15   C19   S    
C13   C93   S    
C69   O1    A    
C34   H26   S    
C2    O22   A    
C27   H23   S    
C45   O33   A    
C33   C42   S    
C78   O6    A    
C9    C69   S    
C38   C42   S    
C77   O5    A    
C15   C95   S    
C41   C77   S    
C11   C71   S    
Cr2   O2    S    
C4    O28   A    
C43   C79   S    
C73   O45   A    
C81   O41   A    
C35   H27   S    
C48   O32   A    
C75   O51   A    
Cr6   O26   S    
C7    H7    S    
C11   C23   S    
C9    C13   S    
C82   O14   A    
C73   O49   A    
C8    H8    S    
C59   C67   T    
Cr12  O40   S    
C55   C74   S    
C11   C15   S    
C58   C66   T    
C71   O39   A    
Cr2   O46   S    
C70   O38   A    
C6    C94   S    
C55   C63   T    
C56   C64   T    
C52   H32   S    
Cr11  O11   S    
C38   H2    S    
C37   H1    S    
C4    C29   S    
Cr6   O6    S    
C8    C12   S    
Cr9   O33   S    
C4    O24   A    
C46   C85   S    
Cr11  O39   S    
C44   C52   S    
C39   H3    S    
C39   C52   S    
C12   C72   S    
C33   H25   S    
C13   H9    S    
C18   C22   S    
C87   C92   T    
C45   O29   A    
Cr10  O10   S    
C34   C41   S    
C53   C61   T    
C84   O16   A    
Cr12  O12   S    
C1    O21   A    
C28   H24   S    
C41   C49   S    
C60   C64   S    
C7    C11   S    
Cr9   O37   S    
C25   C29   S    
C47   O35   A    
C16   C96   S    
C74   O46   A    
C27   C31   S    
C51   C52   S    
C2    O26   A    
C12   C16   S    
C36   C40   S    
C77   O9    A    
C40   H4    S    
C10   C14   S    
C83   O15   A    
C91   C92   S    
C74   O50   A    
Cr5   O25   S    
Cr9   O17   S    
C54   C62   T    
C72   O40   A    
C79   O11   A    
Cr1   O41   S    
C71   O3    A    
C1    C32   S    
C10   C22   S    
Cr8   O28   S    
C79   O7    A    
C2    C31   S    
C68   C84   S    
C22   H18   S    
C3    C30   S    
C35   C39   S    
C17   C21   S    
C36   H28   S    
C5    C9    S    
Cr7   O27   S    
C94   C98   S    
C66   C82   S    
Cr11  O35   S    
C17   H15   S    
C65   C81   S    
C100  N4    T    
C88   C91   T    
C28   C32   S    
C16   C20   S    
C93   C97   S    
Cr2   O18   S    
Cr8   O32   S    
C33   C34   S    
C48   C87   S    
Cr3   O23   S    
Cr12  O16   S    
C21   H17   S    
C35   C44   S    
C60   C68   T    
Cr10  O14   S    
C14   H10   S    
C51   H31   S    
C42   C50   S    
C18   C30   S    
C10   C70   S    
Cr11  O19   S    
C32   C96   S    
C26   C30   S    
C23   C27   S    
Cr8   O20   S    
C8    C28   S    
Cr6   O30   S    
Cr3   O43   S    
C59   C63   S    
C76   O52   A    
C53   C76   S    
C3    O27   A    
Cr4   O44   S    
Cr1   O1    S    
C9    C21   S    
C1    O25   A    
Cr6   O50   S    
C42   C78   S    
C20   H14   S    
C20   C32   S    
C75   O47   A    
Cr10  O18   S    
C21   C25   S    
C76   O48   A    
C56   C73   S    
C81   O13   A    
C72   O4    A    
C34   C38   S    
Cr5   O29   S    
C26   H22   S    
Cr7   O7    S    
C24   C28   S    
C47   O31   A    
C57   C65   T    
Cr4   O48   S    
C86   C89   T    
Cr7   O31   S    
Cr2   O22   S    
C5    C25   S    
C5    C93   S    
C85   C90   T    
Cr4   O20   S    
C57   C61   S    
Cr9   O13   S    
C40   C51   S    
C7    C95   S    
C12   C24   S    
Cr7   O51   S    
Cr10  O34   S    
C13   C17   S    
C24   H20   S    
C69   O37   A    
Cr4   O4    S    
Cr5   O49   S    
C15   H11   S    
C95   C99   S    
Cr5   O5    S    
C30   C94   S    
C25   H21   S    
C47   C88   S    
C23   H19   S    
Cr2   O42   S    
C84   O44   A    
C43   C51   S    
Cr8   O52   S    
C6    C26   S    
C31   C95   S    
C48   O36   A    
Cr3   O3    S    
C37   C50   S    
C14   C94   S    
C18   H16   S    
C45   C86   S    
C3    O23   A    
C5    H5    S    
C37   C41   S    
C78   O10   A    
C33   C37   S    
Cr12  O20   S    
C80   O12   A    
C6    C10   S    
Cr1   O17   S    
C54   C75   S    
C82   O42   A    
Cr4   O24   S    
C40   C44   S    
C83   O43   A    
C39   C43   S    
C49   C50   S    
C22   C26   S    
Cr9   O9    S    
C36   C43   S    
Cr11  O15   S    
Cr3   O19   S    
Cr12  O36   S    
C89   C90   S    
Cr7   O19   S    
C20   C24   S    
C16   H12   S    
Cr1   O45   S    
Cr8   O8    S    
Cr6   O18   S    
