data_mof_unit_59047.cif
_audit_creation_date              2012-12-10T20:37:25-0500
_audit_creation_method            fapswitch 2.2
_symmetry_space_group_name_H-M    P1
_symmetry_Int_Tables_number       1
_space_group_crystal_system       triclinic
_cell_length_a                    15.660481
_cell_length_b                    10.636884
_cell_length_c                    9.995898
_cell_angle_alpha                 91.20554
_cell_angle_beta                  91.185844
_cell_angle_gamma                 91.050728
_cell_volume                      1664.08521874

loop_
_atom_site_label
_atom_site_type_symbol
_atom_type_description
_atom_site_fract_x
_atom_site_fract_y
_atom_site_fract_z
_atom_type_partial_charge
C1    C     C_R   0.498580 0.261280 0.498728 0.911252
C2    C     C_3   0.083255 0.496705 0.499312 0.020894
C3    C     C_3   0.975142 0.547591 0.616835 0.529290
C4    C     C_3   0.916568 0.498602 0.501736 -0.068273
C5    C     C_3   0.029666 0.616090 0.513863 0.125528
C6    C     C_3   0.970169 0.567481 0.397733 -0.317734
C7    C     C_1   0.174150 0.497291 0.496921 0.021159
C8    C     C_1   0.825776 0.499316 0.503538 0.073750
C9    C     C_R   0.562053 0.065414 0.543173 -0.187113
C10   C     C_R   0.493085 0.129843 0.495823 -0.114525
C11   C     C_R   0.417537 0.063802 0.453336 0.180588
C12   C     C_R   0.338324 0.499208 0.498818 0.861023
C13   C     C_R   0.416789 0.930310 0.455543 0.170523
C14   C     C_R   0.490961 0.870032 0.504889 -0.130773
C15   C     C_R   0.559571 0.941053 0.553694 -0.045348
C16   C     C_3   0.646846 0.933727 0.617034 0.614595
C17   C     C_3   0.650718 0.079269 0.603481 0.308343
C18   C     C_R   0.428043 0.465468 0.067363 0.065366
C19   C     C_R   0.567256 0.548319 0.075074 0.207041
C20   C     C_R   0.571759 0.531088 0.933504 0.184730
C21   C     C_R   0.428316 0.464677 0.925451 0.061456
C22   C     C_3   0.384409 0.337344 0.916274 0.648438
C23   C     C_R   0.498707 0.738872 0.501425 0.933754
C24   C     C_3   0.380131 0.342704 0.070399 -0.121657
C25   C     C_R   0.661657 0.500218 0.501207 0.922015
C26   C     C_3   0.969778 0.379623 0.486823 0.534207
C27   C     C_3   0.024351 0.447811 0.383585 0.117249
C28   C     C_1   0.249471 0.498181 0.496621 -0.207064
C29   C     C_1   0.750465 0.499833 0.503535 -0.146302
C30   C     C_3   0.028579 0.427560 0.603628 -0.027649
H1    H     H_    0.650451 0.131507 0.701029 0.099182
H2    H     H_    0.418057 0.269239 0.120560 0.180879
H3    H     H_    0.943987 0.624009 0.314791 0.174744
N1    N     N_R   0.499430 0.499140 0.142800 -0.122350
N2    N     N_R   0.499430 0.499180 0.857150 -0.110912
O1    O     O_R   0.500010 0.316790 0.614690 -0.562455
O2    O     O_R   0.500000 0.316760 0.385350 -0.633589
O3    O     O_R   0.376780 0.500010 0.614650 -0.613581
O4    O     O_R   0.376770 0.499970 0.385310 -0.610428
O5    O     O_R   0.500000 0.683240 0.614650 -0.622261
O6    O     O_R   0.499990 0.683210 0.385310 -0.622743
O7    O     O_R   0.623230 0.500030 0.614690 -0.624300
O8    O     O_R   0.623220 0.499990 0.385350 -0.624494
Zn1   Zn    Zn3+2 0.500010 0.500020 0.653130 0.972378
Zn2   Zn    Zn3+2 0.499990 0.499980 0.346870 0.942522
C31   C     C_3   0.054605 0.393919 0.250872 -0.885102
H4    H     H_    0.998771 0.359358 0.189621 0.251294
H5    H     H_    0.088956 0.468271 0.195892 0.240352
H6    H     H_    0.098634 0.315232 0.268668 0.235227
O9    O     O_3   0.701215 0.864757 0.531575 -0.605305
C32   C     C_3   0.785136 0.858950 0.585346 -0.222009
H7    H     H_    0.789124 0.782854 0.659541 0.187483
H8    H     H_    0.808151 0.949821 0.631416 0.186085
H9    H     H_    0.828873 0.834800 0.503161 0.176422
O10   O     O_3   0.718625 0.123052 0.522100 -0.584148
C33   C     C_3   0.698556 0.125468 0.383773 -0.180259
H10   H     H_    0.652887 0.201238 0.362036 0.153591
H11   H     H_    0.673707 0.032932 0.344844 0.177992
H12   H     H_    0.757937 0.147249 0.329575 0.193410
C34   C     C_3   0.636700 0.624788 0.147259 -0.800489
H13   H     H_    0.612032 0.677830 0.233350 0.282604
H14   H     H_    0.689859 0.563680 0.178558 0.238557
H15   H     H_    0.662696 0.697945 0.080721 0.205491
C35   C     C_3   0.659544 0.524253 0.874999 -0.768880
H16   H     H_    0.666137 0.431574 0.823751 0.258437
H17   H     H_    0.672431 0.604552 0.809976 0.246279
H18   H     H_    0.711849 0.525397 0.951285 0.207546
C36   C     C_3   0.299363 0.340717 0.834593 -0.877964
H19   H     H_    0.311161 0.321996 0.727240 0.255963
H20   H     H_    0.254522 0.265888 0.866908 0.216538
H21   H     H_    0.268040 0.433143 0.845552 0.215464
O11   O     O_3   0.442294 0.245951 0.869059 -0.586626
C37   C     C_3   0.406120 0.123301 0.870782 -0.314795
H22   H     H_    0.363294 0.106459 0.781981 0.183732
H23   H     H_    0.371153 0.104391 0.964220 0.149714
H24   H     H_    0.458381 0.054722 0.864108 0.185656
C38   C     C_3   0.289882 0.355582 0.126441 -0.931358
H25   H     H_    0.251480 0.269074 0.102225 0.239254
H26   H     H_    0.292467 0.365939 0.236370 0.280415
H27   H     H_    0.256760 0.438410 0.085700 0.253794
O12   O     O_3   0.927781 0.261902 0.466136 -0.580070
C39   C     C_3   0.985548 0.163230 0.482528 -0.277221
H28   H     H_    0.990012 0.137949 0.589533 0.176060
H29   H     H_    0.050189 0.184691 0.443788 0.144963
H30   H     H_    0.960058 0.079264 0.426184 0.182296
C40   C     C_3   0.065312 0.750009 0.526283 -0.904000
H31   H     H_    0.012350 0.816106 0.542848 0.239644
H32   H     H_    0.111830 0.758348 0.611298 0.234372
H33   H     H_    0.098223 0.774567 0.432832 0.242688
O13   O     O_3   0.938931 0.604066 0.731022 -0.609197
C41   C     C_3   0.000578 0.619122 0.834964 -0.310818
H34   H     H_    0.065520 0.643449 0.799204 0.154686
H35   H     H_    0.002495 0.532791 0.895301 0.184038
H36   H     H_    0.980939 0.697179 0.902207 0.182596
C42   C     C_3   0.066950 0.350853 0.716279 -0.932357
H37   H     H_    0.015126 0.309858 0.776606 0.257725
H38   H     H_    0.106202 0.274525 0.674011 0.241170
H39   H     H_    0.109151 0.411795 0.781311 0.244256
C43   C     C_3   0.340230 0.136857 0.409163 -0.933367
H40   H     H_    0.356324 0.188655 0.318277 0.253874
H41   H     H_    0.282827 0.078071 0.384791 0.246522
H42   H     H_    0.322725 0.204748 0.489468 0.222606
C44   C     C_3   0.337892 0.855379 0.409666 -0.899262
H43   H     H_    0.345092 0.752650 0.417108 0.241241
H44   H     H_    0.283143 0.880665 0.473058 0.232582
H45   H     H_    0.322575 0.875526 0.303400 0.244546
C45   C     C_3   0.641255 0.888529 0.762184 -1.020389
H46   H     H_    0.593075 0.942535 0.818319 0.221275
H47   H     H_    0.621418 0.788515 0.761846 0.274601
H48   H     H_    0.703457 0.901276 0.816351 0.233220

loop_
_geom_bond_atom_site_label_1
_geom_bond_atom_site_label_2
_ccdc_geom_bond_type
O10   C33   S    
C18   C21   A    
C45   H47   S    
C37   H22   S    
C19   C20   A    
C4    C8    S    
C25   O8    A    
O12   C39   S    
C42   H39   S    
C38   H25   S    
C31   H6    S    
C26   C27   S    
C12   C28   S    
C3    O13   S    
C18   C24   S    
C8    C29   T    
C11   C43   S    
C16   O9    S    
C5    C6    S    
C40   H32   S    
C23   O5    A    
C33   H10   S    
C34   H14   S    
C2    C7    S    
C20   N2    A    
C6    C27   S    
C16   C17   S    
C45   H46   S    
C2    C27   S    
C13   C44   S    
C9    C10   A    
C17   O10   S    
C16   C45   S    
C1    O2    A    
O4    Zn2   S    
C6    H3    S    
C21   C22   S    
C37   H23   S    
O7    Zn1   S    
C22   O11   S    
C38   H26   S    
C25   C29   S    
C31   H5    S    
C32   H7    S    
C35   H18   S    
C4    C6    S    
C41   H34   S    
C40   H31   S    
C36   H19   S    
C19   N1    A    
C7    C28   T    
C34   H13   S    
C32   H8    S    
C35   H17   S    
C14   C23   S    
C20   C35   S    
C3    C30   S    
C24   H2    S    
O3    Zn1   S    
C30   C42   S    
C41   H35   S    
O8    Zn2   S    
C43   H40   S    
O9    C32   S    
C44   H44   S    
N1    Zn2   S    
N2    Zn1   S    
C18   N1    A    
C22   C36   S    
C5    C40   S    
C27   C31   S    
C9    C17   S    
C43   H41   S    
C26   C30   S    
C26   O12   S    
C39   H29   S    
C34   H15   S    
C17   H1    S    
C45   H48   S    
C22   C24   S    
O1    Zn1   S    
C2    C5    S    
O2    Zn2   S    
C3    C4    S    
C44   H43   S    
C38   H27   S    
C31   H4    S    
C1    C10   S    
O11   C37   S    
C3    C5    S    
C40   H33   S    
C25   O7    A    
C4    C26   S    
C42   H38   S    
C21   N2    A    
C19   C34   S    
C39   H30   S    
C23   O6    A    
C33   H12   S    
C2    C30   S    
C32   H9    S    
C35   H16   S    
C12   O4    A    
C9    C15   A    
C41   H36   S    
C11   C13   A    
O13   C41   S    
C36   H21   S    
C37   H24   S    
C33   H11   S    
C44   H45   S    
C12   O3    A    
C10   C11   A    
C24   C38   S    
O5    Zn1   S    
C43   H42   S    
C36   H20   S    
C39   H28   S    
C42   H37   S    
O6    Zn2   S    
C14   C15   A    
C13   C14   A    
C15   C16   S    
C1    O1    A    
