data_mof_unit_53010.cif
_audit_creation_date              2012-10-26T19:00:10-0400
_audit_creation_method            fapswitch 2.2
_symmetry_space_group_name_H-M    P1
_symmetry_Int_Tables_number       1
_space_group_crystal_system       triclinic
_cell_length_a                    10.947127
_cell_length_b                    10.784621
_cell_length_c                    9.611425
_cell_angle_alpha                 89.896145
_cell_angle_beta                  90.795753
_cell_angle_gamma                 91.778616
_cell_volume                      1134.07358751

loop_
_atom_site_label
_atom_site_type_symbol
_atom_type_description
_atom_site_fract_x
_atom_site_fract_y
_atom_site_fract_z
_atom_type_partial_charge
C1    C     C_R   0.501814 0.262686 0.500431 0.538783
C2    C     C_R   0.813014 0.464941 0.983842 -0.093433
C3    C     C_R   0.791701 0.338569 0.009356 -0.155580
C4    C     C_R   0.262093 0.498410 0.498460 0.537949
C5    C     C_R   0.814646 0.251769 0.906101 -0.147493
C6    C     C_R   0.860554 0.291249 0.777990 -0.148558
C7    C     C_R   0.883521 0.418011 0.752960 0.074166
C8    C     C_R   0.456694 0.062108 0.611422 0.014395
C9    C     C_R   0.510994 0.129707 0.503754 0.006312
C10   C     C_R   0.580185 0.067757 0.405112 -0.166254
C11   C     C_R   0.580820 0.938137 0.405412 -0.171422
C12   C     C_R   0.213462 0.531881 0.968986 -0.113206
C13   C     C_R   0.511318 0.871061 0.503357 0.013362
C14   C     C_R   0.457128 0.934488 0.611331 0.017210
C15   C     C_3   0.329119 0.922848 0.662391 -0.274061
C16   C     C_R   0.502454 0.737446 0.500209 0.543850
C17   C     C_3   0.328007 0.063531 0.661264 -0.280367
C18   C     C_R   0.505497 0.608006 0.072145 0.135569
C19   C     C_R   0.466098 0.395121 0.075248 0.375814
C20   C     C_R   0.475629 0.394154 0.925212 -0.007992
C21   C     C_R   0.500852 0.608441 0.926858 0.131181
C22   C     C_3   0.584903 0.719262 0.919593 -0.276924
C23   C     C_R   0.931723 0.515614 0.377802 -0.165887
C24   C     C_3   0.593364 0.715838 0.078244 -0.288983
C25   C     C_R   0.737305 0.496249 0.501041 0.548007
C26   C     C_R   0.213586 0.638247 0.051835 -0.157701
C27   C     C_R   0.162372 0.633261 0.183757 -0.087579
C28   C     C_R   0.111949 0.521167 0.233137 0.028183
C29   C     C_R   0.112058 0.414464 0.150241 -0.013377
C30   C     C_R   0.163726 0.418771 0.018350 0.144169
C31   C     C_3   0.404870 0.184019 0.098637 0.012665
C32   C     C_3   0.315559 0.103023 0.182658 -0.231807
C33   C     C_3   0.324761 0.966554 0.146719 -0.490572
C34   C     C_R   0.870803 0.490584 0.501933 0.013928
C35   C     C_3   0.954652 0.696259 0.895178 -0.010473
C36   C     C_3   0.931543 0.834972 0.882515 -0.262153
C37   C     C_3   0.033769 0.913135 0.951656 -0.487732
C38   C     C_R   0.939207 0.458869 0.621504 0.006833
C39   C     C_R   0.066059 0.465671 0.617644 -0.161970
C40   C     C_R   0.127516 0.494137 0.494855 -0.007627
C41   C     C_R   0.058245 0.513453 0.371822 -0.038539
C42   C     C_R   0.860323 0.505764 0.855877 0.309230
Cu1   Cu    Cu3+1 0.499990 0.499980 0.640670 0.943628
Cu2   Cu    Cu3+1 0.500010 0.500020 0.359330 0.991433
H1    H     H_    0.253612 0.538021 0.867428 0.138956
H2    H     H_    0.321557 0.104109 0.766721 0.128358
H3    H     H_    0.252979 0.724509 0.013035 0.100766
H4    H     H_    0.455777 0.311497 0.866124 0.111865
H5    H     H_    0.670208 0.700407 0.866274 0.216639
H6    H     H_    0.537449 0.802029 0.879687 0.123697
H7    H     H_    0.684609 0.693135 0.120574 0.128755
H8    H     H_    0.553162 0.797754 0.126033 0.121223
H9    H     H_    0.162061 0.715685 0.247680 0.099485
H10   H     H_    0.073979 0.327439 0.189366 0.105977
H11   H     H_    0.880829 0.535536 0.283509 0.121059
H12   H     H_    0.755270 0.308202 0.108309 0.117488
H13   H     H_    0.116703 0.445365 0.710995 0.117748
H14   H     H_    0.790380 0.530786 0.062483 0.096173
H15   H     H_    0.499818 0.151831 0.112676 0.115093
H16   H     H_    0.374945 0.173742 0.989035 0.120960
H17   H     H_    0.333502 0.115719 0.295666 0.178192
H18   H     H_    0.220700 0.132059 0.160369 0.178438
H19   H     H_    0.312690 0.951852 0.033025 0.134448
H20   H     H_    0.253031 0.912413 0.202540 0.137596
H21   H     H_    0.414909 0.933699 0.180549 0.157399
H22   H     H_    0.223556 0.320393 0.851357 0.218523
H23   H     H_    0.797299 0.153938 0.925473 0.111102
H24   H     H_    0.082749 0.279631 0.907629 0.223960
H25   H     H_    0.044214 0.677824 0.847896 0.155455
H26   H     H_    0.955683 0.671373 0.007671 0.127678
H27   H     H_    0.924901 0.861007 0.770739 0.177912
H28   H     H_    0.843505 0.855534 0.932514 0.153491
H29   H     H_    0.042333 0.888871 0.063653 0.144817
H30   H     H_    0.013082 0.013023 0.942669 0.150226
H31   H     H_    0.121773 0.897484 0.899504 0.144546
H32   H     H_    0.879494 0.223279 0.698952 0.104939
H33   H     H_    0.630306 0.119006 0.326192 0.116521
H34   H     H_    0.632472 0.890806 0.327703 0.112996
H35   H     H_    0.265047 0.878883 0.584913 0.131530
H36   H     H_    0.325005 0.882358 0.768720 0.122209
H37   H     H_    0.263831 0.101624 0.582494 0.126580
N1    N     N_R   0.500790 0.500930 0.147930 -0.217221
N2    N     N_R   0.500790 0.500890 0.852020 -0.259650
N3    N     N_3   0.170944 0.306241 0.940122 -0.657226
O1    O     O_R   0.500000 0.319640 0.618810 -0.519061
O2    O     O_3   0.862985 0.630111 0.819836 -0.591899
O3    O     O_R   0.500010 0.319680 0.381230 -0.459044
O4    O     O_R   0.319640 0.499990 0.618790 -0.533954
O5    O     O_R   0.319650 0.500030 0.381210 -0.457153
O6    O     O_R   0.499990 0.680320 0.618770 -0.499196
O7    O     O_R   0.500000 0.680360 0.381190 -0.512395
O8    O     O_R   0.680350 0.499970 0.618790 -0.462893
O9    O     O_R   0.680360 0.500010 0.381210 -0.532005
O10   O     O_3   0.396494 0.306679 0.146885 -0.518078

loop_
_geom_bond_atom_site_label_1
_geom_bond_atom_site_label_2
_ccdc_geom_bond_type
C1    O3    A    
C37   H30   S    
C25   O9    A    
C18   C21   A    
Cu1   N2    S    
C19   C20   A    
C5    H23   S    
C33   H21   S    
C16   O6    A    
C26   C27   A    
C18   C24   S    
Cu1   O4    S    
C28   C29   A    
C32   H17   S    
Cu2   N1    S    
C24   H8    S    
C5    C6    A    
C35   O2    S    
C29   H10   S    
C39   H13   S    
C28   C41   S    
C7    C42   A    
C31   H15   S    
Cu2   O9    S    
C15   H35   S    
C4    C40   S    
C35   H26   S    
C8    C9    A    
C42   O2    S    
Cu2   O3    S    
C9    C10   A    
C36   H27   S    
C25   C34   S    
C22   H6    S    
C24   H7    S    
C37   H31   S    
C13   C14   A    
C10   H33   S    
C1    O1    A    
Cu1   O6    S    
H24   N3    S    
C21   N2    A    
C1    C9    S    
C17   H2    S    
C39   C40   A    
C12   C26   A    
C35   C36   S    
Cu1   O1    S    
C31   H16   S    
Cu1   Cu2   S    
C29   C30   A    
C11   H34   S    
C3    H12   S    
C15   H36   S    
C33   H19   S    
C23   C34   A    
C27   H9    S    
C6    H32   S    
Cu2   O7    S    
C20   H4    S    
C19   O10   S    
C26   H3    S    
C22   H5    S    
C40   C41   A    
C22   C24   S    
C20   N2    A    
C19   N1    A    
C4    O5    A    
C15   C17   S    
C37   H29   S    
C36   C37   S    
C25   O8    A    
C8    C14   A    
C12   C30   A    
C34   C38   A    
C31   C32   S    
Cu1   O8    S    
C12   H1    S    
C3    C5    A    
C2    H14   S    
C23   H11   S    
C6    C7    A    
C4    O4    A    
C31   O10   S    
C8    C17   S    
C23   C41   A    
C32   C33   S    
C2    C3    A    
C32   H18   S    
C11   C13   A    
C38   C39   A    
C2    C42   A    
C33   H20   S    
C18   N1    A    
C7    C38   S    
C17   H37   S    
C30   N3    S    
C10   C11   A    
H22   N3    S    
C35   H25   S    
C16   O7    A    
C13   C16   S    
C27   C28   A    
C14   C15   S    
C21   C22   S    
Cu2   O5    S    
C36   H28   S    
