data_mof_unit_60799.cif
_audit_creation_date              2012-12-10T20:47:27-0500
_audit_creation_method            fapswitch 2.2
_symmetry_space_group_name_H-M    P1
_symmetry_Int_Tables_number       1
_space_group_crystal_system       triclinic
_cell_length_a                    17.924147
_cell_length_b                    19.226815
_cell_length_c                    19.209441
_cell_angle_alpha                 94.604532
_cell_angle_beta                  99.085209
_cell_angle_gamma                 103.699079
_cell_volume                      6303.07427084

loop_
_atom_site_label
_atom_site_type_symbol
_atom_type_description
_atom_site_fract_x
_atom_site_fract_y
_atom_site_fract_z
_atom_type_partial_charge
C1    C     C_R   0.491973 0.506553 0.688208 0.509174
C2    C     C_R   0.920077 0.428365 0.444869 -0.136638
C3    C     C_R   0.960301 0.390134 0.407156 -0.131645
C4    C     C_R   0.507567 0.493856 0.312007 0.506737
C5    C     C_R   0.041397 0.408576 0.419894 0.048330
C6    C     C_R   0.083993 0.466322 0.472773 0.033356
C7    C     C_R   0.080370 0.369018 0.380382 -0.129559
C8    C     C_R   0.161474 0.385885 0.392671 -0.127939
C9    C     C_R   0.166199 0.483023 0.483038 -0.120184
C10   C     C_R   0.507194 0.489358 0.235208 0.029715
C11   C     C_R   0.472852 0.534777 0.194398 -0.151274
C12   C     C_R   0.840293 0.608472 0.613920 -0.129822
C13   C     C_R   0.470170 0.529470 0.121333 -0.092587
C14   C     C_R   0.501729 0.478213 0.087603 0.223934
C15   C     C_R   0.534961 0.432294 0.128220 -0.111441
C16   C     C_R   0.491458 0.308980 0.491149 0.508616
C17   C     C_R   0.538503 0.438193 0.201626 -0.147379
C18   C     C_R   0.460063 0.452817 0.867831 -0.092653
C19   C     C_R   0.458521 0.448803 0.794750 -0.153222
C20   C     C_R   0.492237 0.519231 0.911298 0.224100
C21   C     C_R   0.489826 0.510671 0.764426 0.029961
C22   C     C_R   0.520636 0.576903 0.807754 -0.147597
C23   C     C_R   0.837155 0.516969 0.518632 -0.131374
C24   C     C_R   0.520781 0.581145 0.880461 -0.111110
C25   C     C_R   0.513303 0.768986 0.511854 0.027811
C26   C     C_R   0.458785 0.793036 0.465445 -0.153047
C27   C     C_R   0.463558 0.866359 0.466132 -0.091639
C28   C     C_R   0.508509 0.691363 0.509249 0.509392
C29   C     C_R   0.523377 0.917394 0.513483 0.225810
C30   C     C_R   0.578159 0.893352 0.559252 -0.114674
C31   C     C_R   0.572969 0.819685 0.558973 -0.148993
C32   C     C_R   0.545934 0.130685 0.471187 0.304815
C33   C     C_R   0.548443 0.204249 0.470279 -0.139308
C34   C     C_R   0.918761 0.527985 0.535131 0.029148
C35   C     C_R   0.479333 0.083822 0.487965 0.236772
C36   C     C_R   0.487346 0.231534 0.488961 -0.014194
C37   C     C_R   0.421973 0.184317 0.505883 -0.166644
C38   C     C_R   0.417604 0.110996 0.504123 -0.162407
C39   C     C_R   0.288418 0.459179 0.459291 0.498843
C40   C     C_R   0.712251 0.540066 0.540075 0.505311
C41   C     C_R   0.797847 0.555908 0.557949 0.018824
C42   C     C_R   0.203965 0.442865 0.443841 0.041427
C43   C     C_R   0.921275 0.622015 0.630050 -0.134488
C44   C     C_3   0.674821 0.130904 0.496880 -0.108784
C45   C     C_R   0.960751 0.582523 0.591068 0.050993
C46   C     C_R   0.959705 0.487161 0.497205 0.032844
C47   C     C_R   0.042977 0.504960 0.513035 0.034792
C48   C     C_R   0.082277 0.560000 0.569208 -0.133960
C49   C     C_R   0.041733 0.597423 0.607624 -0.131033
H1    H     H_    0.074277 0.638861 0.650486 0.108546
H2    H     H_    0.447940 0.574457 0.218909 0.138734
H3    H     H_    0.597954 0.239938 0.454925 0.136049
H4    H     H_    0.203080 0.526738 0.520913 0.092557
H5    H     H_    0.624780 0.931903 0.595523 0.115664
H6    H     H_    0.616088 0.802504 0.594942 0.135063
H7    H     H_    0.373613 0.203891 0.519601 0.149780
H8    H     H_    0.420848 0.882898 0.429130 0.139893
H9    H     H_    0.366216 0.075109 0.516375 0.129002
H10   H     H_    0.412321 0.755156 0.428380 0.138973
H11   H     H_    0.191102 0.354486 0.362558 0.108137
H12   H     H_    0.048023 0.324689 0.340302 0.109386
H13   H     H_    0.927415 0.345492 0.367583 0.109406
H14   H     H_    0.953140 0.663415 0.673153 0.108281
H15   H     H_    0.811021 0.639296 0.645020 0.137035
H16   H     H_    0.802428 0.479151 0.474542 0.128684
H17   H     H_    0.144673 0.575049 0.586097 0.105614
H18   H     H_    0.857523 0.408895 0.432359 0.104924
H19   H     H_    0.716831 0.099582 0.484849 0.147739
H20   H     H_    0.667605 0.125568 0.552936 0.118700
H21   H     H_    0.700800 0.188043 0.490686 0.102041
H22   H     H_    0.434216 0.397234 0.762219 0.133808
H23   H     H_    0.435882 0.404371 0.890221 0.136019
H24   H     H_    0.558794 0.392245 0.102913 0.121897
H25   H     H_    0.564593 0.402022 0.231866 0.138205
H26   H     H_    0.544344 0.625523 0.785366 0.134465
H27   H     H_    0.442674 0.564875 0.091247 0.137343
H28   H     H_    0.544621 0.632638 0.913217 0.121401
N1    N     N_2   0.499683 0.470553 0.013187 -0.247700
N2    N     N_2   0.495120 0.526344 0.985682 -0.250678
N3    N     N_2   0.531090 0.992843 0.515651 -0.199197
N4    N     N_2   0.471082 0.008672 0.486509 -0.239287
O1    O     O_3   0.500000 0.500000 0.500000 -0.435145
O2    O     O_R   0.321500 0.427480 0.506110 -0.539504
O3    O     O_R   0.674970 0.575130 0.575140 -0.547299
O4    O     O_R   0.328550 0.507430 0.428780 -0.539336
O5    O     O_R   0.674980 0.489960 0.489960 -0.547509
O6    O     O_3   0.603786 0.102729 0.448708 -0.534920
O7    O     O_R   0.540930 0.349770 0.460420 -0.545542
O8    O     O_R   0.550820 0.667300 0.556650 -0.548125
O9    O     O_R   0.445640 0.455160 0.644460 -0.541647
O10   O     O_R   0.462610 0.527770 0.338470 -0.546603
O11   O     O_R   0.540910 0.554790 0.665460 -0.546900
O12   O     O_R   0.550840 0.462270 0.351610 -0.543821
O13   O     O_R   0.445650 0.335310 0.524600 -0.545476
O14   O     O_R   0.462600 0.647620 0.458330 -0.544044
Zn1   Zn    Zn3+2 0.565550 0.451340 0.451340 0.931513
Zn2   Zn    Zn3+2 0.429430 0.430690 0.543050 0.936356
Zn3   Zn    Zn3+2 0.439490 0.544930 0.432570 0.936764
Zn4   Zn    Zn3+2 0.565540 0.573040 0.573050 0.933642

loop_
_geom_bond_atom_site_label_1
_geom_bond_atom_site_label_2
_ccdc_geom_bond_type
C25   C31   A    
O7    Zn1   S    
C1    C21   S    
C1    O9    A    
C27   C29   A    
O1    Zn4   S    
C40   O3    A    
C19   H22   S    
C6    C9    A    
C35   N4    S    
O14   Zn3   S    
C43   H14   S    
C7    C8    A    
C2    C46   A    
C33   H3    S    
C30   H5    S    
C9    C42   A    
C29   C30   A    
O8    Zn4   S    
C28   O14   A    
C36   C37   A    
C19   C21   A    
C8    C42   A    
C12   C43   A    
C30   C31   A    
C12   H15   S    
C10   C17   A    
C33   C36   A    
C18   C19   A    
C40   O5    A    
C7    H12   S    
O4    Zn3   S    
C38   H9    S    
C37   H7    S    
C20   C24   A    
C44   H21   S    
C28   O8    A    
C34   C46   A    
C44   O6    S    
C26   H10   S    
O9    Zn2   S    
C4    O10   A    
C13   C14   A    
O1    Zn3   S    
C22   H26   S    
C39   C42   S    
C18   H23   S    
O1    Zn1   S    
C6    C47   A    
C32   C35   A    
C35   C38   A    
C2    H18   S    
C27   H8    S    
C5    C7    A    
N1    N2    D    
O13   Zn2   S    
C25   C26   A    
C32   O6    S    
C25   C28   S    
C37   C38   A    
C47   C48   A    
C13   H27   S    
C45   C49   A    
C23   C34   A    
C26   C27   A    
C44   H20   S    
C34   C45   A    
C43   C45   A    
O5    Zn1   S    
C48   C49   A    
C15   H24   S    
O12   Zn1   S    
C17   H25   S    
O1    Zn2   S    
C22   C24   A    
C44   H19   S    
C9    H4    S    
C39   O4    A    
C4    C10   S    
C12   C41   A    
C3    H13   S    
C15   C17   A    
C46   C47   A    
C40   C41   S    
C20   N2    S    
O3    Zn4   S    
N3    N4    D    
C3    C5    A    
C1    O11   A    
C16   O13   A    
C23   C41   A    
C48   H17   S    
C32   C33   A    
C23   H16   S    
C2    C3    A    
C39   O2    A    
C16   C36   S    
C11   C13   A    
C5    C6    A    
C29   N3    S    
C18   C20   A    
C14   N1    S    
O10   Zn3   S    
C11   H2    S    
C10   C11   A    
C4    O12   A    
C24   H28   S    
C49   H1    S    
O2    Zn2   S    
C16   O7    A    
C14   C15   A    
C31   H6    S    
C21   C22   A    
C8    H11   S    
O11   Zn4   S    
