data_mof_unit_64746.cif
_audit_creation_date              2013-03-05T16:07:30-0500
_audit_creation_method            fapswitch 2.2
_symmetry_space_group_name_H-M    P1
_symmetry_Int_Tables_number       1
_space_group_crystal_system       triclinic
_cell_length_a                    11.568108
_cell_length_b                    10.795552
_cell_length_c                    10.595527
_cell_angle_alpha                 90.527742
_cell_angle_beta                  90.11625
_cell_angle_gamma                 89.978392
_cell_volume                      1323.15403637

loop_
_atom_site_label
_atom_site_type_symbol
_atom_site_description
_atom_site_fract_x
_atom_site_fract_y
_atom_site_fract_z
_atom_type_partial_charge
O1    O     O_R   0.334450 0.602530 0.499980 -0.596211
O2    O     O_R   0.665550 0.397470 0.500020 -0.596210
O3    O     O_R   0.665550 0.602530 0.500020 -0.607760
O4    O     O_R   0.334450 0.397470 0.499980 -0.607760
N1    N     N_1   0.500000 0.180630 0.500000 -0.051581
N2    N     N_1   0.500000 0.819370 0.500000 -0.051581
C1    C     C_R   0.281225 0.500017 0.500152 0.932627
C2    C     C_R   0.718775 0.499983 0.499848 0.932627
O5    O     O_R   0.499970 0.602510 0.313950 -0.581405
O6    O     O_R   0.500030 0.397490 0.686050 -0.581404
O7    O     O_R   0.500030 0.602510 0.686050 -0.596382
O8    O     O_R   0.499970 0.397490 0.313950 -0.596382
C3    C     C_R   0.497430 0.499270 0.257152 1.030847
C4    C     C_R   0.502571 0.500730 0.742849 1.030846
Zn1   Zn    Zn3+2 0.500000 0.636920 0.500000 1.105940
Zn2   Zn    Zn3+2 0.500000 0.363080 0.500000 1.105941
C5    C     C_1   0.499999 0.069808 0.499997 0.161221
C6    C     C_1   0.500000 0.930192 0.500002 0.161220
C7    C     C_3   0.405759 0.559518 0.039514 0.167426
C8    C     C_3   0.594242 0.440481 0.960488 0.167429
C9    C     C_3   0.503249 0.617162 0.962376 0.180829
C10   C     C_3   0.496752 0.382838 0.037626 0.180828
C11   C     C_3   0.404504 0.443730 0.953494 0.142967
C12   C     C_3   0.595497 0.556269 0.046508 0.142964
C13   C     C_3   0.503272 0.502051 0.876307 -0.385523
C14   C     C_3   0.496728 0.497949 0.123694 -0.385520
C15   C     C_1   0.161088 0.500044 0.500121 -0.064035
C16   C     C_1   0.838912 0.499956 0.499879 -0.064035
C17   C     C_1   0.059171 0.500023 0.500051 0.083759
C18   C     C_1   0.940829 0.499977 0.499949 0.083759
Br1   Br    Br    0.267836 0.363397 0.884840 -0.283611
Br2   Br    Br    0.732165 0.636603 0.115160 -0.283610
N3    N     N_R   0.301158 0.623494 0.080849 0.276070
O9    O     O_R   0.229435 0.666651 0.997430 -0.260192
O10   O     O_R   0.274945 0.630787 0.199929 -0.356004
N4    N     N_R   0.698842 0.376506 0.919151 0.276068
O11   O     O_R   0.770567 0.333352 0.002570 -0.260190
O12   O     O_R   0.725053 0.369211 0.800071 -0.356005
N5    N     N_R   0.509796 0.745126 0.919896 0.264640
O13   O     O_R   0.429335 0.824143 0.949839 -0.263862
O14   O     O_R   0.600160 0.782678 0.858283 -0.299763
N6    N     N_R   0.490207 0.254875 0.080110 0.264641
O15   O     O_R   0.570674 0.175863 0.050181 -0.263866
O16   O     O_R   0.399839 0.217322 0.141715 -0.299760

loop_
_geom_bond_atom_site_label_1
_geom_bond_atom_site_label_2
_geom_bond_distance
_ccdc_geom_bond_type
O4    Zn2   1.950617 S    
C7    C11   1.540250 S    
C12   Br2   1.940499 S    
C17   C18   1.368983 S    
O1    Zn1   1.950891 S    
C15   C17   1.178994 T    
O2    Zn2   1.950890 S    
C9    N5    1.458899 S    
C16   C18   1.178994 T    
C5    C6    1.507229 S    
O5    Zn1   2.002628 S    
O3    Zn1   1.950616 S    
N5    O14   1.300469 A    
O6    Zn2   2.002627 S    
C12   C14   1.544185 S    
C10   N6    1.458897 S    
N6    O16   1.300470 A    
O4    C1    1.266537 A    
N2    C6    1.196387 T    
N4    O12   1.299909 A    
N4    O11   1.300392 A    
C7    C9    1.529957 S    
C8    C10   1.529953 S    
N3    O9    1.300392 A    
C11   C13   1.544188 S    
C4    C13   1.414013 S    
C10   C14   1.534604 S    
C2    C16   1.389757 S    
O7    C4    1.257943 A    
C3    C14   1.414002 S    
N1    C5    1.196387 T    
N6    O15   1.300096 A    
C8    N4    1.459089 S    
C8    C12   1.540248 S    
C1    C15   1.389757 S    
O8    C3    1.257942 A    
O3    C2    1.266537 A    
O6    C4    1.262072 A    
C9    C12   1.540112 S    
N5    O13   1.300112 A    
C7    C14   1.533415 S    
C9    C13   1.534610 S    
C10   C11   1.540110 S    
N1    Zn2   1.969648 S    
O5    C3    1.262069 A    
N3    O10   1.299908 A    
N2    Zn1   1.969647 S    
O1    C1    1.266652 A    
O7    Zn1   2.009352 S    
O2    C2    1.266652 A    
O8    Zn2   2.009353 S    
C7    N3    1.459091 S    
C8    C13   1.533419 S    
C11   Br1   1.940498 S    
