data_mof_unit_41123.cif
_audit_creation_date              2012-12-11T21:14:59-0500
_audit_creation_method            fapswitch 2.2
_symmetry_space_group_name_H-M    P1
_symmetry_Int_Tables_number       1
_space_group_crystal_system       triclinic
_cell_length_a                    8.208829
_cell_length_b                    18.776665
_cell_length_c                    26.998385
_cell_angle_alpha                 99.561429
_cell_angle_beta                  92.62558
_cell_angle_gamma                 88.208829
_cell_volume                      4098.08197376

loop_
_atom_site_label
_atom_site_type_symbol
_atom_type_description
_atom_site_fract_x
_atom_site_fract_y
_atom_site_fract_z
_atom_type_partial_charge
Ba1   Ba    Ba6+2 0.160810 0.465630 0.521640 1.653674
Ba2   Ba    Ba6+2 0.649380 0.534380 0.478400 1.639552
C1    C     C_3   0.478869 0.260272 0.694571 -0.366751
C2    C     C_R   0.077426 0.094966 0.452428 0.030938
C3    C     C_R   0.224997 0.071181 0.430173 -0.082785
C4    C     C_3   0.940193 0.274990 0.650581 0.329656
C5    C     C_R   0.286746 0.001391 0.431897 -0.087631
C6    C     C_R   0.200644 0.953488 0.455099 0.032155
C7    C     C_R   0.052570 0.976670 0.477719 0.015420
C8    C     C_R   0.259643 0.882657 0.455253 -0.106976
C9    C     C_R   0.170816 0.833010 0.476514 -0.037948
C10   C     C_R   0.023299 0.856515 0.500320 -0.002858
C11   C     C_R   0.965323 0.928687 0.500971 -0.008291
C12   C     C_3   0.473397 0.293159 0.646740 0.389041
C13   C     C_R   0.223142 0.760080 0.473878 -0.005617
C14   C     C_R   0.126682 0.711669 0.492843 -0.294589
C15   C     C_R   0.985743 0.734213 0.518623 0.047477
C16   C     C_3   0.021738 0.201204 0.650617 -0.320423
C17   C     C_R   0.933504 0.808081 0.523350 -0.044801
C18   C     C_R   0.844797 0.071859 0.499869 -0.007137
C19   C     C_R   0.786682 0.143987 0.500383 0.000437
C20   C     C_R   0.876546 0.192405 0.477355 -0.037899
C21   C     C_R   0.016175 0.165288 0.451075 -0.041241
C22   C     C_R   0.793181 0.834990 0.549369 -0.043148
C23   C     C_3   0.469210 0.313678 0.397178 0.308691
C24   C     C_R   0.732083 0.905404 0.548115 0.033188
C25   C     C_R   0.818186 0.952539 0.523899 0.006685
C26   C     C_R   0.757320 0.023827 0.523012 0.015620
C27   C     C_R   0.584155 0.929150 0.570172 -0.081965
C28   C     C_3   0.840119 0.620911 0.631232 0.300075
C29   C     C_R   0.522228 0.998898 0.568341 -0.089822
C30   C     C_R   0.608637 0.046870 0.545288 0.033231
C31   C     C_R   0.638240 0.167274 0.523629 -0.040955
C32   C     C_R   0.549110 0.117562 0.544773 -0.111485
C33   C     C_R   0.584786 0.239933 0.525504 -0.013889
C34   C     C_3   0.477492 0.232333 0.380134 -0.393202
C35   C     C_R   0.681112 0.288444 0.506507 -0.294328
C36   C     C_R   0.824391 0.266301 0.481936 0.064315
C37   C     C_R   0.303408 0.450369 0.175270 0.586797
C38   C     C_R   0.165056 0.564738 0.174450 0.581723
C39   C     C_2   0.025938 0.523742 0.268993 -0.071244
C40   C     C_3   0.834260 0.638841 0.688200 -0.360918
C41   C     C_3   0.990338 0.518363 0.323030 -0.050491
C42   C     C_1   0.278697 0.492275 0.336385 0.011791
C43   C     C_2   0.314020 0.496351 0.289673 -0.094972
C44   C     C_2   0.180185 0.511405 0.252571 0.201179
C45   C     C_3   0.856777 0.723219 0.378051 0.347641
C46   C     C_R   0.299136 0.504957 0.099141 -0.079245
C47   C     C_R   0.348855 0.448403 0.125337 -0.031613
C48   C     C_R   0.444263 0.390967 0.101362 -0.061897
C49   C     C_R   0.205133 0.563205 0.123802 -0.030119
C50   C     C_2   0.145354 0.523641 0.355691 -0.288310
C51   C     C_2   0.645936 0.469437 0.636776 -0.272683
C52   C     C_3   0.979615 0.367871 0.365470 0.296911
C53   C     C_R   0.477521 0.440514 0.972860 0.020841
C54   C     C_R   0.338499 0.558929 0.971468 0.020163
C55   C     C_R   0.429068 0.498420 0.946925 0.048958
C56   C     C_3   0.866404 0.797699 0.363442 -0.366014
C57   C     C_R   0.564083 0.380936 0.946301 -0.102801
C58   C     C_R   0.600145 0.377841 0.896306 -0.060953
C59   C     C_R   0.554375 0.434505 0.870429 -0.023612
C60   C     C_R   0.471280 0.495497 0.895749 -0.081545
C61   C     C_R   0.429886 0.553188 0.869791 -0.033637
C62   C     C_R   0.475971 0.549860 0.819434 0.593662
C63   C     C_R   0.589306 0.430487 0.819448 0.582811
C64   C     C_3   0.017437 0.336569 0.311285 -0.364732
C65   C     C_2   0.734090 0.450483 0.723932 -0.094830
C66   C     C_3   0.747892 0.424370 0.668367 -0.098001
C67   C     C_3   0.340010 0.696278 0.351403 0.293671
C68   C     C_1   0.518219 0.507593 0.655874 0.037666
C69   C     C_2   0.476275 0.510059 0.703261 -0.094115
C70   C     C_2   0.593267 0.483253 0.741206 0.196041
C71   C     C_R   0.437458 0.443566 0.024029 0.021112
C72   C     C_R   0.343099 0.503058 0.048228 0.048915
C73   C     C_R   0.292218 0.560567 0.022130 0.020174
C74   C     C_R   0.488402 0.388682 0.052085 -0.100400
C75   C     C_R   0.153661 0.618902 0.097421 -0.060400
C76   C     C_3   0.331630 0.686509 0.593577 0.317618
C77   C     C_R   0.297671 0.615776 0.944117 -0.099719
C78   C     C_3   0.359457 0.712167 0.298659 -0.349311
C79   C     C_R   0.343370 0.613100 0.894703 -0.060113
C80   C     C_R   0.195493 0.617662 0.047830 -0.099938
C81   C     C_3   0.326463 0.767718 0.611636 -0.392182
C82   C     C_R   0.991782 0.047963 0.476879 0.005989
H1    H     H_    0.435031 0.351137 0.655825 0.053653
H2    H     H_    0.206180 0.668156 0.583395 0.004046
H3    H     H_    0.408775 0.674787 0.560298 0.061921
H4    H     H_    0.358739 0.267594 0.712144 0.138700
H5    H     H_    0.241258 0.781199 0.642923 0.129696
H6    H     H_    0.284171 0.796445 0.580518 0.055274
H7    H     H_    0.450423 0.786376 0.625161 0.118931
H8    H     H_    0.598268 0.288379 0.632052 -0.123775
H9    H     H_    0.572995 0.286985 0.721274 0.138908
H10   H     H_    0.594709 0.332663 0.407631 0.022699
H11   H     H_    0.392443 0.325072 0.430557 0.055781
H12   H     H_    0.737802 0.680779 0.698929 0.134281
H13   H     H_    0.558459 0.218867 0.347834 0.135331
H14   H     H_    0.526941 0.205287 0.411377 0.052626
H15   H     H_    0.353456 0.212073 0.368565 0.113945
H16   H     H_    0.510988 0.201757 0.685890 0.104280
H17   H     H_    0.926655 0.159565 0.647592 0.053703
H18   H     H_    0.742801 0.721121 0.397974 0.119138
H19   H     H_    0.962594 0.715258 0.403544 -0.033622
H20   H     H_    0.862610 0.839768 0.397765 0.078041
H21   H     H_    0.982790 0.802377 0.344660 0.118934
H22   H     H_    0.761135 0.806864 0.337431 0.137791
H23   H     H_    0.806836 0.589846 0.703868 0.071382
H24   H     H_    0.210063 0.705423 0.360874 -0.015130
H25   H     H_    0.375852 0.638862 0.351433 0.070187
H26   H     H_    0.282033 0.675597 0.271564 0.129979
H27   H     H_    0.488726 0.703337 0.288233 0.141619
H28   H     H_    0.876699 0.274172 0.613047 -0.013479
H29   H     H_    0.321599 0.768968 0.296804 0.119957
H30   H     H_    0.293656 0.106741 0.411705 0.063329
H31   H     H_    0.401269 0.984628 0.414570 0.073045
H32   H     H_    0.165701 0.655560 0.489215 0.067057
H33   H     H_    0.373876 0.866620 0.437789 0.110534
H34   H     H_    0.954210 0.659222 0.704503 0.134410
H35   H     H_    0.081781 0.198730 0.430304 0.097436
H36   H     H_    0.727051 0.801319 0.569836 0.097649
H37   H     H_    0.515293 0.893599 0.588544 0.063631
H38   H     H_    0.407256 0.015550 0.585425 0.070945
H39   H     H_    0.433929 0.133334 0.561697 0.103595
H40   H     H_    0.849974 0.283482 0.680607 -0.001949
H41   H     H_    0.640127 0.344180 0.509042 0.067068
H42   H     H_    0.438811 0.487965 0.278006 0.121333
H43   H     H_    0.486761 0.347300 0.120870 0.122498
H44   H     H_    0.828023 0.433626 0.749488 0.119638
H45   H     H_    0.092340 0.389705 0.385510 0.022270
H46   H     H_    0.665819 0.330425 0.877920 0.121788
H47   H     H_    0.604658 0.334763 0.962657 0.068790
H48   H     H_    0.564258 0.342789 0.037479 0.068702
H49   H     H_    0.924977 0.531026 0.242781 0.105606
H50   H     H_    0.079635 0.664159 0.115099 0.121451
H51   H     H_    0.231165 0.663945 0.959802 0.069247
H52   H     H_    0.100198 0.187321 0.617794 0.153113
H53   H     H_    0.308719 0.658292 0.875769 0.121733
H54   H     H_    0.355297 0.529741 0.714358 0.138847
H55   H     H_    0.148325 0.662402 0.030606 0.068881
H56   H     H_    0.884874 0.411392 0.365939 0.038731
H57   H     H_    0.146053 0.550301 0.394654 0.070054
H58   H     H_    0.659024 0.457671 0.596385 0.083413
H59   H     H_    0.096456 0.200651 0.685986 0.118510
H60   H     H_    0.718429 0.603838 0.615454 0.008631
H61   H     H_    0.930430 0.576183 0.621492 0.084402
H62   H     H_    0.103209 0.289417 0.310566 0.147395
H63   H     H_    0.074857 0.377061 0.292693 0.080677
H64   H     H_    0.903164 0.318629 0.289764 0.117674
N1    N     N_R   0.215370 0.508841 0.199832 -0.425925
N2    N     N_R   0.553476 0.488384 0.794189 -0.420645
O1    O     O_2   0.106080 0.324280 0.466820 -0.469497
O2    O     O_2   0.659231 0.565018 0.332121 -0.495321
O3    O     O_3   0.859321 0.670626 0.334623 -0.595300
O4    O     O_3   0.859130 0.413620 0.470620 -0.484024
O5    O     O_3   0.459240 0.537930 0.559910 -0.492668
O6    O     O_2   0.583120 0.462390 0.379940 -0.464960
O7    O     O_3   0.401348 0.346631 0.357722 -0.632357
O8    O     O_2   0.564388 0.756861 0.476761 -0.498668
O9    O     O_3   0.440835 0.741879 0.385239 -0.609851
O10   O     O_2   0.340774 0.399379 0.196770 -0.599253
O11   O     O_2   0.649881 0.374454 0.797389 -0.628775
O12   O     O_3   0.396360 0.652821 0.632723 -0.624476
O13   O     O_2   0.087015 0.616257 0.196029 -0.598850
O14   O     O_2   0.448590 0.602163 0.798416 -0.599994
O15   O     O_3   0.376230 0.370290 0.556910 -0.473831
O16   O     O_2   0.243614 0.243885 0.520857 -0.482285
O17   O     O_3   0.919949 0.312458 0.387372 -0.645970
O18   O     O_3   0.359643 0.255858 0.612278 -0.584726
O19   O     O_2   0.227190 0.537650 0.620070 -0.461168
O20   O     O_3   0.971110 0.406970 0.583250 -0.462197
O21   O     O_2   0.073892 0.470736 0.674482 -0.490659
O22   O     O_3   0.057091 0.329483 0.660546 -0.559724
O23   O     O_2   0.704230 0.675760 0.533200 -0.468889
O24   O     O_3   0.951180 0.586390 0.529420 -0.490816
O25   O     O_3   0.434080 0.629720 0.443130 -0.473109
O26   O     O_3   0.884645 0.682643 0.612942 -0.640092
O27   O     O_3   0.351080 0.462080 0.440130 -0.477517
O28   O     O_3   0.839200 0.593040 0.416790 -0.486599
P1    P     P_3+3 0.929380 0.335110 0.452880 0.980791
P2    P     P_3+3 0.398530 0.559060 0.613740 0.996463
P3    P     P_3+3 0.962638 0.409837 0.647925 0.969812
P4    P     P_3+3 0.880940 0.664900 0.547160 0.974777
P5    P     P_3+3 0.834917 0.585287 0.351278 0.973177
P6    P     P_3+3 0.391345 0.276704 0.552909 0.966846
P7    P     P_3+3 0.399725 0.440378 0.376875 0.960195
P8    P     P_3+3 0.415325 0.723036 0.445684 0.924874

loop_
_geom_bond_atom_site_label_1
_geom_bond_atom_site_label_2
_ccdc_geom_bond_type
C76   H3    S    
O17   P1    S    
C47   C48   A    
C32   H39   S    
C53   C57   A    
C3    H30   S    
C74   H48   S    
C71   C72   A    
C63   O11   D    
C4    H40   S    
C52   O17   S    
C62   O14   D    
O24   P4    S    
C39   H49   S    
O27   P7    S    
C55   C60   A    
C4    O22   S    
C43   C44   S    
C42   C43   D    
O26   P4    S    
C57   H47   S    
C24   C25   A    
C35   C36   A    
C54   C77   A    
C61   C79   A    
C40   H12   S    
O9    P8    S    
C16   H59   S    
C33   C35   A    
O7    P7    S    
Ba1   Ba2   S    
Ba2   O23   S    
C21   H35   S    
C37   O10   D    
Ba1   P2    S    
C41   C50   S    
C19   C31   A    
C13   C14   A    
C20   C36   A    
O8    P8    D    
Ba1   O20   S    
C28   H60   S    
C54   C55   A    
C78   H27   S    
C51   H58   S    
Ba2   P4    S    
C5    H31   S    
C63   N2    Am   
Ba1   O5    S    
C51   C66   S    
C7    C11   A    
C67   O9    S    
Ba1   O27   S    
C76   C81   S    
C46   C49   A    
C52   H56   S    
O3    P5    S    
C14   C15   A    
O18   P6    S    
C27   H37   S    
C39   C44   D    
C16   H52   S    
C34   H13   S    
Ba2   O27   S    
C40   H23   S    
O19   P2    D    
O12   P2    S    
O28   P5    S    
C42   P7    S    
C42   C50   D    
C15   P4    S    
C57   C58   A    
Ba2   O4    S    
C45   H18   S    
C19   C20   A    
C39   C41   S    
Ba1   O4    S    
O22   P3    S    
C67   H25   S    
C4    C16   S    
C51   C68   D    
C14   H32   S    
C28   O26   S    
C67   H24   S    
C69   H54   S    
C35   H41   S    
C81   H5    S    
C13   P8    S    
C66   P3    S    
C22   H36   S    
C45   H19   S    
C72   C73   A    
C65   C66   S    
C46   C72   A    
C26   C30   A    
O16   P6    D    
C29   H38   S    
C38   O13   D    
C1    H16   S    
C58   H46   S    
C3    C5    A    
C2    C21   A    
C6    C7    A    
C78   H29   S    
C18   C26   A    
C33   P6    S    
O6    P7    D    
C81   H6    S    
C62   N2    Am   
C58   C59   A    
C56   H22   S    
C16   H17   S    
C30   C32   A    
C79   H53   S    
C49   C75   A    
C80   H55   S    
C48   C74   A    
Ba2   O25   S    
O1    P1    D    
C29   C30   A    
C2    C82   A    
Ba1   O15   S    
C43   H42   S    
C60   C61   A    
C31   C32   A    
C1    H9    S    
Ba2   O5    S    
C18   C19   A    
O2    P5    D    
C12   H8    S    
C64   H63   S    
C68   C69   D    
C1    C12   S    
C46   C47   A    
C37   C47   A    
O23   P4    D    
C76   O12   S    
C9    C13   A    
C18   C82   A    
O20   P3    S    
C23   O7    S    
C71   C74   A    
C7    C82   A    
C56   H20   S    
C75   H50   S    
C12   O18   S    
C81   H7    S    
Ba1   O19   S    
C65   C70   D    
C77   H51   S    
O5    P2    S    
C28   H61   S    
C77   C79   A    
C52   H45   S    
Ba2   O6    S    
C36   P1    S    
C1    H4    S    
O15   P6    S    
C64   H64   S    
O21   P3    D    
C40   H34   S    
C12   H1    S    
C22   C24   A    
C2    C3    A    
C34   H14   S    
C9    C10   A    
C73   C80   A    
C23   H11   S    
C52   C64   S    
C38   C49   A    
C45   O3    S    
C37   N1    Am   
C70   N2    S    
C50   H57   S    
C56   H21   S    
C53   C55   A    
C17   C22   A    
C23   H10   S    
Ba1   O24   S    
C27   C29   A    
C8    H33   S    
C65   H44   S    
Ba2   O24   S    
C45   C56   S    
Ba1   P1    S    
C68   P2    S    
C75   C80   A    
C10   C17   A    
C41   P5    S    
C31   C33   A    
C38   N1    Am   
Ba1   O1    S    
C34   H15   S    
C28   C40   S    
C59   C60   A    
C64   H62   S    
C5    C6    A    
C8    C9    A    
C23   C34   S    
C61   C62   A    
C53   C71   A    
C15   C17   A    
C59   C63   A    
C69   C70   S    
C44   N1    S    
C10   C11   A    
C24   C27   A    
C6    C8    A    
C76   H2    S    
C78   H26   S    
C25   C26   A    
C54   C73   A    
C20   C21   A    
C11   C25   A    
C67   C78   S    
C4    H28   S    
C48   H43   S    
Ba2   O28   S    
O4    P1    S    
O25   P8    S    
