data_mof_unit_46848.cif
_audit_creation_date              2012-10-26T19:58:22-0400
_audit_creation_method            fapswitch 2.2
_symmetry_space_group_name_H-M    P1
_symmetry_Int_Tables_number       1
_space_group_crystal_system       triclinic
_cell_length_a                    7.431909
_cell_length_b                    8.693873
_cell_length_c                    13.409408
_cell_angle_alpha                 94.046279
_cell_angle_beta                  77.436131
_cell_angle_gamma                 103.112147
_cell_volume                      823.409389147

loop_
_atom_site_label
_atom_site_type_symbol
_atom_type_description
_atom_site_fract_x
_atom_site_fract_y
_atom_site_fract_z
_atom_type_partial_charge
C1    C     C_R   0.545261 0.800188 0.503097 0.546173
C2    C     C_R   0.337606 0.495120 0.806650 -0.008377
C3    C     C_2   0.570768 0.968037 0.504658 -0.158233
C4    C     C_R   0.399661 0.498117 0.694456 0.532213
C5    C     C_2   0.429076 0.031954 0.495633 -0.157523
C6    C     C_R   0.454661 0.199813 0.497045 0.552901
C7    C     C_R   0.601556 0.511035 0.305919 0.545365
C8    C     C_R   0.879343 0.676468 0.053396 -0.128134
C9    C     C_R   0.662214 0.536601 0.195825 -0.007351
C10   C     C_R   0.152825 0.415947 0.848481 -0.135141
C11   C     C_R   0.098654 0.385083 0.952061 -0.136688
C12   C     C_R   0.417767 0.506685 0.975536 0.031379
C13   C     C_R   0.229380 0.426584 0.014804 -0.124017
C14   C     C_R   0.466375 0.553262 0.872071 0.026278
C15   C     C_R   0.559008 0.543751 0.035653 0.027155
C16   C     C_R   0.739315 0.638326 0.994770 0.048024
C17   C     C_R   0.776443 0.697427 0.896876 -0.142077
C18   C     C_R   0.641341 0.657868 0.837084 -0.124124
C19   C     C_R   0.526931 0.489566 0.135365 -0.132691
C20   C     C_R   0.840669 0.626541 0.153788 -0.142299
Cu1   Cu    Cu3+1 0.321300 0.483160 0.488710 0.947663
Cu2   Cu    Cu3+1 0.678700 0.516840 0.511290 0.944481
H1    H     H_    0.946795 0.664052 0.199682 0.133148
H2    H     H_    0.707352 0.039374 0.513202 0.133017
H3    H     H_    0.010923 0.617707 0.579330 0.236634
H4    H     H_    0.051162 0.373311 0.800482 0.139881
H5    H     H_    0.292482 0.960610 0.487110 0.132706
H6    H     H_    0.989005 0.382232 0.420729 0.238063
H7    H     H_    0.910700 0.775125 0.866303 0.107531
H8    H     H_    0.017189 0.748489 0.022390 0.117970
H9    H     H_    0.395610 0.412678 0.169225 0.116283
H10   H     H_    0.176705 0.397510 0.094098 0.104786
H11   H     H_    0.955244 0.324511 0.983617 0.129567
H12   H     H_    0.674898 0.713961 0.763982 0.139008
N1    N     N_2   0.947230 0.542220 0.528320 -0.257657
N2    N     N_2   0.052770 0.457780 0.471680 -0.256694
O1    O     O_R   0.383920 0.714220 0.492660 -0.503162
O2    O     O_R   0.685730 0.742660 0.511730 -0.503701
O3    O     O_R   0.275440 0.478800 0.636790 -0.505838
O4    O     O_R   0.577250 0.507240 0.655860 -0.502024
O5    O     O_R   0.314270 0.257340 0.488270 -0.496777
O6    O     O_R   0.616080 0.285780 0.507340 -0.500826
O7    O     O_R   0.422750 0.492760 0.344140 -0.501684
O8    O     O_R   0.724560 0.521200 0.363210 -0.505205

loop_
_geom_bond_atom_site_label_1
_geom_bond_atom_site_label_2
_ccdc_geom_bond_type
C2    C4    S    
C4    O3    A    
C7    O7    A    
C11   C13   A    
C14   C18   A    
C13   H10   S    
N1    N2    D    
Cu1   O3    S    
C12   C15   A    
C1    O1    A    
Cu2   O4    S    
C8    H8    S    
C10   H4    S    
C17   C18   A    
C19   H9    S    
C8    C16   A    
Cu1   N2    S    
C5    H5    S    
C7    O8    A    
C15   C19   A    
Cu2   N1    S    
C18   H12   S    
C3    H2    S    
Cu2   O6    S    
C1    O2    A    
C8    C20   A    
Cu1   O5    S    
Cu1   Cu2   S    
H3    N1    S    
C5    C6    S    
C2    C14   A    
C10   C11   A    
C15   C16   A    
C2    C10   A    
C11   H11   S    
C17   H7    S    
C12   C13   A    
H6    N2    S    
Cu1   O1    S    
C6    O6    A    
C7    C9    S    
C9    C20   A    
C3    C5    D    
Cu1   O7    S    
C20   H1    S    
C9    C19   A    
Cu2   O8    S    
C4    O4    A    
C12   C14   A    
C16   C17   A    
C1    C3    S    
C6    O5    A    
Cu2   O2    S    
