data_mof_unit_48655.cif
_audit_creation_date              2012-12-11T16:53:33-0500
_audit_creation_method            fapswitch 2.2
_symmetry_space_group_name_H-M    P1
_symmetry_Int_Tables_number       1
_space_group_crystal_system       triclinic
_cell_length_a                    14.929414
_cell_length_b                    14.796438
_cell_length_c                    17.102683
_cell_angle_alpha                 108.041038
_cell_angle_beta                  106.102428
_cell_angle_gamma                 108.010548
_cell_volume                      3111.86896342

loop_
_atom_site_label
_atom_site_type_symbol
_atom_type_description
_atom_site_fract_x
_atom_site_fract_y
_atom_site_fract_z
_atom_type_partial_charge
C1    C     C_R   0.090052 0.282181 0.067152 -0.110283
C2    C     C_R   0.030211 0.468995 0.727771 0.048554
C3    C     C_R   0.682235 0.211479 0.742239 0.032429
C4    C     C_R   0.356860 0.557113 0.047795 0.048612
C5    C     C_R   0.246439 0.700042 0.262676 -0.057140
C6    C     C_R   0.755385 0.569470 0.977901 -0.148288
C7    C     C_R   0.896759 0.396764 0.179188 -0.142178
C8    C     C_R   0.081403 0.801689 0.006249 -0.095877
C9    C     C_R   0.912905 0.717237 0.928221 -0.141645
C10   C     C_R   0.067124 0.486272 0.254467 -0.092251
C11   C     C_R   0.258903 0.794950 0.182981 0.004802
C12   C     C_R   0.937863 0.454551 0.736918 -0.123071
C13   C     C_R   0.739704 0.467322 0.050065 -0.004425
C14   C     C_R   0.290798 0.799467 0.267863 0.044520
C15   C     C_R   0.718159 0.548817 0.038733 -0.032120
C16   C     C_R   0.979617 0.424208 0.258613 0.030502
C17   C     C_R   0.996508 0.813033 0.960126 0.061634
C18   C     C_R   0.501305 0.621288 0.009345 0.169417
C19   C     C_R   0.465633 0.591394 0.068802 0.034828
C20   C     C_R   0.534053 0.586149 0.140620 -0.184500
C21   C     C_R   0.628368 0.588569 0.139875 -0.209794
C22   C     C_R   0.649216 0.590007 0.064804 0.020135
C23   C     C_R   0.731123 0.209408 0.821041 -0.051964
C24   C     C_R   0.591341 0.619404 0.006592 0.194328
C25   C     C_3   0.546758 0.574811 0.905436 -0.475836
C26   C     C_3   0.448053 0.578232 0.908795 -0.531382
C27   C     C_R   0.974938 0.386904 0.329238 0.109215
C28   C     C_R   0.039560 0.425584 0.642386 0.128670
C29   C     C_R   0.145574 0.435343 0.558538 -0.220956
C30   C     C_R   0.136906 0.450845 0.639941 -0.151085
C31   C     C_R   0.950546 0.369625 0.561162 -0.259987
C32   C     C_R   0.958590 0.360339 0.480398 0.176458
C33   C     C_R   0.057053 0.398469 0.479235 0.135715
C34   C     C_R   0.297987 0.591523 0.998951 -0.116016
C35   C     C_R   0.065115 0.407510 0.401699 -0.090488
C36   C     C_R   0.877581 0.338858 0.329138 -0.189444
C37   C     C_R   0.869466 0.323765 0.403268 -0.219366
C38   C     C_R   0.597946 0.125754 0.666043 0.071412
C39   C     C_R   0.369735 0.886593 0.347256 0.076693
C40   C     C_R   0.550866 0.991923 0.432171 -0.198583
C41   C     C_R   0.469783 0.919444 0.351687 -0.223416
C42   C     C_R   0.347585 0.924603 0.422128 -0.138272
C43   C     C_R   0.431009 0.981814 0.506879 -0.041801
C44   C     C_R   0.532182 0.022098 0.509305 0.228151
C45   C     C_R   0.733760 0.307322 0.744740 -0.152551
C46   C     C_R   0.614174 0.094326 0.588782 -0.268242
C47   C     C_R   0.503831 0.077645 0.669151 -0.128763
C48   C     C_R   0.419036 0.001658 0.589447 -0.109442
C49   C     C_R   0.088116 0.130689 0.155192 -0.002713
C50   C     C_R   0.009511 0.106554 0.073546 0.027336
C51   C     C_R   0.926932 0.004784 0.029855 -0.218699
C52   C     C_R   0.909105 0.943310 0.077892 -0.029344
C53   C     C_R   0.980552 0.978479 0.166238 -0.059198
C54   C     C_R   0.073298 0.067059 0.200184 0.156051
C55   C     C_3   0.127971 0.158670 0.290958 -0.249148
C56   C     C_R   0.295426 0.496045 0.076745 -0.125365
C57   C     C_3   0.146304 0.229250 0.241899 -0.297854
C58   C     C_R   0.110545 0.537327 0.812819 -0.104604
C59   C     C_R   0.917767 0.201643 0.001018 -0.026617
C60   C     C_R   0.005816 0.188026 0.040514 -0.032799
H1    H     H_    0.169188 0.305780 0.109928 0.129607
H2    H     H_    0.748766 0.625151 0.951278 0.132272
H3    H     H_    0.820134 0.336054 0.154457 0.164778
H4    H     H_    0.159581 0.858251 0.029978 0.148360
H5    H     H_    0.836366 0.694073 0.879659 0.129767
H6    H     H_    0.146899 0.514881 0.297542 0.126451
H7    H     H_    0.511461 0.571284 0.191980 0.141657
H8    H     H_    0.678981 0.579272 0.192615 0.130174
H9    H     H_    0.584700 0.630135 0.880610 0.234392
H10   H     H_    0.860433 0.407847 0.685297 0.094865
H11   H     H_    0.538247 0.493129 0.872510 0.201868
H12   H     H_    0.430385 0.636703 0.887374 0.207871
H13   H     H_    0.382363 0.498666 0.877146 0.205164
H14   H     H_    0.806732 0.318891 0.274512 0.134625
H15   H     H_    0.222627 0.461323 0.560516 0.129271
H16   H     H_    0.793469 0.292361 0.403169 0.134030
H17   H     H_    0.207003 0.488580 0.701026 0.118139
H18   H     H_    0.874256 0.343172 0.560624 0.113033
H19   H     H_    0.690733 0.129515 0.590439 0.127956
H20   H     H_    0.705767 0.146564 0.840311 0.149900
H21   H     H_    0.497327 0.099634 0.733284 0.177965
H22   H     H_    0.628423 0.020724 0.434939 0.129311
H23   H     H_    0.484898 0.888163 0.292990 0.141331
H24   H     H_    0.871047 0.977879 0.962019 0.159501
H25   H     H_    0.075957 0.168730 0.325220 0.165363
H26   H     H_    0.103746 0.279037 0.246986 0.173386
H27   H     H_    0.325147 0.653888 0.979122 0.147683
H28   H     H_    0.708618 0.337396 0.696792 0.107640
H29   H     H_    0.320724 0.467928 0.126222 0.121103
H30   H     H_    0.192452 0.565704 0.830325 0.094500
H31   H     H_    0.264207 0.674667 0.315553 0.099186
N1    N     N_R   0.055640 0.348550 0.045600 -0.056959
N2    N     N_R   0.798340 0.505430 0.954400 -0.050656
N3    N     N_R   0.931580 0.439470 0.128350 -0.039361
N4    N     N_R   0.051950 0.704140 0.002340 -0.039603
N5    N     N_R   0.944360 0.651450 0.954400 -0.052415
N6    N     N_R   0.039170 0.492150 0.176290 -0.048868
N7    N     N_R   0.188710 0.696600 0.128350 -0.044303
N8    N     N_R   0.794820 0.447010 0.002340 -0.031348
N9    N     N_R   0.960830 0.507850 0.823710 -0.046809
N10   N     N_R   0.811290 0.303400 0.871650 -0.037176
N11   N     N_R   0.205180 0.552990 0.997660 -0.044345
N12   N     N_R   0.814810 0.361830 0.823710 -0.050674
N13   N     N_R   0.201660 0.494570 0.045600 -0.049638
N14   N     N_R   0.068420 0.560530 0.871650 -0.038571
N15   N     N_R   0.948050 0.295860 0.997660 -0.043544
N16   N     N_R   0.185190 0.638170 0.176290 -0.060057
Ni1   Ni    Ni4+2 0.119330 0.493420 0.109950 0.227480
Ni2   Ni    Ni4+2 0.880670 0.506580 0.890050 0.211669
Ni3   Ni    Ni4+2 0.872590 0.372590 0.000000 0.306542
Ni4   Ni    Ni4+2 0.127410 0.627410 0.000000 0.272380
C61   C     C_2   0.314216 0.870951 0.154754 0.400083
H32   H     H_    0.355569 0.954188 0.200730 0.030954
O1    O     O_2   0.318638 0.840447 0.081557 -0.594487
C62   C     C_2   0.683743 0.393438 0.079720 0.508889
H33   H     H_    0.672658 0.421213 0.141034 -0.022137
O2    O     O_2   0.646131 0.298724 0.033425 -0.518830
N17   N     N_3   0.164503 0.442274 0.398843 -0.212396
H34   H     H_    0.211518 0.519197 0.449221 0.118149
H35   H     H_    0.198075 0.392930 0.411212 0.138820
C63   C     C_2   0.325025 0.937171 0.595676 0.508926
H36   H     H_    0.270262 0.860533 0.540871 0.007809
O3    O     O_2   0.308700 0.967917 0.662999 -0.561556
C64   C     C_2   0.242686 0.919692 0.410550 0.472536
H37   H     H_    0.234263 0.974665 0.463845 0.026292
O4    O     O_2   0.165333 0.857627 0.341372 -0.576811
C65   C     C_2   0.811519 0.848357 0.040717 0.486503
H38   H     H_    0.799154 0.803467 0.079423 0.017434
O5    O     O_2   0.743466 0.819698 0.967109 -0.619285
N18   N     N_3   0.220114 0.156487 0.348209 -0.192496
H39   H     H_    0.261635 0.134842 0.311520 0.110490
H40   H     H_    0.267859 0.232243 0.400274 0.124949
C66   C     C_2   0.256993 0.287574 0.257900 0.516441
H41   H     H_    0.301358 0.244950 0.240322 0.019890
O6    O     O_2   0.297349 0.383651 0.289846 -0.612963
C67   C     C_2   0.815346 0.148247 0.999839 0.414573
H42   H     H_    0.791803 0.074987 0.005805 0.060801
O7    O     O_2   0.756000 0.189167 0.996488 -0.551416

loop_
_geom_bond_atom_site_label_1
_geom_bond_atom_site_label_2
_ccdc_geom_bond_type
C59   C60   A    
C13   N8    A    
C26   H12   S    
C20   H7    S    
C3    C23   A    
N4    N5    A    
C18   C26   S    
C2    C12   A    
C61   O1    D    
C42   C64   S    
C39   C41   A    
C53   C54   A    
N9    N14   A    
C34   N11   A    
C11   N7    A    
C18   C24   A    
C36   C37   A    
N15   Ni3   S    
C46   H19   S    
C11   C14   A    
C49   C54   A    
C41   H23   S    
C29   C33   A    
C59   C67   S    
C26   H13   S    
C49   C57   S    
C57   H26   S    
C18   C19   A    
N17   H34   S    
C45   N12   A    
C14   C39   S    
N6    Ni1   S    
N1    Ni1   S    
C15   C22   S    
C47   C48   A    
C3    C38   S    
C62   O2    D    
N16   Ni1   S    
C25   H11   S    
C23   H20   S    
C4    C19   S    
C43   C48   A    
N2    N8    A    
C55   N18   S    
C16   C27   S    
C6    C15   A    
N9    Ni2   S    
N10   N12   A    
C21   C22   A    
C4    C56   A    
C30   H17   S    
C57   C66   S    
N11   Ni4   S    
C8    N4    A    
C61   H32   S    
C52   C65   S    
C44   C46   A    
C39   C42   A    
N17   H35   S    
C10   H6    S    
C4    C34   A    
C59   N15   A    
C38   C46   A    
C51   C52   A    
C40   H22   S    
C45   H28   S    
C24   C25   S    
C56   N13   A    
C67   O7    D    
C1    C60   A    
C48   C63   S    
C10   C16   A    
N3    N6    A    
C27   C35   A    
N10   Ni3   S    
N8    Ni3   S    
C5    C14   A    
N3    Ni3   S    
N7    N16   A    
C12   N9    A    
C55   H25   S    
C10   N6    A    
N18   H40   S    
C43   C44   A    
C65   O5    D    
C29   C30   A    
C31   C32   A    
C6    N2    A    
C50   C51   A    
C38   C47   A    
C5    H31   S    
C32   C37   A    
N11   N13   A    
C58   H30   S    
C9    N5    A    
C7    H3    S    
C63   H36   S    
C13   C62   S    
C36   H14   S    
C8    H4    S    
C9    C17   A    
C56   H29   S    
C37   H16   S    
C1    N1    A    
C55   C57   S    
C21   H8    S    
C66   H41   S    
C22   C24   A    
C25   H9    S    
C42   C43   A    
C65   H38   S    
N13   Ni1   S    
C52   C53   A    
C31   H18   S    
C64   O4    D    
C5    N16   A    
N1    N15   A    
C7    N3    A    
C12   H10   S    
C54   C55   S    
C7    C16   A    
N7    Ni4   S    
C11   C61   S    
C28   C31   A    
C67   H42   S    
C1    H1    S    
C2    C28   S    
C2    C58   A    
C29   H15   S    
C27   C36   A    
N5    Ni2   S    
C8    C17   A    
N12   Ni2   S    
C58   N14   A    
C50   C60   S    
C32   C33   A    
C6    H2    S    
C19   C20   A    
C13   C15   A    
N18   H39   S    
C25   C26   S    
N4    Ni4   S    
C23   N10   A    
C28   C30   A    
C33   C35   A    
C3    C45   A    
C34   H27   S    
C47   H21   S    
N14   Ni4   S    
C9    H5    S    
C63   O3    D    
C40   C44   A    
C20   C21   A    
C49   C50   A    
C66   O6    D    
C35   N17   S    
C40   C41   A    
C51   H24   S    
C62   H33   S    
N2    Ni2   S    
C64   H37   S    
