data_mof_unit_58894.cif
_audit_creation_date              2012-12-11T16:51:28-0500
_audit_creation_method            fapswitch 2.2
_symmetry_space_group_name_H-M    P1
_symmetry_Int_Tables_number       1
_space_group_crystal_system       triclinic
_cell_length_a                    24.373837
_cell_length_b                    17.185032
_cell_length_c                    15.569238
_cell_angle_alpha                 90.000237
_cell_angle_beta                  129.22361
_cell_angle_gamma                 89.999886
_cell_volume                      5052.03302613

loop_
_atom_site_label
_atom_site_type_symbol
_atom_type_description
_atom_site_fract_x
_atom_site_fract_y
_atom_site_fract_z
_atom_type_partial_charge
C1    C     C_R   0.850484 0.857603 0.243773 -0.118190
C2    C     C_R   0.139385 0.187789 0.502507 0.066977
C3    C     C_R   0.360623 0.687795 0.497494 0.067009
C4    C     C_R   0.639385 0.687790 0.502507 0.066959
C5    C     C_R   0.852528 0.124577 0.134627 0.157793
C6    C     C_R   0.147474 0.124571 0.865377 0.157798
C7    C     C_R   0.352527 0.624573 0.134625 0.157802
C8    C     C_R   0.647475 0.624568 0.865378 0.157796
C9    C     C_R   0.779043 0.834562 0.606368 -0.036560
C10   C     C_R   0.220983 0.834587 0.393653 -0.035954
C11   C     C_R   0.279041 0.334567 0.606367 -0.036561
C12   C     C_R   0.149518 0.857604 0.756231 -0.118154
C13   C     C_R   0.720965 0.334574 0.393637 -0.036548
C14   C     C_R   0.761878 0.857973 0.505917 0.046502
C15   C     C_R   0.238128 0.857958 0.494103 0.046694
C16   C     C_R   0.261878 0.357973 0.505916 0.046509
C17   C     C_R   0.738125 0.357977 0.494087 0.046504
C18   C     C_R   0.691301 0.849289 0.408609 -0.179302
C19   C     C_R   0.308700 0.849257 0.591419 -0.179582
C20   C     C_R   0.191301 0.349285 0.408607 -0.179363
C21   C     C_R   0.808701 0.349286 0.591398 -0.179300
C22   C     C_R   0.145232 0.301366 0.409535 -0.199366
C23   C     C_R   0.350485 0.357602 0.243775 -0.118195
C24   C     C_R   0.854769 0.301366 0.590471 -0.199363
C25   C     C_R   0.645232 0.801369 0.409538 -0.199363
C26   C     C_R   0.354774 0.801353 0.590486 -0.199343
C27   C     C_R   0.170154 0.262147 0.507598 0.080397
C28   C     C_R   0.829848 0.262149 0.492406 0.080392
C29   C     C_R   0.670155 0.762147 0.507599 0.080390
C30   C     C_R   0.329862 0.762158 0.492412 0.080356
C31   C     C_R   0.233593 0.287966 0.607664 0.095508
C32   C     C_R   0.766414 0.287973 0.392341 0.095515
C33   C     C_R   0.733595 0.787961 0.607665 0.095516
C34   C     C_R   0.649517 0.357604 0.756229 -0.118202
C35   C     C_R   0.266437 0.788004 0.392347 0.095669
C36   C     C_3   0.793671 0.744736 0.708920 -0.634991
C37   C     C_3   0.206363 0.744838 0.291014 -0.636182
C38   C     C_3   0.293669 0.244747 0.708928 -0.634995
C39   C     C_3   0.706338 0.244764 0.291066 -0.634994
C40   C     C_R   0.113865 0.897696 0.407527 -0.046719
C41   C     C_R   0.886136 0.897700 0.592477 -0.047230
C42   C     C_R   0.613864 0.397701 0.407524 -0.047257
C43   C     C_R   0.386137 0.397699 0.592477 -0.047241
C44   C     C_3   0.843541 0.795336 0.707008 0.382888
C45   C     C_R   0.911063 0.144138 0.591374 -0.134330
C46   C     C_3   0.156491 0.795420 0.292963 0.382969
C47   C     C_3   0.343539 0.295348 0.707017 0.382898
C48   C     C_3   0.656467 0.295365 0.292978 0.382877
C49   C     C_2   0.140527 0.742068 0.848733 -0.196829
C50   C     C_2   0.859476 0.742066 0.151273 -0.196863
C51   C     C_2   0.640529 0.242070 0.848735 -0.196828
C52   C     C_2   0.359478 0.242064 0.151278 -0.196831
C53   C     C_2   0.193206 0.702201 0.864029 -0.112393
C54   C     C_2   0.806794 0.702201 0.135971 -0.112391
C55   C     C_2   0.693209 0.202204 0.864030 -0.112411
C56   C     C_R   0.088936 0.144138 0.408626 -0.134381
C57   C     C_2   0.306795 0.202200 0.135973 -0.112409
C58   C     C_2   0.806009 0.150121 0.018924 -0.225342
C59   C     C_2   0.193996 0.150106 0.981085 -0.225356
C60   C     C_2   0.306006 0.650112 0.018920 -0.225356
C61   C     C_2   0.693997 0.650101 0.981086 -0.225340
C62   C     C_2   0.735621 0.150288 0.958950 -0.108183
C63   C     C_2   0.264384 0.150288 0.041049 -0.108185
C64   C     C_2   0.235619 0.650288 0.958951 -0.108203
C65   C     C_2   0.764384 0.650285 0.041049 -0.108193
C66   C     C_R   0.188284 0.895660 0.591113 -0.155754
C67   C     C_R   0.411068 0.644140 0.591374 -0.134355
C68   C     C_R   0.811713 0.895671 0.408890 -0.155475
C69   C     C_R   0.688287 0.395671 0.591110 -0.155471
C70   C     C_R   0.311713 0.395670 0.408890 -0.155491
C71   C     C_R   0.057657 0.858217 0.757265 -0.143898
C72   C     C_R   0.942344 0.858216 0.242738 -0.143893
C73   C     C_R   0.557657 0.358217 0.757265 -0.143897
C74   C     C_R   0.442345 0.358215 0.242741 -0.143908
C75   C     C_R   0.883952 0.815554 0.212267 0.144771
C76   C     C_R   0.116050 0.815555 0.787737 0.144750
C77   C     C_R   0.383954 0.315552 0.212271 0.144766
C78   C     C_R   0.588936 0.644138 0.408626 -0.134331
C79   C     C_R   0.616050 0.315555 0.787737 0.144764
C80   C     C_R   0.182182 0.879745 0.498327 0.069358
C81   C     C_R   0.817817 0.879762 0.501679 0.068740
C82   C     C_R   0.682184 0.379764 0.498321 0.068738
C83   C     C_R   0.317818 0.379761 0.501679 0.068740
C84   C     C_R   0.839121 0.144127 0.406628 -0.140519
C85   C     C_R   0.160878 0.144127 0.593373 -0.140526
C86   C     C_R   0.339127 0.644131 0.406628 -0.140549
C87   C     C_R   0.660877 0.644127 0.593373 -0.140520
C88   C     C_R   0.923384 0.106111 0.197500 -0.161322
C89   C     C_R   0.860614 0.187789 0.497494 0.066961
C90   C     C_R   0.076618 0.106107 0.802503 -0.161329
C91   C     C_R   0.423383 0.606108 0.197498 -0.161321
C92   C     C_R   0.576619 0.606105 0.802504 -0.161326
C93   C     C_R   0.167467 0.105802 0.802451 -0.134908
C94   C     C_R   0.832534 0.105805 0.197550 -0.134912
C95   C     C_R   0.667467 0.605801 0.802451 -0.134908
C96   C     C_R   0.332533 0.605803 0.197549 -0.134919
H1    H     H_    0.802723 0.842839 0.230874 0.090487
H2    H     H_    0.905855 0.287692 0.668646 0.122621
H3    H     H_    0.594144 0.787701 0.331364 0.122625
H4    H     H_    0.405855 0.787671 0.668663 0.122640
H5    H     H_    0.796687 0.682250 0.693638 0.213265
H6    H     H_    0.203320 0.682334 0.306178 0.213003
H7    H     H_    0.296690 0.182260 0.693656 0.213257
H8    H     H_    0.703310 0.182277 0.306325 0.213262
H9    H     H_    0.876576 0.834511 0.779981 0.076999
H10   H     H_    0.123479 0.834642 0.220045 0.076977
H11   H     H_    0.376570 0.334529 0.779987 0.076997
H12   H     H_    0.197280 0.842842 0.769133 0.090501
H13   H     H_    0.623443 0.334552 0.220015 0.077004
H14   H     H_    0.850643 0.722701 0.616525 0.331747
H15   H     H_    0.149329 0.722270 0.382900 0.331806
H16   H     H_    0.350652 0.222701 0.616555 0.331740
H17   H     H_    0.649340 0.222713 0.383417 0.331748
H18   H     H_    0.710763 0.124182 0.990146 0.128782
H19   H     H_    0.289239 0.124202 0.009839 0.128782
H20   H     H_    0.210765 0.624197 0.990158 0.128790
H21   H     H_    0.789238 0.624200 0.009837 0.128773
H22   H     H_    0.213408 0.718302 0.821220 0.129144
H23   H     H_    0.302724 0.342838 0.230876 0.090488
H24   H     H_    0.786590 0.718303 0.178775 0.129130
H25   H     H_    0.713410 0.218307 0.821223 0.129133
H26   H     H_    0.286591 0.218303 0.178778 0.129129
H27   H     H_    0.830163 0.177018 0.986813 0.129469
H28   H     H_    0.169845 0.176982 0.013210 0.129471
H29   H     H_    0.330157 0.676995 0.986801 0.129483
H30   H     H_    0.669846 0.676978 0.013212 0.129471
H31   H     H_    0.121077 0.725732 0.892702 0.138486
H32   H     H_    0.878930 0.725727 0.107310 0.138466
H33   H     H_    0.621079 0.225732 0.892703 0.138490
H34   H     H_    0.697279 0.342841 0.769129 0.090486
H35   H     H_    0.378932 0.225725 0.107315 0.138488
H36   H     H_    0.093933 0.905880 0.323408 0.085779
H37   H     H_    0.906072 0.905874 0.676600 0.085845
H38   H     H_    0.593928 0.405877 0.323401 0.085879
H39   H     H_    0.406073 0.405873 0.676601 0.085861
H40   H     H_    0.236740 0.899397 0.675764 0.090598
H41   H     H_    0.763256 0.899408 0.324240 0.090570
H42   H     H_    0.736744 0.399409 0.675760 0.090566
H43   H     H_    0.263256 0.399408 0.324240 0.090562
H44   H     H_    0.020482 0.842269 0.770208 0.136848
H45   H     H_    0.796637 0.756201 0.782051 0.174951
H46   H     H_    0.979520 0.842268 0.229796 0.136899
H47   H     H_    0.520483 0.342270 0.770210 0.136853
H48   H     H_    0.479521 0.342266 0.229799 0.136865
H49   H     H_    0.803414 0.161113 0.321052 0.117635
H50   H     H_    0.196585 0.161113 0.678949 0.117640
H51   H     H_    0.303426 0.661120 0.321054 0.117702
H52   H     H_    0.696585 0.661113 0.678949 0.117638
H53   H     H_    0.953090 0.102800 0.167618 0.090887
H54   H     H_    0.046913 0.102794 0.832386 0.090890
H55   H     H_    0.453089 0.602796 0.167616 0.090893
H56   H     H_    0.203428 0.756374 0.217928 0.175240
H57   H     H_    0.546914 0.602791 0.832387 0.090893
H58   H     H_    0.220799 0.102056 0.830543 0.083407
H59   H     H_    0.779201 0.102062 0.169456 0.083410
H60   H     H_    0.720800 0.602055 0.830544 0.083402
H61   H     H_    0.279201 0.602059 0.169455 0.083409
H62   H     H_    0.939550 0.160220 0.676965 0.094235
H63   H     H_    0.060451 0.160220 0.323036 0.094242
H64   H     H_    0.439557 0.660222 0.676965 0.094241
H65   H     H_    0.560451 0.660220 0.323036 0.094235
H66   H     H_    0.673928 0.871264 0.329840 0.120435
H67   H     H_    0.296629 0.256217 0.782053 0.174959
H68   H     H_    0.326063 0.871206 0.670195 0.120469
H69   H     H_    0.173930 0.371256 0.329836 0.120423
H70   H     H_    0.826071 0.371255 0.670169 0.120430
H71   H     H_    0.703384 0.256240 0.217949 0.174963
H72   H     H_    0.094145 0.287695 0.331360 0.122619
N1    N     N_R   0.888400 0.921830 0.294620 -0.043848
N2    N     N_R   0.874350 0.922400 0.443380 -0.039672
N3    N     N_R   0.625650 0.422400 0.556620 -0.039674
N4    N     N_R   0.374350 0.422400 0.443380 -0.039671
N5    N     N_R   0.054230 0.922730 0.705400 -0.046259
N6    N     N_R   0.945770 0.922730 0.294600 -0.046266
N7    N     N_R   0.554230 0.422730 0.705400 -0.046257
N8    N     N_R   0.445770 0.422730 0.294600 -0.046257
N9    N     N_R   0.873790 0.077030 0.443380 -0.041541
N10   N     N_R   0.126210 0.077030 0.556620 -0.041550
N11   N     N_R   0.373790 0.577030 0.443380 -0.041550
N12   N     N_R   0.111600 0.921830 0.705380 -0.043842
N13   N     N_R   0.626210 0.577030 0.556620 -0.041541
N14   N     N_R   0.945200 0.076700 0.294600 -0.038461
N15   N     N_R   0.054800 0.076700 0.705400 -0.038463
N16   N     N_R   0.445200 0.576700 0.294600 -0.038462
N17   N     N_R   0.554800 0.576700 0.705400 -0.038462
N18   N     N_R   0.111030 0.077600 0.705380 -0.042381
N19   N     N_R   0.888970 0.077600 0.294620 -0.042383
N20   N     N_R   0.611030 0.577600 0.705380 -0.042384
N21   N     N_R   0.388970 0.577600 0.294620 -0.042385
N22   N     N_R   0.919490 0.077280 0.556590 -0.042221
N23   N     N_R   0.388400 0.421830 0.294620 -0.043848
N24   N     N_R   0.080510 0.077280 0.443410 -0.042246
N25   N     N_R   0.419490 0.577280 0.556590 -0.042221
N26   N     N_R   0.580510 0.577280 0.443410 -0.042220
N27   N     N_R   0.611600 0.421830 0.705380 -0.043848
N28   N     N_R   0.079940 0.922160 0.443410 -0.048392
N29   N     N_R   0.920060 0.922160 0.556590 -0.048299
N30   N     N_R   0.579940 0.422160 0.443410 -0.048302
N31   N     N_R   0.420060 0.422160 0.556590 -0.048300
N32   N     N_R   0.125650 0.922400 0.556620 -0.039689
Ni1   Ni    Ni4+2 0.882160 0.999430 0.370180 0.209876
Ni2   Ni    Ni4+2 0.117840 0.999430 0.629820 0.209863
Ni3   Ni    Ni4+2 0.382160 0.499430 0.370180 0.209855
Ni4   Ni    Ni4+2 0.617840 0.499430 0.629820 0.209868
Ni5   Ni    Ni4+2 0.012460 0.999430 0.370180 0.209505
Ni6   Ni    Ni4+2 0.987540 0.999430 0.629820 0.209537
Ni7   Ni    Ni4+2 0.512460 0.499430 0.370180 0.209533
Ni8   Ni    Ni4+2 0.487540 0.499430 0.629820 0.209529
O1    O     O_3   0.883572 0.752485 0.686527 -0.747252
O2    O     O_3   0.116443 0.752597 0.313430 -0.747407
O3    O     O_3   0.383577 0.252496 0.686550 -0.747252
O4    O     O_3   0.616421 0.252512 0.313427 -0.747265

loop_
_geom_bond_atom_site_label_1
_geom_bond_atom_site_label_2
_ccdc_geom_bond_type
C34   N27   A    
C58   C62   D    
C55   H25   S    
C64   H20   S    
C54   H24   S    
C3    C30   S    
C43   C83   A    
N24   Ni5   S    
C14   C18   A    
C13   C32   A    
C11   C47   S    
C42   C82   A    
C90   H54   S    
C86   H51   S    
C23   N23   A    
C5    C94   A    
N29   Ni6   S    
C39   H8    S    
C4    C87   A    
C44   H9    S    
N21   Ni3   S    
C72   H46   S    
N26   Ni7   S    
C8    C95   A    
C58   H27   S    
C50   C54   D    
N16   Ni7   S    
C5    C58   S    
C2    C85   A    
C24   H2    S    
C68   C81   A    
N8    Ni7   S    
C60   H29   S    
C35   C37   S    
C17   C82   S    
C56   H63   S    
N12   Ni2   S    
C10   C15   A    
C23   H23   S    
C37   H6    S    
C53   C64   S    
C46   O2    S    
C55   C62   S    
C29   C33   A    
N3    Ni4   S    
C33   C36   S    
N18   Ni2   S    
N4    N31   A    
C95   H60   S    
C69   N3    A    
C32   C39   S    
N28   Ni5   S    
C19   C26   A    
C70   N4    A    
C86   N11   A    
N2    Ni1   S    
C69   C82   A    
C57   H26   S    
C5    C88   A    
C68   N2    A    
N22   Ni6   S    
N13   N26   A    
C48   O4    S    
C94   H59   S    
C74   C77   A    
C10   C46   S    
N6    Ni5   S    
N1    N6    A    
C40   C80   A    
C67   H64   S    
C8    C92   A    
C72   N6    A    
C45   C89   A    
C4    C29   S    
N28   N32   A    
C8    C61   S    
C69   H42   S    
C63   H19   S    
C93   N18   A    
C23   C77   A    
C96   H61   S    
C40   H36   S    
C11   C31   A    
C70   H43   S    
N25   Ni8   S    
C91   N16   A    
C3    C86   A    
C9    C33   A    
N17   Ni8   S    
C68   H41   S    
C84   N9    A    
C18   C25   A    
N23   Ni3   S    
N7    Ni8   S    
C72   C75   A    
N7    N27   A    
C25   H3    S    
C95   N20   A    
C57   C63   S    
C51   C79   S    
C25   C29   A    
C49   H31   S    
C92   H57   S    
C40   N28   A    
C87   H52   S    
C27   C31   A    
C1    C75   A    
H16   O3    S    
C28   C32   A    
C85   H50   S    
N5    Ni6   S    
C41   N29   A    
N15   N18   A    
C1    H1    S    
C54   C65   S    
C53   H22   S    
C85   N10   A    
N17   N20   A    
C42   H38   S    
N27   Ni4   S    
N5    N12   A    
C84   H49   S    
N20   Ni4   S    
C88   H53   S    
C17   C21   A    
C21   H70   S    
C71   N5    A    
C36   H5    S    
C96   N21   A    
C73   N7    A    
N4    Ni3   S    
C15   C19   A    
C9    C14   A    
C74   N8    A    
C38   H7    S    
C20   H69   S    
C56   N24   A    
C34   C79   A    
N10   N24   A    
C11   C16   A    
C88   N14   A    
C15   C80   S    
C42   N30   A    
C16   C20   A    
C6    C93   A    
C41   C81   A    
C73   C79   A    
C49   C76   S    
C94   N19   A    
C43   H39   S    
C70   C83   A    
C38   C47   S    
C2    C27   S    
C2    C56   A    
C66   H40   S    
C41   H37   S    
C30   C35   A    
C38   H67   S    
C12   N12   A    
N11   Ni3   S    
C26   C30   A    
C47   H11   S    
C22   C27   A    
N10   Ni2   S    
C78   N26   A    
C28   C89   S    
N9    Ni1   S    
C36   C44   S    
H14   O1    S    
C50   H32   S    
C84   C89   A    
C37   H56   S    
C52   C77   S    
C7    C60   S    
C12   H12   S    
N11   N25   A    
C59   H28   S    
C36   H45   S    
C74   H48   S    
C93   H58   S    
C9    C44   S    
N9    N22   A    
N30   Ni7   S    
C92   N17   A    
C52   H35   S    
C6    C59   S    
C3    C67   A    
C45   H62   S    
C24   C28   A    
H17   O4    S    
C20   C22   A    
C19   H68   S    
N8    N23   A    
C4    C78   A    
C87   N13   A    
C13   C48   S    
C62   H18   S    
C71   H44   S    
N3    N30   A    
C66   C80   A    
N19   Ni1   S    
C51   H33   S    
C59   C63   D    
C31   C38   S    
C13   C17   A    
C60   C64   D    
N14   Ni5   S    
C12   C76   A    
H15   O2    S    
C22   H72   S    
C6    C90   A    
C50   C75   S    
C7    C91   A    
C91   H55   S    
C18   H66   S    
C71   C76   A    
C49   C53   D    
C46   H10   S    
C1    N1    A    
N31   Ni8   S    
C44   O1    S    
C48   H13   S    
C51   C55   D    
N14   N19   A    
C16   C83   S    
C39   H71   S    
C47   O3    S    
C73   H47   S    
C52   C57   D    
N1    Ni1   S    
C10   C35   A    
C61   C65   D    
C45   N22   A    
C61   H30   S    
C90   N15   A    
C34   H34   S    
C78   H65   S    
N32   Ni2   S    
C21   C24   A    
C7    C96   A    
N13   Ni4   S    
N15   Ni6   S    
C65   H21   S    
N16   N21   A    
C43   N31   A    
C14   C81   S    
C37   C46   S    
C67   N25   A    
N2    N29   A    
C66   N32   A    
C26   H4    S    
C39   C48   S    
