data_mof_unit_34503.cif
_audit_creation_date              2013-03-05T15:51:36-0500
_audit_creation_method            fapswitch 2.2
_symmetry_space_group_name_H-M    P1
_symmetry_Int_Tables_number       1
_space_group_crystal_system       triclinic
_cell_length_a                    31.41685
_cell_length_b                    18.340075
_cell_length_c                    25.682101
_cell_angle_alpha                 89.791837
_cell_angle_beta                  144.424534
_cell_angle_gamma                 90.098443
_cell_volume                      8608.85343887

loop_
_atom_site_label
_atom_site_type_symbol
_atom_site_description
_atom_site_fract_x
_atom_site_fract_y
_atom_site_fract_z
_atom_type_partial_charge
Zn1   Zn    Zn3+2 0.000000 0.086750 0.293940 0.979284
Zn2   Zn    Zn3+2 0.000000 0.913250 0.706060 0.980035
Zn3   Zn    Zn3+2 0.000000 0.086750 0.706060 0.970985
Zn4   Zn    Zn3+2 1.000000 0.913250 0.293940 0.971453
Zn5   Zn    Zn3+2 0.500000 0.586750 0.293940 0.978890
Zn6   Zn    Zn3+2 0.500000 0.413250 0.706060 0.978778
Zn7   Zn    Zn3+2 0.500000 0.586750 0.706060 0.972784
Zn8   Zn    Zn3+2 0.500000 0.413250 0.293940 0.972094
Zn9   Zn    Zn3+2 0.913220 0.000000 0.119290 0.976230
Zn10  Zn    Zn3+2 0.086780 0.000000 0.880710 0.976443
Zn11  Zn    Zn3+2 0.413220 0.500000 0.119290 0.978695
Zn12  Zn    Zn3+2 0.586780 0.500000 0.880710 0.978821
Zn13  Zn    Zn3+2 0.086730 0.000000 0.292800 1.003262
Zn14  Zn    Zn3+2 0.913270 0.000000 0.707200 1.003232
Zn15  Zn    Zn3+2 0.586730 0.500000 0.292800 1.002167
Zn16  Zn    Zn3+2 0.413270 0.500000 0.707200 1.002603
O1    O     O_3   0.999990 0.000000 0.249990 -0.480962
O2    O     O_3   0.000010 0.000000 0.750010 -0.480872
O3    O     O_3   0.499990 0.500000 0.249990 -0.481436
O4    O     O_3   0.500010 0.500000 0.750010 -0.481220
O5    O     O_R   0.914560 0.853840 0.195310 -0.635410
O6    O     O_R   0.085440 0.146160 0.804690 -0.635170
O7    O     O_R   0.085440 0.853840 0.804690 -0.630914
O8    O     O_R   0.914560 0.146160 0.195310 -0.630970
O9    O     O_R   0.414560 0.353840 0.195310 -0.641212
O10   O     O_R   0.585440 0.646160 0.804690 -0.641533
O11   O     O_R   0.585440 0.353840 0.804690 -0.624157
O12   O     O_R   0.414560 0.646160 0.195310 -0.624466
O13   O     O_R   0.085440 0.146150 0.366190 -0.631022
O14   O     O_R   0.914560 0.853850 0.633810 -0.629622
O15   O     O_R   0.914560 0.146150 0.633810 -0.629778
O16   O     O_R   0.085440 0.853850 0.366190 -0.628998
O17   O     O_R   0.585440 0.646150 0.366190 -0.625105
O18   O     O_R   0.414560 0.353850 0.633810 -0.625819
O19   O     O_R   0.414560 0.646150 0.633810 -0.633505
O20   O     O_R   0.585440 0.353850 0.366190 -0.634642
O21   O     O_R   0.853820 0.085430 0.073070 -0.632834
O22   O     O_R   0.146180 0.914570 0.926930 -0.633089
O23   O     O_R   0.146180 0.085430 0.926930 -0.651864
O24   O     O_R   0.853820 0.914570 0.073070 -0.652289
O25   O     O_R   0.353820 0.585430 0.073070 -0.656244
O26   O     O_R   0.646180 0.414570 0.926930 -0.655935
O27   O     O_R   0.646180 0.585430 0.926930 -0.628355
O28   O     O_R   0.353820 0.414570 0.073070 -0.628019
O29   O     O_R   0.146150 0.914540 0.365390 -0.630236
O30   O     O_R   0.853850 0.085460 0.634610 -0.629632
O31   O     O_R   0.853850 0.914540 0.634610 -0.620426
O32   O     O_R   0.146150 0.085460 0.365390 -0.619076
O33   O     O_R   0.646150 0.414540 0.365390 -0.619076
O34   O     O_R   0.353850 0.585460 0.634610 -0.619973
O35   O     O_R   0.353850 0.414540 0.634610 -0.629615
O36   O     O_R   0.646150 0.585460 0.365390 -0.630748
O37   O     O_R   0.939240 0.000000 0.071950 -0.624341
O38   O     O_R   0.060760 0.000000 0.928050 -0.624550
O39   O     O_R   0.439240 0.500000 0.071950 -0.621494
O40   O     O_R   0.560760 0.500000 0.928050 -0.621670
O41   O     O_R   0.000020 0.939290 0.367320 -0.647490
O42   O     O_R   0.999980 0.060710 0.632680 -0.647828
O43   O     O_R   0.999980 0.939290 0.632680 -0.640731
O44   O     O_R   0.000020 0.060710 0.367320 -0.640907
O45   O     O_R   0.500020 0.439290 0.367320 -0.648723
O46   O     O_R   0.499980 0.560710 0.632680 -0.648447
O47   O     O_R   0.499980 0.439290 0.632680 -0.640380
O48   O     O_R   0.500020 0.560710 0.367320 -0.640090
O49   O     O_R   0.060680 0.000000 0.193390 -0.616770
O50   O     O_R   0.939320 0.000000 0.806610 -0.616895
O51   O     O_R   0.560680 0.500000 0.193390 -0.619603
O52   O     O_R   0.439320 0.500000 0.806610 -0.619542
C1    C     C_R   0.860457 0.859871 0.110354 0.797123
C2    C     C_R   0.139575 0.140102 0.889654 0.797688
C3    C     C_R   0.139634 0.860128 0.889787 0.793206
C4    C     C_R   0.860404 0.139899 0.110219 0.793607
C5    C     C_R   0.360443 0.359900 0.110370 0.800548
C6    C     C_R   0.639533 0.640130 0.889624 0.800349
C7    C     C_R   0.639677 0.360163 0.889840 0.791257
C8    C     C_R   0.360337 0.639841 0.110168 0.790599
C9    C     C_R   0.137929 0.141681 0.385523 0.841374
C10   C     C_R   0.861417 0.858858 0.613371 0.840175
C11   C     C_R   0.861373 0.141228 0.612961 0.843507
C12   C     C_R   0.138963 0.859074 0.387560 0.842650
C13   C     C_R   0.638891 0.641028 0.387206 0.842084
C14   C     C_R   0.361592 0.358534 0.613603 0.843731
C15   C     C_R   0.361281 0.641013 0.612883 0.841317
C16   C     C_R   0.638298 0.358627 0.386443 0.842009
C17   C     C_R   0.000218 0.991353 0.108850 0.883834
C18   C     C_R   0.999790 0.008418 0.891200 0.884082
C19   C     C_R   0.500356 0.508464 0.108938 0.884228
C20   C     C_R   0.499659 0.491877 0.891144 0.885416
C21   C     C_R   0.000043 0.999843 0.391733 0.766359
C22   C     C_R   0.999964 0.000159 0.608273 0.766258
C23   C     C_R   0.500037 0.499841 0.391728 0.765923
C24   C     C_R   0.499958 0.500156 0.608267 0.765893
C25   C     C_3   0.999968 0.930693 0.483260 -0.124030
C26   C     C_3   0.000052 0.069325 0.516759 -0.124044
C27   C     C_3   0.939915 0.965788 0.457754 -0.179354
C28   C     C_3   0.060105 0.034231 0.542264 -0.179247
C29   C     C_3   0.499951 0.430675 0.483244 -0.124233
C30   C     C_3   0.500032 0.569307 0.516740 -0.124197
C31   C     C_3   0.439897 0.465767 0.457738 -0.179862
C32   C     C_3   0.560085 0.534214 0.542247 -0.180059
C33   C     C_3   0.060044 0.965449 0.577299 -0.179246
C34   C     C_3   0.939977 0.034569 0.422720 -0.179350
C35   C     C_3   0.560025 0.465432 0.577282 -0.178886
C36   C     C_3   0.439957 0.534549 0.422702 -0.178704
H1    H     H_    0.109300 0.937131 0.641673 0.137778
H2    H     H_    0.890719 0.062888 0.358347 0.137626
H3    H     H_    0.609283 0.437115 0.641656 0.138210
H4    H     H_    0.390700 0.562865 0.358326 0.138415
H5    H     H_    0.999939 0.873736 0.468746 0.153543
H6    H     H_    0.000079 0.126281 0.531272 0.153568
H7    H     H_    0.890605 0.937759 0.424046 0.138599
H8    H     H_    0.109413 0.062260 0.575963 0.138075
H9    H     H_    0.499924 0.373719 0.468731 0.153034
H10   H     H_    0.500061 0.626264 0.531254 0.153002
H11   H     H_    0.390589 0.437736 0.424038 0.137811
H12   H     H_    0.609395 0.562244 0.575954 0.138250
C37   C     C_3   0.999990 0.000486 0.550941 0.054850
C38   C     C_3   0.000029 0.999529 0.449077 0.055052
C39   C     C_3   0.499972 0.500471 0.550924 0.055350
C40   C     C_3   0.500012 0.499514 0.449061 0.055082
H13   H     H_    0.101193 0.330707 0.207999 0.151446
H14   H     H_    0.918371 0.654223 0.794353 0.146937
H15   H     H_    0.903183 0.331850 0.792493 0.158660
H16   H     H_    0.079457 0.653694 0.206211 0.156419
H17   H     H_    0.580438 0.847891 0.206735 0.149056
H18   H     H_    0.399245 0.167504 0.790879 0.153517
H19   H     H_    0.420086 0.844902 0.794667 0.155096
H20   H     H_    0.597099 0.169457 0.206670 0.156994
C41   C     C_R   0.253991 0.127553 0.571522 -0.141341
C42   C     C_R   0.732174 0.883123 0.427382 -0.147638
C43   C     C_R   0.745274 0.129353 0.426515 -0.141425
C44   C     C_R   0.266569 0.880628 0.573941 -0.143061
C45   C     C_R   0.767912 0.617658 0.573794 -0.148226
C46   C     C_R   0.245284 0.372063 0.427097 -0.142276
C47   C     C_R   0.233740 0.618924 0.426932 -0.142653
C48   C     C_R   0.754106 0.370829 0.572507 -0.141020
C49   C     C_R   0.307483 0.119962 0.662443 -0.188214
C50   C     C_R   0.672849 0.894760 0.335818 -0.178499
C51   C     C_R   0.691019 0.122365 0.335342 -0.188172
C52   C     C_R   0.325695 0.891429 0.665535 -0.177068
C53   C     C_R   0.826777 0.606615 0.665466 -0.177423
C54   C     C_R   0.192024 0.379173 0.336149 -0.187962
C55   C     C_R   0.174405 0.607732 0.335432 -0.177262
C56   C     C_R   0.808524 0.378170 0.663650 -0.187151
C57   C     C_R   0.875308 0.662744 0.723154 -0.139791
C58   C     C_R   0.140931 0.324718 0.278553 -0.137512
C59   C     C_R   0.123669 0.662672 0.277497 -0.149595
C60   C     C_R   0.861841 0.325227 0.721545 -0.140316
C61   C     C_R   0.359123 0.173908 0.720230 -0.129795
C62   C     C_R   0.623953 0.838946 0.277971 -0.130858
C63   C     C_R   0.638142 0.175746 0.277564 -0.145518
C64   C     C_R   0.376127 0.836214 0.723381 -0.155856
C65   C     C_R   0.867310 0.730190 0.690365 0.122422
C66   C     C_R   0.141241 0.262487 0.310417 0.123003
C67   C     C_R   0.130262 0.729265 0.309856 0.110997
C68   C     C_R   0.862190 0.264001 0.689666 0.108112
C69   C     C_R   0.358905 0.236119 0.688439 0.119430
C70   C     C_R   0.632226 0.771253 0.310635 0.121467
C71   C     C_R   0.637913 0.237047 0.309491 0.114815
C72   C     C_R   0.369561 0.769711 0.690928 0.114790
C73   C     C_R   0.810862 0.740734 0.595907 0.032567
C74   C     C_R   0.193853 0.255178 0.404277 0.028080
C75   C     C_R   0.188491 0.740486 0.404625 0.037969
C76   C     C_R   0.807223 0.255676 0.595185 0.034952
C77   C     C_R   0.305887 0.244222 0.594610 0.034095
C78   C     C_R   0.689129 0.759957 0.405005 0.037334
C79   C     C_R   0.692574 0.244755 0.404021 0.028340
C80   C     C_R   0.311593 0.759034 0.596059 0.032465
C81   C     C_R   0.251476 0.189500 0.535698 0.056755
C82   C     C_R   0.741954 0.815825 0.463696 0.053071
C83   C     C_R   0.747723 0.190333 0.462784 0.054791
C84   C     C_R   0.257838 0.814547 0.537404 0.051964
C85   C     C_R   0.758189 0.684686 0.537243 0.052427
C86   C     C_R   0.248015 0.310187 0.463133 0.056068
C87   C     C_R   0.242385 0.685132 0.463293 0.052571
C88   C     C_R   0.751865 0.309852 0.536389 0.055305
C89   C     C_R   0.803848 0.804305 0.557494 -0.137829
C90   C     C_R   0.195276 0.196392 0.442043 -0.139618
C91   C     C_R   0.195995 0.803858 0.443382 -0.139379
C92   C     C_R   0.804644 0.196727 0.556743 -0.139967
C93   C     C_R   0.304230 0.303499 0.556917 -0.138316
C94   C     C_R   0.696446 0.695886 0.443279 -0.136726
C95   C     C_R   0.694998 0.303351 0.442531 -0.141852
C96   C     C_R   0.304258 0.696005 0.557194 -0.140789
H21   H     H_    0.214823 0.083584 0.529887 0.115973
H22   H     H_    0.769832 0.928119 0.469145 0.122095
H23   H     H_    0.785219 0.085799 0.468039 0.114635
H24   H     H_    0.228051 0.925270 0.532301 0.118682
H25   H     H_    0.730487 0.572491 0.532123 0.121464
H26   H     H_    0.284138 0.416287 0.468608 0.114986
H27   H     H_    0.272453 0.574435 0.468633 0.118689
H28   H     H_    0.713906 0.414159 0.530903 0.115153
H29   H     H_    0.308096 0.072447 0.688160 0.131330
H30   H     H_    0.666155 0.946622 0.309501 0.135285
H31   H     H_    0.690536 0.075565 0.309316 0.132973
H32   H     H_    0.331410 0.942352 0.691940 0.135785
H33   H     H_    0.833365 0.554956 0.691970 0.135222
H34   H     H_    0.191261 0.426679 0.310273 0.131691
H35   H     H_    0.168732 0.556719 0.309170 0.135382
H36   H     H_    0.808882 0.424959 0.689565 0.132371
H37   H     H_    0.626986 0.967944 0.930411 0.142418
H38   H     H_    0.372886 0.032454 0.068496 0.141895
H39   H     H_    0.334409 0.929264 0.962856 0.129774
H40   H     H_    0.665914 0.070921 0.037673 0.130140
H41   H     H_    0.127211 0.467532 0.931636 0.141113
H42   H     H_    0.872950 0.532107 0.069436 0.141458
H43   H     H_    0.835327 0.430316 0.964797 0.129797
H44   H     H_    0.164561 0.569614 0.034941 0.129543
C97   C     C_R   0.896021 0.711008 0.120222 -0.131086
C98   C     C_R   0.104107 0.288786 0.880360 -0.131315
C99   C     C_R   0.125094 0.732762 0.939669 -0.127888
C100  C     C_R   0.874905 0.267240 0.060254 -0.128308
C101  C     C_R   0.395904 0.211395 0.119205 -0.128995
C102  C     C_R   0.603946 0.788919 0.879947 -0.128786
C103  C     C_R   0.626643 0.234162 0.942692 -0.139874
C104  C     C_R   0.373652 0.766007 0.057799 -0.140154
C105  C     C_R   0.913603 0.639860 0.123606 -0.127979
C106  C     C_R   0.086556 0.359818 0.877310 -0.126910
C107  C     C_R   0.117069 0.671136 0.963056 -0.117726
C108  C     C_R   0.882884 0.328835 0.036784 -0.118054
C109  C     C_R   0.413461 0.140323 0.122345 -0.129340
C110  C     C_R   0.586364 0.860096 0.876507 -0.130108
C111  C     C_R   0.618852 0.172849 0.966642 -0.119083
C112  C     C_R   0.381488 0.827368 0.033948 -0.119807
C113  C     C_R   0.359278 0.087509 0.066567 -0.147792
C114  C     C_R   0.640606 0.912822 0.932516 -0.147324
C115  C     C_R   0.671993 0.118539 0.019082 -0.165097
C116  C     C_R   0.328296 0.881629 0.981393 -0.163898
C117  C     C_R   0.859315 0.587212 0.067327 -0.148566
C118  C     C_R   0.140823 0.412501 0.933534 -0.149032
C119  C     C_R   0.170767 0.617367 0.016627 -0.164504
C120  C     C_R   0.829148 0.382570 0.983150 -0.165456
C121  C     C_R   0.287419 0.105479 0.007805 -0.146036
C122  C     C_R   0.712539 0.894688 0.991714 -0.145736
C123  C     C_R   0.733191 0.125501 0.047973 -0.151516
C124  C     C_R   0.267005 0.874602 0.952314 -0.151447
C125  C     C_R   0.787354 0.605386 0.007978 -0.144313
C126  C     C_R   0.212729 0.394456 0.992541 -0.144492
C127  C     C_R   0.232583 0.624948 0.046819 -0.150384
C128  C     C_R   0.767346 0.374989 0.952989 -0.150517
C129  C     C_R   0.268398 0.177216 0.004499 0.073182
C130  C     C_R   0.731581 0.822872 0.995224 0.073338
C131  C     C_R   0.742184 0.187537 0.024508 0.079832
C132  C     C_R   0.257950 0.812533 0.975669 0.079730
C133  C     C_R   0.768336 0.677177 0.004569 0.074334
C134  C     C_R   0.231710 0.322750 0.995698 0.074196
C135  C     C_R   0.241724 0.687134 0.023680 0.079632
C136  C     C_R   0.758262 0.312841 0.976230 0.079680
C137  C     C_R   0.823307 0.731060 0.060637 0.066158
C138  C     C_R   0.176762 0.268847 0.939653 0.066075
C139  C     C_R   0.187212 0.741734 0.969336 0.061488
C140  C     C_R   0.812796 0.258262 0.030606 0.061541
C141  C     C_R   0.323309 0.231187 0.060330 0.067090
C142  C     C_R   0.676628 0.768949 0.939287 0.067087
C143  C     C_R   0.687932 0.242366 0.970688 0.063122
C144  C     C_R   0.312227 0.757718 0.029548 0.063313
C145  C     C_R   0.195667 0.196291 0.945199 -0.164309
C146  C     C_R   0.804365 0.803692 0.054823 -0.164346
C147  C     C_R   0.804203 0.195981 0.054050 -0.152207
C148  C     C_R   0.195851 0.804045 0.945974 -0.152146
C149  C     C_R   0.695584 0.696333 0.945072 -0.162511
C150  C     C_R   0.304401 0.303698 0.054889 -0.162358
C151  C     C_R   0.303977 0.695785 0.053706 -0.152587
C152  C     C_R   0.696067 0.304231 0.946327 -0.152876
H45   H     H_    0.940175 0.749759 0.164844 0.169971
H46   H     H_    0.059979 0.250020 0.835710 0.170365
H47   H     H_    0.082437 0.773385 0.898364 0.149245
H48   H     H_    0.917621 0.226677 0.101664 0.149422
H49   H     H_    0.439953 0.250340 0.163298 0.165520
H50   H     H_    0.559832 0.750059 0.835681 0.165842
H51   H     H_    0.584616 0.275309 0.902520 0.151309
H52   H     H_    0.415759 0.724900 0.098092 0.150587
H53   H     H_    0.969529 0.625696 0.169694 0.149579
H54   H     H_    0.030662 0.373841 0.831518 0.151239
H55   H     H_    0.069079 0.665181 0.939645 0.143957
H56   H     H_    0.930895 0.334802 0.060227 0.146237
H57   H     H_    0.469283 0.126380 0.167804 0.148817
H58   H     H_    0.530481 0.874208 0.830637 0.147925
H59   H     H_    0.571452 0.167543 0.944480 0.148933
H60   H     H_    0.428947 0.832744 0.056240 0.146575
H61   H     H_    0.247188 0.062608 0.964553 0.130682
H62   H     H_    0.752798 0.937511 0.035120 0.130995
H63   H     H_    0.773251 0.081978 0.088895 0.109323
H64   H     H_    0.226919 0.918101 0.911328 0.109158
H65   H     H_    0.747063 0.562608 0.964432 0.128671
H66   H     H_    0.253014 0.437250 0.036030 0.128351
H67   H     H_    0.272927 0.581701 0.088325 0.110025
H68   H     H_    0.726983 0.418218 0.911458 0.109970
H69   H     H_    0.252358 0.967011 0.289992 0.157302
H70   H     H_    0.747630 0.032192 0.710128 0.157194
H71   H     H_    0.753531 0.522761 0.290739 0.158035
H72   H     H_    0.246467 0.478902 0.709454 0.157885
C153  C     C_R   0.866956 0.948787 0.911560 0.238132
C154  C     C_R   0.133184 0.050586 0.088685 0.238119
C155  C     C_R   0.369060 0.556762 0.913740 0.244052
C156  C     C_R   0.631244 0.444433 0.086744 0.244101
C157  C     C_R   0.800335 0.969302 0.822469 -0.140759
C158  C     C_R   0.199768 0.029937 0.177736 -0.141284
C159  C     C_R   0.301678 0.539309 0.823983 -0.140017
C160  C     C_R   0.698562 0.462201 0.176417 -0.140605
C161  C     C_R   0.799286 0.015166 0.778276 -0.185462
C162  C     C_R   0.200734 0.984096 0.221857 -0.185474
C163  C     C_R   0.298780 0.493714 0.778107 -0.188606
C164  C     C_R   0.701281 0.507784 0.222124 -0.188501
C165  C     C_R   0.864719 0.035467 0.819834 -0.094278
C166  C     C_R   0.135265 0.963934 0.180262 -0.093038
C167  C     C_R   0.363319 0.470641 0.818809 -0.092821
C168  C     C_R   0.636651 0.530556 0.181341 -0.091462
C169  C     C_R   0.932590 0.012570 0.908186 0.042641
C170  C     C_R   0.067442 0.986901 0.091924 0.042861
C171  C     C_R   0.432143 0.490608 0.907860 0.041606
C172  C     C_R   0.567927 0.510390 0.092337 0.041799
C173  C     C_R   0.933624 0.979108 0.958503 0.071193
C174  C     C_R   0.066446 0.020355 0.041643 0.070666
C175  C     C_R   0.434474 0.523829 0.959348 0.069940
C176  C     C_R   0.565676 0.477167 0.040929 0.069195
C177  C     C_R   0.999231 0.021746 0.947267 -0.197761
C178  C     C_R   0.000809 0.977820 0.052848 -0.197485
C179  C     C_R   0.498485 0.478639 0.946650 -0.194441
C180  C     C_R   0.501595 0.522141 0.053560 -0.194418
H73   H     H_    0.749104 0.948536 0.786662 0.149001
H74   H     H_    0.251038 0.050632 0.213596 0.149084
H75   H     H_    0.251314 0.562099 0.789077 0.149575
H76   H     H_    0.749016 0.439581 0.211436 0.149680
H77   H     H_    0.861786 0.070297 0.782905 0.183971
H78   H     H_    0.138113 0.929176 0.217150 0.184238
H79   H     H_    0.358751 0.435807 0.780574 0.188215
H80   H     H_    0.641030 0.565279 0.219464 0.188434
C181  C     C_3   0.864491 0.887493 0.948340 -0.836278
H81   H     H_    0.835957 0.839936 0.902704 0.227322
H82   H     H_    0.919754 0.868630 0.014700 0.243500
H83   H     H_    0.833652 0.904973 0.952647 0.269154
C182  C     C_3   0.135785 0.111998 0.052148 -0.836751
H84   H     H_    0.166489 0.094549 0.047638 0.269612
H85   H     H_    0.080560 0.131066 0.985949 0.243899
H86   H     H_    0.164501 0.159409 0.098020 0.226645
C183  C     C_3   0.368951 0.617453 0.953078 -0.854436
H87   H     H_    0.337534 0.600695 0.956775 0.269655
H88   H     H_    0.424848 0.633799 0.020123 0.238741
H89   H     H_    0.342234 0.666488 0.909467 0.231404
C184  C     C_3   0.631641 0.383516 0.047884 -0.854741
H90   H     H_    0.658708 0.334744 0.091951 0.230538
H91   H     H_    0.575818 0.366766 0.981104 0.239362
H92   H     H_    0.662832 0.400246 0.043850 0.270211
I1    I     I_    0.936202 0.810623 0.793154 -0.402870
I2    I     I_    0.062632 0.185625 0.205081 -0.406139
I3    I     I_    0.052800 0.806327 0.203761 -0.483789
I4    I     I_    0.948297 0.191682 0.797292 -0.487664
I5    I     I_    0.438649 0.311517 0.793896 -0.494727
I6    I     I_    0.563132 0.691683 0.207792 -0.491701
I7    I     I_    0.552844 0.310733 0.201880 -0.396073
I8    I     I_    0.446551 0.691850 0.797006 -0.391993

loop_
_geom_bond_atom_site_label_1
_geom_bond_atom_site_label_2
_geom_bond_distance
_ccdc_geom_bond_type
C55   H35   1.081869 S    
C41   H21   1.081804 S    
C54   C58   1.380171 A    
C101  C141  1.417305 A    
C44   H24   1.081789 S    
C183  H87   1.108543 S    
C45   H25   1.081748 S    
C173  C178  1.416675 A    
C70   I6    2.123292 S    
C182  H84   1.108796 S    
C14   C93   1.456892 S    
C43   C83   1.419516 A    
O26   C7    1.278430 A    
C166  C170  1.413206 A    
C48   H28   1.081827 S    
C24   C39   1.473037 S    
C154  C158  1.401375 A    
O30   C11   1.272747 A    
C26   C37   1.535994 S    
C30   H10   1.110129 S    
C109  C113  1.387696 A    
C131  C143  1.410748 A    
C158  C162  1.388861 A    
Zn12  O26   1.933787 S    
C102  C110  1.392558 A    
C142  C149  1.416940 A    
C19   C180  1.474628 S    
C124  H64   1.082304 S    
C20   C179  1.474920 S    
C59   C67   1.397022 A    
C52   C64   1.381486 A    
C27   C34   1.547707 S    
C53   C57   1.382206 A    
C98   H46   1.076530 S    
H69   C162  1.082483 S    
C130  C146  1.414466 A    
C53   H33   1.081934 S    
O11   C7    1.280148 A    
H71   C164  1.082499 S    
C112  C116  1.389827 A    
C51   H31   1.082276 S    
O34   C15   1.269204 A    
H38   C113  1.082331 S    
C77   C81   1.420012 A    
H16   C59   1.083037 S    
C22   C37   1.473061 S    
C155  C183  1.507791 S    
Zn1   O44   1.941945 S    
C25   C33   1.547082 S    
C169  C173  1.404830 A    
Zn2   O43   1.941945 S    
C18   C177  1.475508 S    
C79   C83   1.420294 A    
C100  C108  1.393630 A    
C123  H63   1.082304 S    
Zn5   O48   1.941945 S    
C65   C73   1.437669 A    
Zn6   O47   1.941945 S    
Zn15  O3    1.939375 S    
C104  C112  1.393431 A    
Zn7   O46   1.945309 S    
C67   I3    2.131063 S    
C139  C148  1.413656 A    
O16   C12   1.279263 A    
C56   H36   1.082286 S    
C161  C165  1.390973 A    
Zn16  O4    1.939377 S    
Zn12  O4    1.952819 S    
C107  H55   1.082562 S    
C125  C133  1.419505 A    
C26   C28   1.547150 S    
C123  C131  1.417148 A    
Zn4   O16   1.930866 S    
C84   C91   1.419314 A    
C85   C94   1.418274 A    
C117  C125  1.392451 A    
C42   C50   1.384660 A    
C183  H89   1.110744 S    
C170  C174  1.404833 A    
C182  H86   1.110712 S    
C153  C181  1.507628 S    
C128  H68   1.082308 S    
C162  C166  1.390887 A    
Zn10  O22   1.933787 S    
C97   C105  1.392436 A    
C113  C121  1.392691 A    
O25   C8    1.278418 A    
Zn13  O29   1.935086 S    
Zn10  O2    1.952819 S    
H18   C61   1.083195 S    
C71   C79   1.443158 A    
O29   C12   1.270467 A    
C72   C80   1.440680 A    
C31   C39   1.534300 S    
C6    C149  1.454828 S    
C41   C49   1.382407 A    
C100  H48   1.077721 S    
C48   C56   1.382687 A    
C132  C144  1.410887 A    
O37   C17   1.280602 A    
C44   C84   1.418797 A    
O48   C23   1.278105 A    
C45   C85   1.418485 A    
C135  C151  1.411201 A    
C136  C140  1.411124 A    
C136  C152  1.411218 A    
C43   H23   1.081856 S    
C121  H61   1.081058 S    
C48   C88   1.420218 A    
C103  H51   1.076604 S    
C171  C175  1.404711 A    
C66   I2    2.133637 S    
C10   C89   1.453851 S    
C78   C94   1.422953 A    
Zn16  O35   1.940852 S    
C137  C146  1.416901 A    
C75   C87   1.418624 A    
C27   C37   1.534271 S    
Zn15  O33   1.935086 S    
C105  H53   1.082561 S    
C175  C180  1.414887 A    
Zn7   O10   1.938619 S    
C176  C179  1.415898 A    
O33   C16   1.271545 A    
C111  C115  1.389824 A    
O40   C20   1.282872 A    
C111  H59   1.082652 S    
C112  H60   1.082549 S    
C102  H50   1.077322 S    
C2    C145  1.455173 S    
Zn5   O17   1.933267 S    
C47   C55   1.384044 A    
C25   C27   1.547122 S    
C165  H77   1.081516 S    
H42   C117  1.082194 S    
C181  H82   1.105920 S    
C13   C94   1.457424 S    
C99   H47   1.077721 S    
C184  H91   1.104838 S    
Zn8   O3    1.947226 S    
C12   C91   1.452014 S    
C69   C77   1.439549 A    
O38   C18   1.280500 A    
C67   C75   1.439516 A    
O5    C1    1.275922 A    
C63   C71   1.397380 A    
O32   C9    1.272499 A    
C46   C86   1.419588 A    
Zn15  O51   1.946532 S    
C103  C143  1.412425 A    
Zn11  O28   1.935580 S    
H70   C161  1.082485 S    
H40   C115  1.082539 S    
C26   C34   1.547082 S    
C69   I5    2.121712 S    
C122  C130  1.419473 A    
C78   C82   1.418536 A    
C75   C91   1.422290 A    
C160  H76   1.083552 S    
C129  C141  1.411538 A    
O8    C4    1.279244 A    
C80   C84   1.419250 A    
Zn9   O1    1.952819 S    
C133  C137  1.411302 A    
C66   C74   1.441419 A    
C107  C119  1.389808 A    
C134  C150  1.414208 A    
O50   C18   1.280740 A    
C35   H3    1.110174 S    
C135  C139  1.411088 A    
C99   C107  1.393617 A    
Zn1   O1    1.953913 S    
C114  C122  1.392498 A    
Zn13  O1    1.939375 S    
Zn2   O14   1.933266 S    
C144  C151  1.413416 A    
C61   C69   1.397359 A    
C165  C169  1.413277 A    
C51   C63   1.380271 A    
O9    C5    1.275682 A    
O39   C19   1.283050 A    
O36   C13   1.271731 A    
C74   C90   1.423780 A    
C43   C51   1.383298 A    
C164  C168  1.390859 A    
O13   C9    1.280953 A    
H15   C60   1.083093 S    
C4    C147  1.452094 S    
Zn2   O7    1.933451 S    
C158  H74   1.083539 S    
C157  C161  1.388927 A    
H13   C58   1.083106 S    
C72   I8    2.139140 S    
Zn3   O6    1.938619 S    
O18   C14   1.281112 A    
O31   C10   1.269952 A    
C98   C138  1.416836 A    
C153  C173  1.429306 A    
C168  C172  1.413714 A    
C25   H5    1.110127 S    
C156  C176  1.429887 A    
C102  C142  1.417340 A    
C32   H12   1.110192 S    
C125  H65   1.081052 S    
Zn14  O30   1.935083 S    
C97   H45   1.076677 S    
Zn11  O3    1.952819 S    
O41   C21   1.277019 A    
Zn16  O34   1.935083 S    
C31   H11   1.110228 S    
H43   C120  1.082528 S    
O52   C20   1.277871 A    
C108  H56   1.082692 S    
H72   C163  1.082501 S    
C127  C135  1.416990 A    
Zn8   O20   1.930866 S    
C106  C118  1.387494 A    
C101  C109  1.392536 A    
C122  H62   1.081020 S    
C171  C179  1.416753 A    
C172  C180  1.415993 A    
C100  C140  1.413236 A    
C138  C145  1.416855 A    
C76   C92   1.423886 A    
C174  C177  1.417193 A    
C50   H30   1.081904 S    
C31   C36   1.547732 S    
C133  C149  1.414244 A    
C104  C144  1.412700 A    
C28   C33   1.547735 S    
Zn8   O9    1.938621 S    
C167  H79   1.080731 S    
H39   C116  1.082533 S    
C183  H88   1.105341 S    
C182  H85   1.105621 S    
H37   C114  1.082359 S    
C82   C89   1.416556 A    
O7    C3    1.279320 A    
O19   C15   1.279052 A    
O44   C21   1.278055 A    
C26   H6    1.110128 S    
C32   C35   1.547705 S    
Zn6   O18   1.933266 S    
C103  C111  1.393434 A    
Zn10  O23   1.935577 S    
C168  H80   1.080841 S    
C46   C54   1.383251 A    
C73   C85   1.419416 A    
C126  C134  1.419468 A    
C131  C147  1.411059 A    
Zn15  O36   1.940852 S    
O15   C11   1.277257 A    
O42   C22   1.276978 A    
C47   H27   1.081745 S    
Zn4   O1    1.947226 S    
C30   C32   1.547120 S    
Zn9   O37   1.939877 S    
O12   C8    1.280040 A    
C36   H4    1.110170 S    
Zn11  O39   1.939877 S    
C70   C78   1.436091 A    
C41   C81   1.420541 A    
C7    C152  1.452614 S    
C62   C70   1.396927 A    
C155  C159  1.400907 A    
Zn5   O3    1.953913 S    
C44   C52   1.384665 A    
Zn6   O4    1.953915 S    
C45   C53   1.385355 A    
C157  H73   1.083531 S    
C33   C37   1.534349 S    
C166  H78   1.081554 S    
C68   I4    2.130639 S    
C124  C132  1.417056 A    
C42   C82   1.419280 A    
C15   C96   1.449092 S    
C76   C88   1.419545 A    
C167  C171  1.413875 A    
Zn9   O24   1.935580 S    
C153  C157  1.401337 A    
O28   C5    1.278965 A    
C132  C148  1.411235 A    
H17   C62   1.083033 S    
H44   C119  1.082521 S    
Zn3   O42   1.945309 S    
C156  C160  1.401008 A    
C143  C152  1.413500 A    
Zn7   O4    1.947225 S    
O21   C4    1.279122 A    
C128  C136  1.416986 A    
C11   C92   1.451453 S    
C60   C68   1.397366 A    
C159  C163  1.388562 A    
C160  C164  1.388474 A    
C140  C147  1.413682 A    
C97   C137  1.416960 A    
C87   C96   1.417963 A    
C36   C40   1.534350 S    
C141  C150  1.416779 A    
C88   C95   1.418599 A    
C64   C72   1.397006 A    
Zn2   O2    1.953915 S    
C181  H81   1.110698 S    
Zn14  O2    1.939377 S    
C65   I1    2.133619 S    
C56   C60   1.379520 A    
C30   C39   1.535964 S    
Zn13  O49   1.946532 S    
C184  H90   1.110764 S    
C50   C62   1.381288 A    
C55   C59   1.380753 A    
C28   H8    1.110227 S    
C129  C145  1.414542 A    
C71   I7    2.139410 S    
C28   C38   1.534297 S    
Zn12  O27   1.935577 S    
C110  C114  1.387520 A    
Zn3   O2    1.947225 S    
C119  C127  1.393726 A    
H14   C57   1.082944 S    
C105  C117  1.387357 A    
C17   C178  1.475327 S    
C154  C174  1.429469 A    
C169  C177  1.414492 A    
C79   C95   1.422590 A    
C80   C96   1.420874 A    
C58   C66   1.397391 A    
O47   C24   1.278053 A    
C34   H2    1.110178 S    
Zn16  O52   1.946534 S    
C110  H58   1.082612 S    
C34   C38   1.534351 S    
Zn8   O45   1.945309 S    
C57   C65   1.396999 A    
O27   C6    1.279157 A    
C106  H54   1.082932 S    
C54   H34   1.082233 S    
C49   C61   1.379104 A    
H41   C118  1.082168 S    
C86   C93   1.419276 A    
Zn1   O13   1.933267 S    
C29   C31   1.547147 S    
C33   H1    1.110175 S    
C49   H29   1.082201 S    
O24   C1    1.278927 A    
C108  C120  1.389879 A    
C163  C167  1.391015 A    
C170  C178  1.414133 A    
C3    C148  1.452316 S    
C172  C176  1.404709 A    
O46   C24   1.277020 A    
O43   C22   1.278105 A    
C47   C87   1.419423 A    
C156  C184  1.507556 S    
Zn4   O41   1.945309 S    
Zn3   O15   1.930865 S    
H19   C64   1.082978 S    
Zn5   O12   1.933454 S    
H20   C63   1.083031 S    
Zn6   O11   1.933451 S    
C155  C175  1.429559 A    
Zn9   O21   1.933786 S    
Zn14  O50   1.946534 S    
C29   C35   1.547084 S    
C52   H32   1.081820 S    
O35   C14   1.274211 A    
Zn12  O40   1.939875 S    
Zn1   O8    1.933454 S    
C32   C40   1.534273 S    
C121  C129  1.419386 A    
C8    C151  1.452367 S    
C130  C142  1.411501 A    
C181  H83   1.108760 S    
C83   C92   1.419968 A    
C118  C126  1.392623 A    
C25   C38   1.535965 S    
C29   H9    1.110129 S    
C81   C90   1.417395 A    
C5    C150  1.454698 S    
C134  C138  1.411261 A    
C184  H92   1.108612 S    
C127  H67   1.082304 S    
O22   C3    1.279161 A    
Zn7   O19   1.930865 S    
C16   C95   1.448250 S    
C35   C39   1.534352 S    
C126  H66   1.081098 S    
Zn13  O32   1.940852 S    
C42   H22   1.081656 S    
O49   C17   1.280604 A    
Zn14  O31   1.940852 S    
C74   C86   1.421014 A    
C154  C182  1.507463 S    
C115  C123  1.393794 A    
O51   C19   1.277512 A    
C9    C90   1.452583 S    
C98   C106  1.392405 A    
C77   C93   1.425570 A    
C46   H26   1.081850 S    
C29   C40   1.535994 S    
C27   H7    1.110188 S    
Zn4   O5    1.938621 S    
O17   C13   1.282926 A    
O20   C16   1.276959 A    
C30   C36   1.547084 S    
O10   C6    1.275578 A    
O23   C2    1.278871 A    
O6    C2    1.276027 A    
Zn11  O25   1.933786 S    
Zn10  O38   1.939875 S    
C116  C124  1.393821 A    
O14   C10   1.282964 A    
C21   C38   1.473034 S    
C68   C76   1.441774 A    
C159  H75   1.083541 S    
C101  H49   1.077450 S    
C120  C128  1.393757 A    
C23   C40   1.473056 S    
C99   C139  1.413221 A    
C109  H57   1.082933 S    
C73   C89   1.421260 A    
C104  H52   1.077082 S    
O45   C23   1.276979 A    
C1    C146  1.455051 S    
