data_mof_unit_45373.cif
_audit_creation_date              2012-12-11T15:53:31-0500
_audit_creation_method            fapswitch 2.2
_symmetry_space_group_name_H-M    P1
_symmetry_Int_Tables_number       1
_space_group_crystal_system       triclinic
_cell_length_a                    6.934591
_cell_length_b                    14.816932
_cell_length_c                    15.775551
_cell_angle_alpha                 90.576872
_cell_angle_beta                  90.139243
_cell_angle_gamma                 90.839627
_cell_volume                      1620.66624476

loop_
_atom_site_label
_atom_site_type_symbol
_atom_type_description
_atom_site_fract_x
_atom_site_fract_y
_atom_site_fract_z
_atom_type_partial_charge
O1    O     O_R   0.361600 0.167310 0.164620 -0.549079
O2    O     O_R   0.638400 0.832690 0.835380 -0.547789
O3    O     O_R   0.691080 0.157570 0.338750 -0.515570
O4    O     O_R   0.308920 0.842430 0.661250 -0.542964
O5    O     O_R   0.861410 0.336420 0.339360 -0.547496
O6    O     O_R   0.138590 0.663580 0.660640 -0.557397
C1    C     C_R   0.519945 0.136621 0.368785 0.811416
C2    C     C_R   0.479055 0.862358 0.630761 0.812296
O7    O     O_R   0.691320 0.156280 0.165240 -0.551003
O8    O     O_R   0.308680 0.843720 0.834760 -0.548775
O9    O     O_R   0.861640 0.335130 0.164600 -0.552279
O10   O     O_R   0.138360 0.664870 0.835400 -0.547381
C3    C     C_R   0.521530 0.133840 0.136116 0.656932
C4    C     C_R   0.478462 0.866121 0.863917 0.664964
O11   O     O_R   0.361370 0.168600 0.339370 -0.487134
O12   O     O_R   0.638630 0.831400 0.660630 -0.489437
O13   O     O_3   0.527990 0.310540 0.251980 -0.390819
O14   O     O_3   0.472010 0.689460 0.748020 -0.384533
V1    V     V_3+5 0.802830 0.240980 0.251990 1.510280
V2    V     V_3+5 0.197170 0.759020 0.748010 1.459025
O15   O     O_R   0.191360 0.346160 0.165220 -0.554996
O16   O     O_R   0.808640 0.653840 0.834780 -0.556584
C5    C     C_R   0.022630 0.368420 0.136125 0.641471
C6    C     C_R   0.977380 0.631593 0.863879 0.654178
O17   O     O_R   0.191130 0.347440 0.338740 -0.519358
O18   O     O_R   0.808870 0.652560 0.661260 -0.514315
C7    C     C_R   0.024581 0.367921 0.368973 0.774130
C8    C     C_R   0.975723 0.631509 0.631220 0.769821
V3    V     V_3+5 0.302840 0.262750 0.251990 1.518762
V4    V     V_3+5 0.697160 0.737250 0.748010 1.509903
O19   O     O_3   0.027820 0.193180 0.251990 -0.337911
O20   O     O_3   0.972180 0.806820 0.748010 -0.352406
C9    C     C_3   0.846768 0.442552 0.500341 -0.285775
C10   C     C_3   0.156893 0.554087 0.501640 -0.231310
C11   C     C_3   0.985153 0.458006 0.577371 -0.338662
C12   C     C_3   0.019292 0.539098 0.424754 -0.288363
H1    H     H_    0.965728 0.426097 0.640151 0.128665
H2    H     H_    0.032281 0.573364 0.362770 0.141790
H3    H     H_    0.719264 0.396595 0.498342 0.174751
H4    H     H_    0.284625 0.599772 0.505457 0.167107
C13   C     C_3   0.981117 0.561059 0.561537 -0.120810
C14   C     C_3   0.021070 0.436486 0.439875 -0.152147
C15   C     C_3   0.845481 0.544720 0.484928 0.584930
C16   C     C_3   0.158234 0.451470 0.516109 0.533275
C17   C     C_R   0.820393 0.525014 0.968018 -0.156938
C18   C     C_R   0.179662 0.475108 0.032069 -0.155103
H5    H     H_    0.679483 0.543212 0.944576 0.112755
H6    H     H_    0.320557 0.457004 0.055608 0.115582
C19   C     C_R   0.831824 0.462282 0.033809 -0.149765
C20   C     C_R   0.168240 0.537780 0.966218 -0.148570
H7    H     H_    0.698967 0.434029 0.058727 0.115301
H8    H     H_    0.301098 0.566004 0.941266 0.118111
C21   C     C_R   0.011634 0.436302 0.066826 -0.036493
C22   C     C_R   0.988414 0.563754 0.933205 -0.038382
C23   C     C_R   0.644947 0.000615 0.439606 -0.177031
C24   C     C_R   0.349494 0.995453 0.558430 -0.249645
H9    H     H_    0.756079 0.999758 0.391674 0.216330
H10   H     H_    0.235689 0.994074 0.605211 0.217193
C25   C     C_R   0.638788 0.931395 0.499378 0.499621
C26   C     C_R   0.346621 0.060496 0.494868 0.485060
C27   C     C_R   0.492438 0.930386 0.562121 -0.269296
C28   C     C_R   0.502976 0.066755 0.436318 -0.262920
C29   C     C_R   0.678788 0.026161 0.033833 -0.146061
C30   C     C_R   0.321189 0.973716 0.966276 -0.148679
H11   H     H_    0.819262 0.045315 0.058787 0.118677
H12   H     H_    0.180714 0.954557 0.941327 0.118687
C31   C     C_R   0.668685 0.962076 0.968054 -0.147881
C32   C     C_R   0.331292 0.037802 0.032055 -0.147163
H13   H     H_    0.801498 0.933705 0.944545 0.118227
H14   H     H_    0.198478 0.066168 0.055569 0.117741
C33   C     C_R   0.489754 0.934966 0.933311 -0.039670
C34   C     C_R   0.510228 0.064937 0.066774 -0.036936
O21   O     O_3   0.674807 0.590711 0.465269 -0.539462
C35   C     C_3   0.593452 0.556798 0.388389 0.089264
H15   H     H_    0.480668 0.505660 0.403326 0.159269
H16   H     H_    0.698540 0.523416 0.345441 0.095765
C36   C     C_3   0.503431 0.634025 0.339231 -0.243084
H17   H     H_    0.389860 0.666473 0.377969 0.210062
H18   H     H_    0.616432 0.685760 0.325448 0.243755
C37   C     C_3   0.415288 0.600205 0.255701 -0.854773
H19   H     H_    0.529218 0.572884 0.213651 0.228880
H20   H     H_    0.344567 0.656905 0.222961 0.245282
H21   H     H_    0.305752 0.546350 0.267375 0.224868
O22   O     O_3   0.334308 0.405271 0.524352 -0.569956
C38   C     C_3   0.377458 0.385884 0.609877 0.078970
H22   H     H_    0.494671 0.335575 0.609287 0.168088
H23   H     H_    0.254511 0.352571 0.642806 0.122075
C39   C     C_3   0.449266 0.469943 0.658773 -0.327058
H24   H     H_    0.561274 0.505730 0.621336 0.229841
H25   H     H_    0.327930 0.516384 0.669377 0.198508
C40   C     C_3   0.533138 0.445166 0.744822 -0.824665
H26   H     H_    0.422090 0.410388 0.783820 0.226501
H27   H     H_    0.581639 0.507364 0.778871 0.242162
H28   H     H_    0.659029 0.400462 0.736591 0.224296
S1    S     S_3+6 0.802332 0.842530 0.485944 -0.009073
O23   O     O_2   0.701441 0.755653 0.506450 -0.342362
O24   O     O_2   0.873618 0.838521 0.396044 -0.358633
O25   O     O_3   0.990451 0.857838 0.551574 -0.487627
H29   H     H_    0.083872 0.811606 0.533386 0.347988
S2    S     S_3+6 0.136591 0.126180 0.489665 -0.014581
O26   O     O_2   0.036897 0.107093 0.406973 -0.322615
O27   O     O_2   0.000098 0.103646 0.560646 -0.363198
O28   O     O_3   0.196974 0.235553 0.495960 -0.513026
H30   H     H_    0.082264 0.264226 0.521213 0.342383

loop_
_geom_bond_atom_site_label_1
_geom_bond_atom_site_label_2
_ccdc_geom_bond_type
C15   O21   S    
C29   H11   S    
C23   C25   A    
O13   V3    S    
C4    C33   S    
C12   C14   S    
S1    O23   D    
O4    C2    A    
V1    O19   S    
S1    O25   S    
C36   H17   S    
O9    V1    S    
C20   C22   A    
C35   H16   S    
C10   H4    S    
C9    C14   S    
C30   C32   A    
C11   H1    S    
O3    C1    A    
C36   C37   S    
C6    C22   S    
C23   C28   A    
C8    C13   S    
C26   C28   A    
O21   C35   S    
C30   C33   A    
O7    C3    A    
C9    C11   S    
O5    C7    A    
O7    V1    S    
O6    C8    A    
O8    V2    S    
C19   H7    S    
C35   C36   S    
C20   H8    S    
O3    V1    S    
O14   V4    S    
O14   V2    S    
C2    C27   S    
C38   H23   S    
C2    O12   A    
C13   C15   S    
C10   C13   S    
C14   C16   S    
C37   H21   S    
O2    C4    A    
O1    V3    S    
O11   V3    S    
C18   H6    S    
C17   H5    S    
O17   V3    S    
C29   C31   A    
C25   C27   A    
C35   H15   S    
C9    C15   S    
C10   C16   S    
O22   C38   S    
C37   H20   S    
O8    C4    A    
C40   H26   S    
C1    O11   A    
C26   S2    S    
C38   H22   S    
O15   V3    S    
S2    O28   S    
C24   C26   A    
C31   H13   S    
C30   H12   S    
C1    C28   S    
C40   H27   S    
C39   C40   S    
C17   C19   A    
C32   C34   A    
O10   V2    S    
S2    O27   D    
C36   H18   S    
C9    H3    S    
C29   C34   A    
C11   C16   S    
C25   S1    S    
C5    C21   S    
C39   H25   S    
C17   C22   A    
O18   V4    S    
C23   H9    S    
O16   C6    A    
O1    C3    A    
C12   H2    S    
V2    O20   S    
C38   C39   S    
C18   C20   A    
O16   V4    S    
C37   H19   S    
C16   O22   S    
S1    O24   D    
O5    V1    S    
C3    C34   S    
O17   C7    A    
O6    V2    S    
O10   C6    A    
O18   C8    A    
O2    V4    S    
O15   C5    A    
V3    O19   S    
C40   H28   S    
V4    O20   S    
C7    C14   S    
C19   C21   A    
C18   C21   A    
O9    C5    A    
S2    O26   D    
O13   V1    S    
C10   C12   S    
C24   H10   S    
C31   C33   A    
C11   C13   S    
O4    V2    S    
C39   H24   S    
C32   H14   S    
O25   H29   S    
O28   H30   S    
C24   C27   A    
C12   C15   S    
O12   V4    S    
