data_mof_unit_47184.cif
_audit_creation_date              2012-12-10T17:56:43-0500
_audit_creation_method            fapswitch 2.2
_symmetry_space_group_name_H-M    P1
_symmetry_Int_Tables_number       1
_space_group_crystal_system       triclinic
_cell_length_a                    10.786599
_cell_length_b                    9.521607
_cell_length_c                    10.830868
_cell_angle_alpha                 90.272462
_cell_angle_beta                  90.695112
_cell_angle_gamma                 90.260766
_cell_volume                      1112.28623677

loop_
_atom_site_label
_atom_site_type_symbol
_atom_type_description
_atom_site_fract_x
_atom_site_fract_y
_atom_site_fract_z
_atom_type_partial_charge
C1    C     C_R   0.262694 0.499719 0.499221 0.898586
C2    C     C_R   0.737634 0.499775 0.500066 0.862571
C3    C     C_R   0.934107 0.480350 0.386511 -0.106085
C4    C     C_R   0.063805 0.483399 0.386019 -0.113607
C5    C     C_R   0.415126 0.073608 0.431050 -0.002696
C6    C     C_R   0.585354 0.075285 0.568272 0.006226
C7    C     C_R   0.415009 0.924786 0.431200 0.004077
C8    C     C_R   0.585763 0.926600 0.567672 -0.008059
C9    C     C_R   0.507116 0.500162 0.262682 0.791553
C10   C     C_R   0.507449 0.500888 0.737679 0.867832
C11   C     C_R   0.666561 0.703372 0.132727 -0.203736
C12   C     C_R   0.661390 0.709872 0.876447 -0.152048
C13   C     C_R   0.733936 0.806312 0.071051 -0.017236
C14   C     C_R   0.730909 0.809965 0.942006 -0.004644
C15   C     C_R   0.589011 0.607373 0.937169 0.103379
C16   C     C_R   0.590448 0.605348 0.067766 0.096354
C17   C     C_R   0.519921 0.501128 0.129314 -0.074181
C18   C     C_R   0.519026 0.503101 0.871817 -0.074655
C19   C     C_R   0.457984 0.395966 0.062609 -0.154600
C20   C     C_R   0.457464 0.397001 0.935512 -0.136639
C21   C     C_R   0.066974 0.508928 0.610973 0.345287
C22   C     C_R   0.937792 0.506470 0.611323 0.321639
C23   C     C_R   0.871765 0.498004 0.498935 -0.211466
C24   C     C_R   0.129088 0.499038 0.498382 -0.227823
Cu1   Cu    Cu3+1 0.500000 0.640660 0.500000 0.974386
Cu2   Cu    Cu3+1 0.500000 0.359340 0.500000 0.992461
H1    H     H_    0.405958 0.314661 0.109151 0.168419
H2    H     H_    0.405003 0.316394 0.886572 0.181604
H3    H     H_    0.679340 0.698556 0.231594 0.164703
H4    H     H_    0.670270 0.710518 0.777733 0.170912
H5    H     H_    0.347265 0.129014 0.375632 0.129751
H6    H     H_    0.653714 0.131914 0.623133 0.151618
H7    H     H_    0.347036 0.868118 0.375909 0.134773
H8    H     H_    0.655367 0.871757 0.620829 0.122145
N1    N     N_R   0.500000 0.852070 0.500000 -0.171119
N2    N     N_R   0.500000 0.147940 0.500000 -0.172045
O1    O     O_R   0.319640 0.618740 0.499990 -0.566341
O2    O     O_R   0.680360 0.618740 0.500010 -0.598991
O3    O     O_R   0.319620 0.381170 0.499990 -0.575923
O4    O     O_R   0.680380 0.381170 0.500010 -0.570353
O5    O     O_R   0.500000 0.618810 0.319650 -0.600948
O6    O     O_R   0.500000 0.618810 0.680350 -0.584452
O7    O     O_R   0.499970 0.381240 0.319640 -0.584631
O8    O     O_R   0.500030 0.381240 0.680360 -0.574259
C25   C     C_1   0.808092 0.905023 0.142275 0.263560
N3    N     N_1   0.867368 0.984060 0.199389 -0.247615
C26   C     C_1   0.801681 0.912784 0.874476 0.263369
N4    N     N_1   0.858227 0.995087 0.820284 -0.229092
Cl1   Cl    Cl    0.151298 0.521656 0.751948 -0.536603
Cl2   Cl    Cl    0.859597 0.502507 0.753299 -0.584314
C27   C     C_1   0.866027 0.450341 0.273110 0.277717
N5    N     N_1   0.813011 0.424299 0.182333 -0.238038
C28   C     C_1   0.129855 0.470550 0.270574 0.277371
N6    N     N_1   0.182140 0.460555 0.178330 -0.248092

loop_
_geom_bond_atom_site_label_1
_geom_bond_atom_site_label_2
_ccdc_geom_bond_type
Cu1   O6    S    
C5    H5    S    
C15   C18   A    
C6    H6    S    
C14   C26   S    
C2    O4    A    
C4    C28   S    
C10   O6    A    
C19   H1    S    
C11   C16   A    
C2    O2    A    
C9    O5    A    
C19   C20   A    
C12   C15   A    
C1    O1    A    
C22   Cl2   S    
Cu1   O1    S    
C21   Cl1   S    
C12   C14   A    
Cu2   O8    S    
C27   N5    T    
C8    H8    S    
C28   N6    T    
C13   C25   S    
C7    H7    S    
Cu2   O4    S    
C7    N1    A    
Cu1   N1    S    
C4    C24   A    
C9    C17   S    
C17   C19   A    
C10   C18   S    
Cu2   O7    S    
C18   C20   A    
Cu1   O2    S    
Cu2   O3    S    
C9    O7    A    
C1    O3    A    
C10   O8    A    
C15   C16   A    
C5    N2    A    
C25   N3    T    
C11   C13   A    
C11   H3    S    
C1    C24   S    
Cu1   O5    S    
C21   C24   A    
Cu2   N2    S    
C2    C23   S    
C5    C7    A    
C3    C27   S    
C22   C23   A    
C6    C8    A    
C20   H2    S    
C13   C14   A    
C12   H4    S    
Cu1   Cu2   S    
C21   C22   A    
C3    C23   A    
C3    C4    A    
C6    N2    A    
C16   C17   A    
C26   N4    T    
C8    N1    A    
