data_mof_unit_43900.cif
_audit_creation_date              2012-12-10T20:37:34-0500
_audit_creation_method            fapswitch 2.2
_symmetry_space_group_name_H-M    P1
_symmetry_Int_Tables_number       1
_space_group_crystal_system       triclinic
_cell_length_a                    15.710027
_cell_length_b                    10.680303
_cell_length_c                    9.901573
_cell_angle_alpha                 89.598409
_cell_angle_beta                  91.079367
_cell_angle_gamma                 90.4583
_cell_volume                      1660.976619

loop_
_atom_site_label
_atom_site_type_symbol
_atom_type_description
_atom_site_fract_x
_atom_site_fract_y
_atom_site_fract_z
_atom_type_partial_charge
C1    C     C_R   0.502984 0.259884 0.500328 0.871110
C2    C     C_R   0.518209 0.128521 0.500071 -0.104029
C3    C     C_R   0.527281 0.065726 0.377043 -0.228540
C4    C     C_R   0.337983 0.500004 0.498847 0.911056
C5    C     C_R   0.527984 0.936269 0.376525 -0.228779
C6    C     C_R   0.519673 0.871097 0.499048 -0.102958
C7    C     C_R   0.528679 0.934773 0.620717 0.123073
C8    C     C_3   0.478249 0.924238 0.746696 -0.469897
C9    C     C_3   0.476447 0.065881 0.746722 -0.512910
C10   C     C_R   0.428438 0.467663 0.069087 0.151982
C11   C     C_R   0.566279 0.548731 0.075180 -0.141905
C12   C     C_3   0.082775 0.501336 0.496900 0.186337
C13   C     C_R   0.566506 0.550889 0.931557 0.194640
C14   C     C_R   0.428051 0.468737 0.927207 0.175637
C15   C     C_3   0.378436 0.349562 0.920337 0.272576
C16   C     C_R   0.503703 0.739895 0.499613 0.868924
C17   C     C_3   0.380433 0.347108 0.074567 -0.573622
C18   C     C_R   0.662036 0.500083 0.501142 0.901179
C19   C     C_3   0.973614 0.417863 0.593723 -0.178657
C20   C     C_3   0.026608 0.386920 0.469217 0.251833
C21   C     C_1   0.249027 0.500876 0.496346 -0.160740
C22   C     C_1   0.751033 0.499988 0.503459 -0.194282
C23   C     C_3   0.972767 0.615910 0.529981 -0.155116
C24   C     C_3   0.031017 0.533895 0.621541 -0.211081
C25   C     C_3   0.058572 0.257351 0.434190 -0.961116
C26   C     C_3   0.641639 0.611566 0.865803 -0.824365
C27   C     C_3   0.254504 0.256338 0.841346 0.121449
C28   C     C_3   0.159967 0.279140 0.818013 -0.840718
C29   C     C_3   0.917263 0.499991 0.501888 0.170537
C30   C     C_3   0.026129 0.583203 0.405296 -0.203442
C31   C     C_3   0.968678 0.467329 0.376939 -0.167805
C32   C     C_1   0.173694 0.501537 0.495560 -0.070066
C33   C     C_1   0.826391 0.499922 0.503694 -0.074043
C34   C     C_R   0.527721 0.062710 0.621302 0.147674
H1    H     H_    0.516136 0.883974 0.832219 0.205054
H2    H     H_    0.049592 0.650792 0.328593 0.142560
H3    H     H_    0.948376 0.710013 0.555183 0.137736
H4    H     H_    0.058533 0.561379 0.721197 0.152588
H5    H     H_    0.527122 0.115137 0.281112 0.169792
H6    H     H_    0.528049 0.888427 0.280407 0.173085
H7    H     H_    0.414421 0.880712 0.729612 0.209407
H8    H     H_    0.003617 0.192684 0.419292 0.245522
H9    H     H_    0.095537 0.262501 0.339867 0.247613
H10   H     H_    0.100042 0.221389 0.517445 0.245747
H11   H     H_    0.620816 0.673154 0.781394 0.267041
H12   H     H_    0.411597 0.103429 0.727802 0.187608
H13   H     H_    0.677539 0.672324 0.937922 0.189586
H14   H     H_    0.686350 0.538728 0.832456 0.250079
H15   H     H_    0.261790 0.189717 0.927983 0.132305
H16   H     H_    0.280357 0.213577 0.748796 0.131613
H17   H     H_    0.150394 0.344147 0.731448 0.266554
H18   H     H_    0.126792 0.189302 0.795410 0.202385
H19   H     H_    0.132128 0.320723 0.909539 0.253180
H20   H     H_    0.512662 0.107418 0.833145 0.199724
H21   H     H_    0.620006 0.585601 0.132644 0.160303
H22   H     H_    0.414602 0.274208 0.871367 0.071271
H23   H     H_    0.316905 0.358252 0.120462 0.226809
H24   H     H_    0.419261 0.269468 0.117813 0.173741
H25   H     H_    0.950455 0.349798 0.670203 0.139328
H26   H     H_    0.941294 0.439271 0.277378 0.135566
N1    N     N_R   0.499430 0.499140 0.142800 -0.121674
N2    N     N_R   0.499430 0.499180 0.857150 -0.144687
O1    O     O_R   0.500010 0.316790 0.614690 -0.622096
O2    O     O_R   0.500000 0.316760 0.385350 -0.620034
O3    O     O_R   0.376780 0.500010 0.614650 -0.579809
O4    O     O_R   0.376770 0.499970 0.385310 -0.611663
O5    O     O_R   0.500000 0.683240 0.614650 -0.626664
O6    O     O_R   0.499990 0.683210 0.385310 -0.620756
O7    O     O_R   0.623230 0.500030 0.614690 -0.621355
O8    O     O_R   0.623220 0.499990 0.385350 -0.620331
O9    O     O_3   0.295925 0.371717 0.866815 -0.568460
Zn1   Zn    Zn3+2 0.500010 0.500020 0.653130 0.951682
Zn2   Zn    Zn3+2 0.499990 0.499980 0.346870 0.945711

loop_
_geom_bond_atom_site_label_1
_geom_bond_atom_site_label_2
_ccdc_geom_bond_type
C18   O8    A    
C28   H18   S    
C19   C20   S    
C25   H9    S    
C27   O9    S    
C7    C8    S    
C23   C29   S    
C1    C2    S    
C4    O3    A    
C28   H17   S    
C20   C25   S    
C10   C17   S    
C14   N2    A    
C29   C33   S    
O5    Zn1   S    
C26   H11   S    
C13   N2    A    
C8    C9    S    
C24   H4    S    
O2    Zn2   S    
C16   O6    A    
C27   H16   S    
C26   H14   S    
C17   H24   S    
C2    C34   A    
C18   O7    A    
C3    H5    S    
C9    H12   S    
C12   C32   S    
C1    O1    A    
C25   H10   S    
C21   C32   T    
C23   C30   S    
C8    H7    S    
C10   C14   A    
N1    Zn2   S    
O6    Zn2   S    
C23   H3    S    
O4    Zn2   S    
C8    H1    S    
C31   H26   S    
O7    Zn1   S    
C30   C31   S    
C23   C24   S    
C12   C20   S    
O8    Zn2   S    
N2    Zn1   S    
C16   O5    A    
C26   H13   S    
C9    C34   S    
C7    C34   A    
C13   C26   S    
C10   N1    A    
C19   C29   S    
C1    O2    A    
C3    C5    A    
C11   H21   S    
C15   C17   S    
C22   C33   T    
C12   C30   S    
C18   C22   S    
C11   N1    A    
C25   H8    S    
C28   H19   S    
C6    C7    A    
O3    Zn1   S    
C15   O9    S    
C12   C24   S    
C30   H2    S    
C19   H25   S    
C15   H22   S    
C2    C3    A    
C29   C31   S    
C4    O4    A    
C4    C21   S    
C11   C13   A    
C5    C6    A    
C19   C24   S    
C6    C16   S    
O1    Zn1   S    
C5    H6    S    
C27   C28   S    
C14   C15   S    
C9    H20   S    
C27   H15   S    
C17   H23   S    
C20   C31   S    
