data_mof_unit_27670.cif
_audit_creation_date              2012-12-10T18:55:55-0500
_audit_creation_method            fapswitch 2.2
_symmetry_space_group_name_H-M    P1
_symmetry_Int_Tables_number       1
_space_group_crystal_system       triclinic
_cell_length_a                    10.809611
_cell_length_b                    9.80579
_cell_length_c                    15.052039
_cell_angle_alpha                 90.038011
_cell_angle_beta                  90.373829
_cell_angle_gamma                 89.488823
_cell_volume                      1595.36985099

loop_
_atom_site_label
_atom_site_type_symbol
_atom_type_description
_atom_site_fract_x
_atom_site_fract_y
_atom_site_fract_z
_atom_type_partial_charge
C1    C     C_R   0.259510 0.501225 0.495824 0.855334
C2    C     C_R   0.740331 0.499412 0.498314 0.856586
C3    C     C_R   0.496998 0.499991 0.327347 0.902863
C4    C     C_R   0.498985 0.500111 0.672159 0.957973
C5    C     C_R   0.561288 0.071364 0.564673 0.448834
C6    C     C_R   0.437939 0.928486 0.435652 0.462014
C7    C     C_R   0.439247 0.072275 0.435222 0.469159
C8    C     C_R   0.562510 0.927369 0.564228 0.458944
C9    C     C_R   0.063526 0.379987 0.475339 0.038850
C10   C     C_R   0.933243 0.619454 0.462231 0.074059
C11   C     C_R   0.942460 0.378387 0.503718 0.033285
C12   C     C_R   0.057652 0.628983 0.485527 0.053805
C13   C     C_R   0.478025 0.623152 0.092348 -0.268417
C14   C     C_R   0.541056 0.397167 0.907981 -0.258019
C15   C     C_R   0.409554 0.599307 0.901658 -0.248320
C16   C     C_R   0.459775 0.376829 0.093555 -0.273268
C17   C     C_R   0.485753 0.624061 0.183943 0.593001
C18   C     C_R   0.549755 0.397168 0.816645 0.575539
C19   C     C_R   0.421018 0.601989 0.810299 0.576935
C20   C     C_R   0.471818 0.376220 0.184804 0.583017
C21   C     C_R   0.485865 0.500035 0.231030 -0.364755
C22   C     C_R   0.490809 0.500378 0.767567 -0.322879
C23   C     C_R   0.466337 0.499582 0.046946 -0.006082
C24   C     C_R   0.470478 0.497652 0.950752 -0.002095
C25   C     C_R   0.872445 0.498876 0.488988 -0.128393
C26   C     C_R   0.126702 0.504400 0.485669 -0.138310
H1    H     H_    0.484674 0.718925 0.056957 0.190025
H2    H     H_    0.591455 0.319992 0.945248 0.183393
H3    H     H_    0.353413 0.676549 0.933951 0.181308
H4    H     H_    0.448150 0.280694 0.059107 0.189881
N1    N     N_R   0.500000 0.857200 0.500000 -0.253466
N2    N     N_R   0.500000 0.142800 0.500000 -0.251357
O1    O     O_R   0.316770 0.614620 0.499990 -0.605522
O2    O     O_R   0.683230 0.385380 0.500010 -0.616453
O3    O     O_R   0.683230 0.614620 0.500010 -0.602317
O4    O     O_R   0.316770 0.385380 0.499990 -0.621109
O5    O     O_R   0.499990 0.614660 0.369060 -0.521389
O6    O     O_R   0.500010 0.385340 0.630940 -0.539094
O7    O     O_R   0.500010 0.614660 0.630940 -0.521935
O8    O     O_R   0.499990 0.385340 0.369060 -0.525938
Zn1   Zn    Zn3+2 0.500000 0.653120 0.500000 1.070684
Zn2   Zn    Zn3+2 0.500000 0.346880 0.500000 1.054968
F1    F     F_    0.621228 0.138953 0.629882 -0.573306
F2    F     F_    0.374233 0.861113 0.371777 -0.571151
F3    F     F_    0.380334 0.140561 0.369635 -0.579790
F4    F     F_    0.626231 0.858632 0.628062 -0.588650
F5    F     F_    0.495231 0.746387 0.225447 -0.596787
F6    F     F_    0.618320 0.298568 0.776832 -0.618199
F7    F     F_    0.361830 0.701772 0.763829 -0.664170
F8    F     F_    0.471178 0.253933 0.226693 -0.581365
C27   C     C_3   0.110074 0.260139 0.420019 -0.384663
C28   C     C_3   0.143894 0.306872 0.325601 -0.284937
C29   C     C_3   0.137744 0.189972 0.258518 -0.703713
H5    H     H_    0.192630 0.100554 0.281555 0.326088
H6    H     H_    0.040233 0.158095 0.248750 0.217169
H7    H     H_    0.174605 0.224473 0.193690 0.249701
H8    H     H_    0.078580 0.388113 0.302762 0.192323
H9    H     H_    0.238379 0.350354 0.325905 0.264125
H10   H     H_    0.187911 0.206015 0.453064 0.244739
H11   H     H_    0.035733 0.182952 0.413409 0.184647
C30   C     C_3   0.874875 0.728197 0.401946 -0.402518
C31   C     C_3   0.826178 0.666021 0.314970 -0.368032
C32   C     C_3   0.783120 0.776972 0.250482 -0.738946
H12   H     H_    0.709184 0.840367 0.281145 0.303711
H13   H     H_    0.861680 0.843441 0.232295 0.238968
H14   H     H_    0.746390 0.729259 0.188945 0.257202
H15   H     H_    0.900952 0.605183 0.282981 0.217066
H16   H     H_    0.747761 0.597089 0.328116 0.223781
H17   H     H_    0.801981 0.787602 0.436619 0.229456
H18   H     H_    0.945381 0.803428 0.381561 0.195384
C33   C     C_3   0.901650 0.256231 0.558438 -0.410334
C34   C     C_3   0.878409 0.298418 0.655349 -0.276272
C35   C     C_3   0.888478 0.176828 0.718578 -0.670268
H19   H     H_    0.827934 0.092466 0.696454 0.319772
H20   H     H_    0.985508 0.138777 0.721430 0.207658
H21   H     H_    0.860926 0.208833 0.786442 0.268407
H22   H     H_    0.947731 0.375118 0.676828 0.194517
H23   H     H_    0.785350 0.346092 0.660922 0.287004
H24   H     H_    0.820570 0.204539 0.528806 0.242993
H25   H     H_    0.976236 0.177362 0.559310 0.182572
C36   C     C_3   0.106951 0.768040 0.514408 -0.414001
C37   C     C_3   0.137030 0.771107 0.614267 -0.294295
C38   C     C_3   0.193939 0.907221 0.640987 -0.747168
H26   H     H_    0.284258 0.920614 0.607599 0.245112
H27   H     H_    0.131270 0.993075 0.622425 0.216232
H28   H     H_    0.209068 0.909758 0.713975 0.289541
H29   H     H_    0.050238 0.756727 0.652275 0.217380
H30   H     H_    0.201492 0.687426 0.633248 0.267941
H31   H     H_    0.185994 0.799549 0.473001 0.263163
H32   H     H_    0.036398 0.849647 0.504833 0.180575

loop_
_geom_bond_atom_site_label_1
_geom_bond_atom_site_label_2
_ccdc_geom_bond_type
C30   H18   S    
C2    O3    A    
C32   H13   S    
C35   H19   S    
C14   C18   A    
O4    Zn2   S    
O2    Zn2   S    
C33   H24   S    
C36   C37   S    
C1    O1    A    
O7    Zn1   S    
C29   H5    S    
C15   C19   A    
C34   H22   S    
C31   H15   S    
C7    F3    S    
O6    Zn2   S    
C11   C33   S    
C11   C25   A    
C16   H4    S    
C37   H29   S    
C13   C23   A    
C14   C24   A    
C20   F8    S    
C9    C27   S    
C34   H23   S    
C23   C24   S    
C5    N2    A    
C36   H31   S    
C2    O2    A    
O8    Zn2   S    
C6    N1    A    
C5    F1    S    
C32   H14   S    
C6    F2    S    
C35   H20   S    
C33   H25   S    
C9    C26   A    
C15   H3    S    
C29   H6    S    
C28   H9    S    
C27   C28   S    
C19   C22   A    
C17   C21   A    
C12   C26   A    
C31   C32   S    
C4    C22   S    
C19   F7    S    
C38   H26   S    
C4    O7    A    
C16   C20   A    
C9    C11   A    
C10   C12   A    
C36   H32   S    
C10   C25   A    
C15   C24   A    
C38   H27   S    
C4    O6    A    
C3    O8    A    
C16   C23   A    
C1    C26   S    
C35   H21   S    
C3    C21   S    
C10   C30   S    
C27   H10   S    
C28   C29   S    
C29   H7    S    
C30   H17   S    
C7    N2    A    
N1    Zn1   S    
C18   C22   A    
C8    N1    A    
C17   F5    S    
C34   C35   S    
C18   F6    S    
C5    C8    A    
C6    C7    A    
C31   H16   S    
C13   C17   A    
O1    Zn1   S    
C33   C34   S    
C37   H30   S    
C12   C36   S    
C2    C25   S    
O5    Zn1   S    
C30   C31   S    
O3    Zn1   S    
C8    F4    S    
C28   H8    S    
C32   H12   S    
C38   H28   S    
C20   C21   A    
C3    O5    A    
C37   C38   S    
N2    Zn2   S    
C13   H1    S    
C27   H11   S    
C14   H2    S    
C1    O4    A    
