data_mof_unit_47862.cif
_audit_creation_date              2012-12-10T18:49:57-0500
_audit_creation_method            fapswitch 2.2
_symmetry_space_group_name_H-M    P1
_symmetry_Int_Tables_number       1
_space_group_crystal_system       triclinic
_cell_length_a                    10.770136
_cell_length_b                    9.82163
_cell_length_c                    10.663323
_cell_angle_alpha                 90.115089
_cell_angle_beta                  89.667714
_cell_angle_gamma                 89.71758
_cell_volume                      1127.93439574

loop_
_atom_site_label
_atom_site_type_symbol
_atom_type_description
_atom_site_fract_x
_atom_site_fract_y
_atom_site_fract_z
_atom_type_partial_charge
C1    C     C_R   0.260430 0.500255 0.501019 0.912764
C2    C     C_3   0.625955 0.415396 0.930804 0.338734
C3    C     C_R   0.068089 0.388290 0.454914 -0.268206
C4    C     C_R   0.066327 0.611984 0.550661 -0.263794
C5    C     C_R   0.940938 0.386337 0.451404 0.390095
C6    C     C_R   0.938734 0.613938 0.553420 0.367502
C7    C     C_R   0.874082 0.499953 0.502036 -0.330587
C8    C     C_R   0.129208 0.500315 0.502430 -0.163676
C9    C     C_R   0.458043 0.072421 0.601991 -0.063055
C10   C     C_R   0.457927 0.928477 0.601941 -0.009956
C11   C     C_R   0.541771 0.927559 0.397927 -0.007745
C12   C     C_R   0.541253 0.071437 0.397733 0.025618
C13   C     C_R   0.500076 0.500200 0.257597 0.857947
C14   C     C_R   0.740641 0.499884 0.500463 0.940853
C15   C     C_R   0.504673 0.499691 0.742396 0.844331
C16   C     C_3   0.510590 0.648444 0.071183 -0.417682
C17   C     C_3   0.385229 0.430619 0.071169 -0.417160
C18   C     C_3   0.510253 0.647437 0.928811 -0.426619
C19   C     C_3   0.385576 0.434121 0.927485 -0.442454
C20   C     C_3   0.619886 0.421164 0.076511 -0.345304
C21   C     C_3   0.503502 0.500466 0.121444 0.097819
C22   C     C_3   0.508772 0.497841 0.879018 0.170348
H1    H     H_    0.596750 0.698775 0.104727 0.185885
H2    H     H_    0.381291 0.322901 0.103238 0.182580
H3    H     H_    0.575705 0.872825 0.316488 0.127087
H4    H     H_    0.574131 0.125296 0.315856 0.160700
H5    H     H_    0.429858 0.709493 0.105720 0.192813
H6    H     H_    0.300730 0.483478 0.107718 0.172694
H7    H     H_    0.426219 0.703519 0.896231 0.178926
H8    H     H_    0.304982 0.495982 0.895036 0.169371
H9    H     H_    0.591207 0.705105 0.892518 0.225133
H10   H     H_    0.370743 0.330143 0.889498 0.182032
H11   H     H_    0.704168 0.469922 0.116383 0.178852
H12   H     H_    0.616820 0.316663 0.116547 0.207218
H13   H     H_    0.120743 0.303061 0.417549 0.208973
H14   H     H_    0.117858 0.697553 0.587282 0.205163
H15   H     H_    0.424219 0.127178 0.683472 0.128964
H16   H     H_    0.424001 0.874427 0.683366 0.120071
N1    N     N_R   0.499970 0.857200 0.499970 -0.078301
N2    N     N_R   0.499970 0.142800 0.499970 -0.087836
O1    O     O_R   0.316750 0.614620 0.499990 -0.627630
O2    O     O_R   0.316750 0.385380 0.499990 -0.626753
O3    O     O_R   0.499970 0.614670 0.314790 -0.646095
O4    O     O_R   0.499970 0.385330 0.314790 -0.624999
O5    O     O_R   0.683220 0.614710 0.500010 -0.543049
O6    O     O_R   0.683220 0.385290 0.500010 -0.546504
O7    O     O_R   0.500010 0.614660 0.685200 -0.615721
O8    O     O_R   0.500010 0.385340 0.685200 -0.646283
Zn1   Zn    Zn3+2 0.499980 0.653120 0.500000 1.008215
Zn2   Zn    Zn3+2 0.499980 0.346880 0.500000 0.997371
C23   C     C_3   0.750301 0.477909 0.885586 -0.837293
H17   H     H_    0.763134 0.582866 0.921441 0.246447
H18   H     H_    0.830150 0.416865 0.920380 0.241729
H19   H     H_    0.755780 0.478504 0.781663 0.244744
C24   C     C_3   0.629380 0.262826 0.890183 -0.826044
H20   H     H_    0.649960 0.250089 0.788846 0.275937
H21   H     H_    0.705400 0.208426 0.939737 0.247398
H22   H     H_    0.542235 0.209045 0.913882 0.213942
S1    S     S_3+6 0.874940 0.240355 0.378694 0.038263
O9    O     O_2   0.817049 0.152028 0.477704 -0.189789
O10   O     O_2   0.777444 0.282631 0.286550 -0.380697
O11   O     O_3   0.983485 0.147747 0.302321 -0.527761
H23   H     H_    0.004666 0.201884 0.226934 0.342404
S2    S     S_3+6 0.869877 0.763940 0.619357 0.051646
O12   O     O_2   0.820335 0.850543 0.514817 -0.185364
O13   O     O_2   0.765267 0.729897 0.707349 -0.345705
O14   O     O_3   0.975391 0.855541 0.698540 -0.528358
H24   H     H_    0.992981 0.801710 0.774940 0.339848

loop_
_geom_bond_atom_site_label_1
_geom_bond_atom_site_label_2
_ccdc_geom_bond_type
C7    C14   S    
C2    C22   S    
C11   C12   A    
C4    H14   S    
C24   H21   S    
C16   C21   S    
C18   H9    S    
C3    H13   S    
C16   H1    S    
C1    C8    S    
C9    C10   A    
O6    Zn2   S    
O5    Zn1   S    
C10   H16   S    
C23   H19   S    
C20   H12   S    
S2    O12   D    
C16   H5    S    
C9    H15   S    
C13   C21   S    
S1    O9    D    
O7    Zn1   S    
C18   H7    S    
C11   N1    A    
O8    Zn2   S    
C17   H6    S    
S2    O13   D    
C6    C7    A    
C15   O8    A    
O2    Zn2   S    
N2    Zn2   S    
C20   H11   S    
C1    O1    A    
N1    Zn1   S    
C14   O5    A    
C2    C24   S    
C13   O4    A    
C24   H20   S    
S1    O10   D    
C17   H2    S    
C2    C23   S    
C5    S1    S    
C6    S2    S    
C23   H17   S    
S2    O14   S    
C3    C5    A    
C1    O2    A    
C13   O3    A    
C19   C22   S    
C20   C21   S    
C4    C6    A    
C3    C8    A    
C15   C22   S    
C24   H22   S    
O1    Zn1   S    
C4    C8    A    
C5    C7    A    
C11   H3    S    
C15   O7    A    
O3    Zn1   S    
S1    O11   S    
O4    Zn2   S    
C12   N2    A    
C14   O6    A    
C17   C19   S    
C18   C22   S    
C19   H8    S    
C2    C20   S    
C19   H10   S    
C9    N2    A    
C17   C21   S    
O11   H23   S    
O14   H24   S    
C12   H4    S    
C10   N1    A    
C23   H18   S    
C16   C18   S    
