data_mof_unit_18347.cif
_audit_creation_date              2012-12-10T18:13:55-0500
_audit_creation_method            fapswitch 2.2
_symmetry_space_group_name_H-M    P1
_symmetry_Int_Tables_number       1
_space_group_crystal_system       triclinic
_cell_length_a                    10.743757
_cell_length_b                    9.427304
_cell_length_c                    23.532616
_cell_angle_alpha                 89.55673
_cell_angle_beta                  89.727822
_cell_angle_gamma                 89.993491
_cell_volume                      2383.39485942

loop_
_atom_site_label
_atom_site_type_symbol
_atom_type_description
_atom_site_fract_x
_atom_site_fract_y
_atom_site_fract_z
_atom_type_partial_charge
C1    C     C_R   0.259939 0.499833 0.499358 0.763291
C2    C     C_R   0.274912 0.512694 0.969175 -0.266475
C3    C     C_R   0.270644 0.510119 0.028925 0.439806
C4    C     C_R   0.383337 0.510028 0.060003 -0.061487
C5    C     C_R   0.498351 0.513126 0.030436 -0.091996
C6    C     C_R   0.611404 0.513473 0.060716 0.006447
C7    C     C_R   0.725111 0.516479 0.030995 -0.153197
C8    C     C_R   0.727176 0.518565 0.971793 -0.162983
C9    C     C_R   0.385524 0.507300 0.119979 0.554556
C10   C     C_R   0.607981 0.510949 0.120196 0.535722
C11   C     C_R   0.496492 0.379261 0.238546 -0.141219
C12   C     C_R   0.499306 0.500604 0.390979 0.802261
C13   C     C_R   0.497367 0.375993 0.297716 -0.216411
C14   C     C_R   0.497695 0.502925 0.328430 -0.077730
C15   C     C_R   0.496203 0.633068 0.298955 -0.237526
C16   C     C_R   0.495301 0.637720 0.239455 0.196928
C17   C     C_R   0.495654 0.509008 0.209196 0.329371
C18   C     C_R   0.463389 0.387768 0.764333 -0.092427
C19   C     C_R   0.455037 0.382702 0.705254 0.395732
C20   C     C_R   0.497495 0.500035 0.672061 -0.165597
C21   C     C_R   0.542876 0.620917 0.699993 -0.262157
C22   C     C_R   0.547110 0.625655 0.759127 -0.102872
C23   C     C_R   0.739951 0.499876 0.499004 0.780375
C24   C     C_R   0.507118 0.509220 0.791450 0.259977
C25   C     C_3   0.071393 0.594393 0.448370 -0.019969
C26   C     C_3   0.070223 0.568224 0.555090 -0.041873
C27   C     C_3   0.927546 0.581285 0.445414 -0.425908
C28   C     C_3   0.925840 0.570667 0.553500 -0.371592
C29   C     C_3   0.070114 0.345932 0.493233 -0.344445
C30   C     C_3   0.122206 0.499717 0.498885 0.125300
C31   C     C_3   0.877754 0.499736 0.498470 0.094884
C32   C     C_3   0.928151 0.345817 0.496002 -0.386374
C33   C     C_3   0.624454 0.084233 0.517127 0.306004
C34   C     C_3   0.623737 0.915367 0.518078 0.297335
C35   C     C_3   0.409391 0.082542 0.542988 -0.243404
C36   C     C_3   0.405702 0.915634 0.541252 -0.194684
C37   C     C_3   0.470119 0.084591 0.444072 0.266210
C38   C     C_3   0.471512 0.916140 0.443856 0.262685
C39   C     C_R   0.498168 0.499515 0.609182 0.795117
C40   C     C_R   0.615632 0.517677 0.881376 0.544679
C41   C     C_R   0.393370 0.515698 0.880237 0.566577
C42   C     C_R   0.388802 0.514897 0.939844 -0.059146
C43   C     C_R   0.500827 0.515441 0.970433 -0.020409
C44   C     C_R   0.615574 0.517777 0.941033 -0.000844
Cu1   Cu    Cu3+1 0.499860 0.642410 0.500030 0.966854
Cu2   Cu    Cu3+1 0.499860 0.357590 0.500030 0.974623
H1    H     H_    0.188457 0.512425 0.945664 0.187111
H2    H     H_    0.575904 0.712137 0.676065 0.213879
H3    H     H_    0.580690 0.720261 0.779878 0.165451
H4    H     H_    0.089387 0.706759 0.460301 0.133403
H5    H     H_    0.099700 0.681659 0.553842 0.102015
H6    H     H_    0.885918 0.689361 0.443228 0.144582
H7    H     H_    0.893696 0.682759 0.554644 0.140991
H8    H     H_    0.898197 0.525274 0.406301 0.179995
H9    H     H_    0.884000 0.518131 0.591418 0.181851
H10   H     H_    0.100269 0.295903 0.453285 0.179430
H11   H     H_    0.106775 0.273791 0.526197 0.165323
H12   H     H_    0.891030 0.290425 0.458035 0.157922
H13   H     H_    0.897328 0.285084 0.534163 0.170063
H14   H     H_    0.694125 0.118778 0.484502 0.001389
H15   H     H_    0.695045 0.879505 0.486650 0.011531
H16   H     H_    0.434063 0.115138 0.586671 0.237397
H17   H     H_    0.420590 0.872918 0.584816 0.196457
H18   H     H_    0.543897 0.119225 0.413645 0.073485
H19   H     H_    0.546299 0.881993 0.413809 0.033777
H20   H     H_    0.314768 0.126063 0.536113 0.129706
H21   H     H_    0.310673 0.880994 0.529104 0.167568
H22   H     H_    0.812986 0.516976 0.053373 0.194340
H23   H     H_    0.816498 0.520389 0.950256 0.186233
H24   H     H_    0.496785 0.280599 0.215270 0.144496
H25   H     H_    0.498077 0.274165 0.319320 0.175965
H26   H     H_    0.495669 0.731835 0.322123 0.151430
H27   H     H_    0.431269 0.298294 0.789585 0.164223
N1    N     N_R   0.505564 0.515731 0.852340 -0.460664
N2    N     N_R   0.496429 0.508589 0.148299 -0.487037
N3    N     N_3   0.500250 0.143650 0.501250 -0.172234
N4    N     N_3   0.500250 0.856350 0.501250 -0.152850
O1    O     O_R   0.317570 0.620260 0.500030 -0.574346
O2    O     O_R   0.317570 0.379740 0.500030 -0.574562
O3    O     O_R   0.499840 0.620290 0.417900 -0.571519
O4    O     O_R   0.499840 0.379710 0.417900 -0.553936
O5    O     O_R   0.682190 0.620260 0.500010 -0.577371
O6    O     O_R   0.682190 0.379740 0.500010 -0.572470
O7    O     O_R   0.499920 0.620230 0.582140 -0.550799
O8    O     O_R   0.499920 0.379770 0.582140 -0.531360
O9    O     O_2   0.724599 0.517559 0.852621 -0.528379
O10   O     O_2   0.286521 0.516638 0.850289 -0.531481
O11   O     O_2   0.278382 0.504148 0.150086 -0.461556
O12   O     O_2   0.715163 0.511083 0.149878 -0.529566
O13   O     O_3   0.401789 0.263477 0.682365 -0.725946
H28   H     H_    0.354599 0.293061 0.648412 0.315321
C45   C     C_3   0.136360 0.585166 0.389174 -0.397730
C46   C     C_3   0.140950 0.439731 0.361127 -0.790221
H29   H     H_    0.214083 0.373090 0.381024 0.268504
H30   H     H_    0.049268 0.385842 0.363015 0.247120
H31   H     H_    0.167207 0.453267 0.315701 0.261709
H32   H     H_    0.087749 0.659292 0.359727 0.213514
H33   H     H_    0.233257 0.625022 0.392388 0.235264
C47   C     C_3   0.123926 0.516387 0.613063 -0.378363
C48   C     C_3   0.091969 0.365221 0.632616 -0.781853
H34   H     H_    0.104476 0.357272 0.679355 0.260707
H35   H     H_    0.994764 0.335348 0.623096 0.248607
H36   H     H_    0.156563 0.287404 0.613599 0.218382
H37   H     H_    0.226691 0.528661 0.612948 0.174267
H38   H     H_    0.088665 0.589725 0.646275 0.215285
O14   O     O_3   0.661253 0.138665 0.569994 -0.647782
H39   H     H_    0.752338 0.123467 0.573137 0.293962
O15   O     O_3   0.656516 0.862309 0.572034 -0.674207
H40   H     H_    0.748317 0.870181 0.575177 0.295698
O16   O     O_3   0.157535 0.507664 0.057197 -0.659941
H41   H     H_    0.088883 0.508214 0.029167 0.313980
O17   O     O_3   0.358139 0.141802 0.422870 -0.704958
H42   H     H_    0.287371 0.100182 0.444319 0.336327
O18   O     O_3   0.357884 0.861019 0.424401 -0.715939
H43   H     H_    0.354741 0.879626 0.382847 0.314686
C49   C     C_3   0.492546 0.780520 0.209676 -0.407923
C50   C     C_3   0.616897 0.857332 0.215265 -0.798950
H44   H     H_    0.638091 0.878016 0.260599 0.235527
H45   H     H_    0.692857 0.792728 0.196448 0.287914
H46   H     H_    0.612561 0.960606 0.192341 0.243903
H47   H     H_    0.471119 0.770263 0.163818 0.215464
H48   H     H_    0.417477 0.846600 0.228508 0.203777

loop_
_geom_bond_atom_site_label_1
_geom_bond_atom_site_label_2
_ccdc_geom_bond_type
C46   H29   S    
C23   O5    A    
C41   C42   A    
C19   C20   A    
C48   H34   S    
C32   H12   S    
Cu2   N3    S    
O18   H43   S    
C11   H24   S    
C45   H33   S    
C7    C8    A    
Cu1   Cu2   S    
C49   C50   S    
C15   H26   S    
C8    H23   S    
C29   C30   S    
C49   H48   S    
C18   C24   A    
C21   C22   A    
C39   O7    A    
C29   C32   S    
C36   N4    S    
C50   H45   S    
C9    O11   S    
C5    C6    A    
C38   O18   S    
Cu1   O5    S    
O14   H39   S    
C3    O16   S    
C15   C16   A    
O15   H40   S    
C18   C19   A    
C40   O9    S    
O16   H41   S    
C1    C30   S    
C37   O17   S    
C7    H22   S    
C25   H4    S    
C31   C32   S    
C10   O12   S    
C16   C17   A    
Cu1   O1    S    
Cu1   O3    S    
C36   H17   S    
C26   C47   S    
Cu2   O8    S    
C47   H37   S    
C5    C43   A    
C46   H30   S    
C13   C14   A    
C41   N1    A    
C1    O1    A    
C41   O10   S    
C16   C49   S    
O17   H42   S    
C28   H9    S    
C45   H32   S    
C47   H38   S    
C35   N3    S    
C36   H21   S    
C49   H47   S    
C27   C31   S    
C27   H8    S    
C50   H46   S    
C20   C39   S    
C13   H25   S    
C35   H20   S    
C48   H36   S    
C35   C36   S    
C23   C31   S    
C43   C44   A    
C37   C38   S    
Cu2   O4    S    
C10   N2    A    
C33   N3    S    
C47   C48   S    
C38   H19   S    
C48   H35   S    
C33   C34   S    
C23   O6    A    
C22   H3    S    
C38   N4    S    
C37   N3    S    
C29   H11   S    
C26   C30   S    
C46   H31   S    
C1    O2    A    
C22   C24   A    
Cu1   O7    S    
C25   C27   S    
C42   C43   A    
C39   O8    A    
C3    C4    A    
C37   H18   S    
C27   H6    S    
C25   C30   S    
C11   C17   A    
C25   C45   S    
C28   C31   S    
C33   O14   S    
C8    C44   A    
C12   C14   S    
C4    C5    A    
C6    C10   A    
C28   H7    S    
C6    C7    A    
C29   H10   S    
C2    H1    S    
C33   H14   S    
C26   C28   S    
C34   O15   S    
C18   H27   S    
C21   H2    S    
C2    C3    A    
C34   N4    S    
C19   O13   S    
C50   H44   S    
C11   C13   A    
C24   N1    S    
O13   H28   S    
Cu2   O2    S    
C2    C42   A    
C12   O3    A    
C45   C46   S    
C40   N1    A    
C12   O4    A    
C35   H16   S    
C34   H15   S    
Cu2   O6    S    
C40   C44   A    
C20   C21   A    
C17   N2    S    
C14   C15   A    
Cu1   N4    S    
C9    N2    A    
C32   H13   S    
C4    C9    A    
C26   H5    S    
