data_mof_unit_5840.cif
_audit_creation_date              2012-12-10T17:12:29-0500
_audit_creation_method            fapswitch 2.2
_symmetry_space_group_name_H-M    P1
_symmetry_Int_Tables_number       1
_space_group_crystal_system       triclinic
_cell_length_a                    11.654353
_cell_length_b                    12.972398
_cell_length_c                    11.923044
_cell_angle_alpha                 100.29742
_cell_angle_beta                  92.322163
_cell_angle_gamma                 93.687104
_cell_volume                      1767.39398388

loop_
_atom_site_label
_atom_site_type_symbol
_atom_type_description
_atom_site_fract_x
_atom_site_fract_y
_atom_site_fract_z
_atom_type_partial_charge
C1    C     C_R   0.502786 0.299970 0.478035 0.801202
C2    C     C_R   0.496966 0.700165 0.522040 0.798878
C3    C     C_R   0.373448 0.417106 0.028418 -0.320753
C4    C     C_R   0.613712 0.594300 0.974313 -0.325484
C5    C     C_R   0.386257 0.423355 0.147120 0.345973
C6    C     C_R   0.605687 0.585513 0.855349 0.351781
C7    C     C_R   0.562753 0.526794 0.149445 0.279628
C8    C     C_R   0.439998 0.465177 0.846160 0.284659
C9    C     C_R   0.541252 0.532894 0.031479 -0.034974
C10   C     C_R   0.449901 0.472241 0.968170 -0.000804
C11   C     C_R   0.284553 0.499740 0.501064 0.810003
C12   C     C_R   0.715446 0.500258 0.498935 0.808867
C13   C     C_1   0.162795 0.500031 0.502722 -0.194760
C14   C     C_1   0.837211 0.500130 0.497225 -0.195373
C15   C     C_1   0.060041 0.500120 0.501376 -0.010141
C16   C     C_1   0.939972 0.500125 0.498563 -0.005978
C17   C     C_R   0.486976 0.813720 0.535431 -0.092520
C18   C     C_R   0.512992 0.186762 0.464937 -0.087587
C19   C     C_R   0.579904 0.020896 0.369746 0.179876
C20   C     C_R   0.421668 0.980202 0.631640 0.181124
C21   C     C_R   0.576829 0.131141 0.378777 0.131333
C22   C     C_R   0.424378 0.869830 0.622507 0.126757
C23   C     C_R   0.461493 0.136274 0.545450 -0.308702
C24   C     C_R   0.538340 0.864368 0.454922 -0.306639
C25   C     C_R   0.470943 0.029598 0.545112 0.060645
C26   C     C_R   0.529570 0.971186 0.455626 0.059290
Cu1   Cu    Cu3+1 0.508350 0.507730 0.615930 0.919504
Cu2   Cu    Cu3+1 0.491650 0.492270 0.384070 0.927465
H1    H     H_    0.586212 0.817968 0.391661 0.173421
H2    H     H_    0.413108 0.182835 0.608466 0.164374
H3    H     H_    0.301183 0.368063 0.985129 0.162381
H4    H     H_    0.679821 0.648842 0.022083 0.163558
N1    N     N_R   0.520920 0.519350 0.790130 -0.192596
N2    N     N_R   0.479080 0.480650 0.209870 -0.185287
O1    O     O_R   0.505930 0.354460 0.582000 -0.601954
O2    O     O_R   0.494070 0.645540 0.418000 -0.572071
O3    O     O_R   0.491820 0.341410 0.386200 -0.587715
O4    O     O_R   0.508180 0.658590 0.613800 -0.584486
O5    O     O_R   0.344250 0.506540 0.597900 -0.583049
O6    O     O_R   0.655750 0.493460 0.402100 -0.583926
O7    O     O_R   0.330140 0.493480 0.402100 -0.570075
O8    O     O_R   0.669860 0.506520 0.597900 -0.568892
C27   C     C_3   0.357447 0.810511 0.700796 -0.833986
H5    H     H_    0.287401 0.853972 0.742264 0.226132
H6    H     H_    0.313356 0.737071 0.651143 0.231723
H7    H     H_    0.416826 0.791241 0.768007 0.242994
C28   C     C_3   0.644740 0.191003 0.301522 -0.843542
H8    H     H_    0.716112 0.148459 0.261560 0.226730
H9    H     H_    0.586278 0.209573 0.233180 0.240760
H10   H     H_    0.687432 0.264860 0.351662 0.230107
C29   C     C_3   0.632275 0.956917 0.266711 -0.408540
C30   C     C_3   0.758100 0.938251 0.292828 -0.855599
H11   H     H_    0.810608 0.013860 0.318471 0.257854
H12   H     H_    0.765860 0.892885 0.362953 0.252848
H13   H     H_    0.793808 0.893388 0.215484 0.240699
H14   H     H_    0.581223 0.881149 0.236635 0.190707
H15   H     H_    0.626380 0.995726 0.191193 0.207112
C31   C     C_3   0.373145 0.045154 0.736541 -0.410253
C32   C     C_3   0.247353 0.066645 0.714796 -0.849945
H16   H     H_    0.237682 0.110523 0.643640 0.247771
H17   H     H_    0.192395 0.992072 0.693073 0.256781
H18   H     H_    0.216008 0.114280 0.792880 0.238886
H19   H     H_    0.380524 0.006122 0.811799 0.207112
H20   H     H_    0.426062 0.120242 0.764986 0.188245
C33   C     C_3   0.339786 0.395487 0.781047 -0.361640
C34   C     C_3   0.225824 0.448620 0.793313 -0.818437
H21   H     H_    0.235551 0.529332 0.774381 0.270594
H22   H     H_    0.158716 0.401958 0.732985 0.237303
H23   H     H_    0.194847 0.454742 0.880654 0.234746
H24   H     H_    0.353076 0.370495 0.690927 0.247466
H25   H     H_    0.331805 0.318445 0.809164 0.154316
C35   C     C_3   0.688904 0.544997 0.192181 -0.324788
C36   C     C_3   0.720464 0.654362 0.262671 -0.814913
H26   H     H_    0.685593 0.715184 0.219124 0.233446
H27   H     H_    0.687560 0.663197 0.348871 0.271780
H28   H     H_    0.815614 0.668651 0.272537 0.227881
H29   H     H_    0.717982 0.479214 0.230017 0.212808
H30   H     H_    0.746243 0.535904 0.119513 0.157609
C37   C     C_3   0.699058 0.646216 0.804904 -0.778302
H31   H     H_    0.666250 0.685887 0.737595 0.254434
H32   H     H_    0.742883 0.710123 0.870049 0.176680
H33   H     H_    0.766611 0.593528 0.773525 0.232546
C38   C     C_3   0.295040 0.360771 0.198221 -0.780471
H34   H     H_    0.223195 0.410406 0.224338 0.229120
H35   H     H_    0.257806 0.292113 0.134876 0.176191
H36   H     H_    0.328458 0.326438 0.269445 0.260081

loop_
_geom_bond_atom_site_label_1
_geom_bond_atom_site_label_2
_ccdc_geom_bond_type
C34   H22   S    
C18   C21   A    
C36   H26   S    
C28   H9    S    
Cu1   N1    S    
C1    C18   S    
C19   C21   A    
C24   C26   A    
C5    C38   S    
C34   H23   S    
C20   C25   A    
Cu2   O6    S    
Cu1   O4    S    
C33   H24   S    
Cu2   O7    S    
C29   H14   S    
C19   C26   A    
C24   H1    S    
C35   H30   S    
C38   H34   S    
Cu1   O5    S    
C12   O8    A    
C29   H15   S    
C9    C10   A    
C30   H13   S    
C1    O3    A    
C34   H21   S    
Cu2   N2    S    
C32   H16   S    
C2    C17   S    
C36   H27   S    
C30   H12   S    
C28   H10   S    
C31   H20   S    
C32   H17   S    
C17   C24   A    
C18   C23   A    
C23   H2    S    
C4    C6    A    
C7    C35   S    
C37   H32   S    
Cu1   O1    S    
C25   C26   A    
C33   H25   S    
C29   C30   S    
C12   O6    A    
C11   O5    A    
C27   H5    S    
C35   H29   S    
C2    O4    A    
C28   H8    S    
C5    N2    A    
C3    H3    S    
C27   H6    S    
C4    H4    S    
C38   H35   S    
C12   C14   S    
C13   C15   T    
C36   H28   S    
C14   C16   T    
C20   C31   S    
C30   H11   S    
C1    O1    A    
C2    O2    A    
C31   H19   S    
C7    C9    A    
C32   H18   S    
C20   C22   A    
C35   C36   S    
C3    C5    A    
C37   H33   S    
C17   C22   A    
C6    N1    A    
C31   C32   S    
C3    C10   A    
C11   C13   S    
Cu1   O8    S    
C6    C37   S    
Cu2   O3    S    
C7    N2    A    
C11   O7    A    
C8    N1    A    
C23   C25   A    
C27   H7    S    
C37   H31   S    
C19   C29   S    
C8    C33   S    
C38   H36   S    
Cu2   O2    S    
C8    C10   A    
C33   C34   S    
Cu1   Cu2   S    
C4    C9    A    
C22   C27   S    
C15   C16   S    
C21   C28   S    
