data_mof_unit_36129.cif
_audit_creation_date              2013-03-05T15:42:03-0500
_audit_creation_method            fapswitch 2.2
_symmetry_space_group_name_H-M    P1
_symmetry_Int_Tables_number       1
_space_group_crystal_system       triclinic
_cell_length_a                    27.775809
_cell_length_b                    8.762522
_cell_length_c                    7.43053
_cell_angle_alpha                 102.931129
_cell_angle_beta                  94.530852
_cell_angle_gamma                 92.895846
_cell_volume                      1752.7820601

loop_
_atom_site_label
_atom_site_type_symbol
_atom_site_description
_atom_site_fract_x
_atom_site_fract_y
_atom_site_fract_z
_atom_type_partial_charge
O1    O     O_R   0.503500 0.286120 0.619780 -0.573191
O2    O     O_R   0.496500 0.713880 0.380220 -0.573185
O3    O     O_R   0.494410 0.256780 0.308360 -0.514770
O4    O     O_R   0.505590 0.743220 0.691640 -0.514766
C1    C     C_R   0.498694 0.200324 0.453773 0.822988
C2    C     C_R   0.501307 0.799676 0.546227 0.823028
O5    O     O_R   0.434810 0.514700 0.655690 -0.588733
O6    O     O_R   0.565190 0.485300 0.344310 -0.588711
O7    O     O_R   0.425720 0.485350 0.344280 -0.590291
O8    O     O_R   0.574280 0.514650 0.655720 -0.590279
C3    C     C_R   0.407446 0.499181 0.501633 0.799863
C4    C     C_R   0.592553 0.500809 0.498365 0.799860
Cu1   Cu    Cu3+1 0.505380 0.517380 0.684380 1.064502
Cu2   Cu    Cu3+1 0.494620 0.482620 0.315620 1.064501
C5    C     C_R   0.173719 0.360946 0.413049 0.618686
C6    C     C_R   0.826272 0.639007 0.586979 0.618725
O9    O     O_2   0.195300 0.229933 0.338668 -0.395664
O10   O     O_2   0.804689 0.769994 0.661434 -0.395628
N1    N     N_R   0.201810 0.493137 0.499975 -0.499059
N2    N     N_R   0.798184 0.506827 0.500009 -0.499095
C7    C     C_R   0.182053 0.629998 0.574153 0.608944
C8    C     C_R   0.817940 0.369979 0.425788 0.608965
C9    C     C_R   0.275123 0.485777 0.337163 -0.082680
C10   C     C_R   0.724867 0.513641 0.662730 -0.082708
C11   C     C_R   0.325233 0.488299 0.337649 -0.179397
C12   C     C_R   0.674757 0.511117 0.662242 -0.179319
C13   C     C_R   0.332561 0.502670 0.668901 -0.178510
C14   C     C_R   0.667445 0.497808 0.331194 -0.178443
C15   C     C_R   0.282227 0.499898 0.667933 -0.066758
C16   C     C_R   0.717779 0.500574 0.332165 -0.066765
C17   C     C_R   0.253435 0.491543 0.501917 0.319753
C18   C     C_R   0.746561 0.508407 0.498080 0.319862
C19   C     C_R   0.101593 0.500913 0.483081 -0.172205
C20   C     C_R   0.898399 0.499054 0.516904 -0.172199
C21   C     C_R   0.122840 0.360939 0.403397 -0.024876
C22   C     C_R   0.877151 0.639024 0.596608 -0.024899
C23   C     C_R   0.092806 0.227445 0.310987 0.438253
C24   C     C_R   0.907185 0.772518 0.689016 0.438247
C25   C     C_R   0.131374 0.639886 0.557644 -0.151273
C26   C     C_R   0.868617 0.360085 0.442318 -0.151291
C27   C     C_R   0.354476 0.497051 0.503515 -0.031946
C28   C     C_R   0.645523 0.502906 0.496478 -0.031899
H1    H     H_    0.354214 0.509054 0.798506 0.163878
H2    H     H_    0.645799 0.491861 0.201675 0.163788
H3    H     H_    0.265587 0.504644 0.795887 0.147641
H4    H     H_    0.734428 0.496241 0.204294 0.147568
C29   C     C_R   0.970583 0.356479 0.438631 -0.000185
C30   C     C_R   0.029408 0.643489 0.561353 -0.000187
C31   C     C_R   0.978879 0.639019 0.582910 0.078183
C32   C     C_R   0.021112 0.360948 0.417079 0.078180
C33   C     C_R   0.949371 0.498306 0.511309 -0.013794
C34   C     C_R   0.050620 0.501661 0.488677 -0.013800
C35   C     C_R   0.941196 0.213391 0.404936 0.295252
C36   C     C_R   0.058794 0.786577 0.595040 0.295253
C37   C     C_R   0.890251 0.215674 0.393432 0.258502
C38   C     C_R   0.109739 0.784296 0.606532 0.258503
O11   O     O_2   0.788339 0.244865 0.335737 -0.442012
O12   O     O_2   0.211653 0.755135 0.664137 -0.442070
C39   C     C_R   0.042581 0.231582 0.313167 -0.242687
C40   C     C_R   0.957410 0.768384 0.686827 -0.242680
H5    H     H_    0.658984 0.514941 0.791795 0.165389
H6    H     H_    0.340998 0.484041 0.208009 0.165430
H7    H     H_    0.746951 0.518569 0.791031 0.149695
H8    H     H_    0.253034 0.480437 0.208773 0.149802
H9    H     H_    0.020648 0.133782 0.225725 0.200426
H10   H     H_    0.979343 0.866184 0.774267 0.200427
C41   C     C_2   0.501560 0.034596 0.427888 0.027558
C42   C     C_2   0.498447 0.965406 0.572116 0.027561
N3    N     N_2   0.486510 0.456430 0.038510 -0.183270
N4    N     N_2   0.513490 0.543570 0.961490 -0.183267
H11   H     H_    0.461080 0.381528 0.948658 0.260081
H12   H     H_    0.538921 0.618470 0.051342 0.260091
O13   O     O_3   0.112749 0.094902 0.216063 -0.604393
H13   H     H_    0.086789 0.011130 0.164049 0.332666
O14   O     O_3   0.887242 0.905062 0.783935 -0.604389
H14   H     H_    0.913202 0.988835 0.835947 0.332666
N5    N     N_R   0.861202 0.069662 0.343418 0.148782
O15   O     O_R   0.836507 0.024259 0.466053 -0.257530
O16   O     O_R   0.865212 0.972081 0.186138 -0.299159
N6    N     N_R   0.138786 0.930311 0.656551 0.148786
O17   O     O_R   0.163473 0.975735 0.533908 -0.257466
O18   O     O_R   0.134780 0.027878 0.813843 -0.299185
O19   O     O_3   0.963018 0.074511 0.403143 -0.708484
H15   H     H_    0.939553 0.992979 0.424105 0.373663
O20   O     O_3   0.036971 0.925456 0.596839 -0.708483
H16   H     H_    0.060435 0.006989 0.575872 0.373663
N7    N     N_R   0.510949 0.949692 0.246585 0.143494
O21   O     O_R   0.475413 0.905917 0.117233 -0.272809
O22   O     O_R   0.555363 0.934262 0.205404 -0.344710
N8    N     N_R   0.489062 0.050312 0.753424 0.143488
O23   O     O_R   0.524603 0.094124 0.882748 -0.272827
O24   O     O_R   0.444649 0.065667 0.794653 -0.344671

loop_
_geom_bond_atom_site_label_1
_geom_bond_atom_site_label_2
_geom_bond_distance
_ccdc_geom_bond_type
N7    O21   1.300777 A    
C13   C15   1.396464 A    
O13   H13   0.991798 S    
O14   H14   0.991796 S    
N1    C17   1.433669 S    
C8    O11   1.348823 S    
N5    O15   1.300995 A    
C19   C34   1.420006 A    
C30   C36   1.422940 A    
C20   C33   1.420000 A    
C19   C25   1.413506 A    
C31   C40   1.409289 A    
C1    C41   1.428737 S    
O1    C1    1.285835 A    
C32   C39   1.409284 A    
C21   C23   1.409662 A    
C12   H5    1.083250 S    
C10   C12   1.390590 A    
C37   N5    1.435830 S    
Cu1   N4    2.013257 S    
C14   C28   1.406224 A    
O4    Cu1   1.967257 S    
N3    H11   1.028580 S    
C4    C28   1.471663 S    
C5    N1    1.364512 A    
N8    O24   1.300688 A    
C25   C38   1.414184 A    
C31   C33   1.417912 A    
C32   C34   1.417916 A    
C6    N2    1.364488 A    
C29   C35   1.422947 A    
C2    C42   1.428734 S    
C40   H10   1.078523 S    
Cu1   Cu2   2.679186 S    
O2    C2    1.285838 A    
C5    C21   1.409356 A    
C29   C32   1.424687 A    
C24   O14   1.383232 S    
C35   C37   1.412288 A    
C36   C38   1.412285 A    
C41   C42   1.350448 D    
O4    C2    1.284998 A    
C11   C27   1.406363 A    
C29   C33   1.416728 A    
O20   H16   0.989066 S    
C14   H2    1.083226 S    
C15   H3    1.083056 S    
C9    C17   1.398590 A    
O5    C3    1.299613 A    
O7    Cu2   1.942964 S    
C10   C18   1.398627 A    
C13   C27   1.406156 A    
C42   N8    1.436295 S    
O19   H15   0.989066 S    
C7    C25   1.412012 A    
C30   C34   1.416726 A    
O6    C4    1.299609 A    
C26   C37   1.414172 A    
C8    C26   1.411992 A    
N5    O16   1.300869 A    
O7    C3    1.294584 A    
C23   C39   1.398592 A    
O3    Cu2   1.967257 S    
O8    C4    1.294581 A    
C24   C40   1.398599 A    
N6    O18   1.300869 A    
C30   C31   1.424692 A    
N2    C8    1.364373 A    
C10   H7    1.083289 S    
N7    O22   1.300682 A    
Cu2   N3    2.013257 S    
C20   C26   1.413508 A    
O1    Cu1   1.972188 S    
C12   C28   1.406442 A    
N2    C18   1.433601 S    
C5    O9    1.349287 S    
C23   O13   1.383233 S    
C9    H8    1.083233 S    
O6    Cu2   1.953262 S    
N1    C7    1.364402 A    
C16   H4    1.083107 S    
N6    O17   1.300992 A    
O3    C1    1.285001 A    
O8    Cu1   1.942967 S    
C36   O20   1.384569 S    
C41   N7    1.436292 S    
C38   N6    1.435826 S    
C35   O19   1.384568 S    
C22   C24   1.409658 A    
C7    O12   1.348818 S    
C15   C17   1.401597 A    
C6    C22   1.409359 A    
C16   C18   1.401636 A    
N8    O23   1.300778 A    
C14   C16   1.396468 A    
C19   C21   1.416528 A    
C3    C27   1.471674 S    
C20   C22   1.416538 A    
C11   H6    1.083193 S    
C9    C11   1.390591 A    
N3    N4    1.295248 D    
O2    Cu2   1.972188 S    
C13   H1    1.083163 S    
O5    Cu1   1.953262 S    
C6    O10   1.349289 S    
N4    H12   1.028578 S    
C39   H9    1.078523 S    
