data_mof_unit_40541.cif
_audit_creation_date              2012-10-26T21:17:39-0400
_audit_creation_method            fapswitch 2.2
_symmetry_space_group_name_H-M    P1
_symmetry_Int_Tables_number       1
_space_group_crystal_system       triclinic
_cell_length_a                    10.836333
_cell_length_b                    9.09649
_cell_length_c                    7.778154
_cell_angle_alpha                 89.990148
_cell_angle_beta                  91.582003
_cell_angle_gamma                 89.904054
_cell_volume                      766.419486213

loop_
_atom_site_label
_atom_site_type_symbol
_atom_type_description
_atom_site_fract_x
_atom_site_fract_y
_atom_site_fract_z
_atom_type_partial_charge
C1    C     C_R   0.499893 0.219985 0.499991 0.550016
C2    C     C_R   0.066942 0.587774 0.635011 0.024102
C3    C     C_R   0.128566 0.526817 0.493787 0.019351
C4    C     C_R   0.874469 0.488387 0.516610 0.013586
C5    C     C_R   0.061894 0.458378 0.360286 -0.173839
C6    C     C_R   0.935365 0.445631 0.368429 -0.176668
C7    C     C_1   0.499922 0.065348 0.500030 -0.039268
C8    C     C_1   0.500019 0.934631 0.500008 -0.031209
C9    C     C_R   0.500186 0.780011 0.499980 0.574824
C10   C     C_R   0.262163 0.511759 0.497718 0.597849
C11   C     C_R   0.739123 0.493783 0.504450 0.555785
C12   C     C_R   0.123964 0.689886 0.750202 0.252752
C13   C     C_R   0.900136 0.555441 0.832649 0.252905
C14   C     C_R   0.068095 0.721676 0.906423 -0.141093
C15   C     C_R   0.960912 0.649502 0.950613 -0.153957
C16   C     C_R   0.944368 0.543027 0.662252 0.027253
Cu1   Cu    Cu3+1 0.500000 0.500000 0.669080 1.083306
Cu2   Cu    Cu3+1 0.500000 0.500000 0.330920 1.021237
H1    H     H_    0.107763 0.413309 0.249967 0.151578
H2    H     H_    0.885176 0.397797 0.260107 0.147626
H3    H     H_    0.110624 0.797451 0.997528 0.119848
H4    H     H_    0.926462 0.664677 0.078778 0.121225
H5    H     H_    0.255784 0.831150 0.797333 0.323730
H6    H     H_    0.787508 0.488747 0.007318 0.323613
N1    N     N_1   0.500000 0.500000 0.076820 -0.085570
N2    N     N_1   0.500000 0.500000 0.923180 -0.067571
O1    O     O_R   0.500000 0.288390 0.642760 -0.494129
O2    O     O_3   0.812534 0.458800 0.890803 -0.664761
O3    O     O_R   0.500000 0.711610 0.642760 -0.481288
O4    O     O_R   0.500000 0.288370 0.357190 -0.500077
O5    O     O_R   0.500000 0.711630 0.357190 -0.503161
O6    O     O_R   0.319650 0.500000 0.642810 -0.468126
O7    O     O_R   0.680350 0.500000 0.642810 -0.440838
O8    O     O_R   0.319630 0.500000 0.357240 -0.518913
O9    O     O_R   0.680370 0.500000 0.357240 -0.532787
O10   O     O_3   0.229053 0.763934 0.703122 -0.687330

loop_
_geom_bond_atom_site_label_1
_geom_bond_atom_site_label_2
_ccdc_geom_bond_type
C4    C16   A    
C13   O2    S    
Cu2   O4    S    
C2    C16   A    
C12   O10   S    
Cu1   O3    S    
Cu2   O9    S    
C9    O3    A    
C2    C12   A    
C11   O9    A    
C2    C3    A    
C7    C8    T    
C10   O8    A    
C3    C10   S    
C4    C11   S    
Cu2   O8    S    
Cu2   N1    S    
Cu1   O7    S    
C5    H1    S    
Cu1   N2    S    
C14   H3    S    
C1    O4    A    
C12   C14   A    
Cu1   Cu2   S    
C13   C15   A    
C5    C6    A    
C9    O5    A    
Cu1   O1    S    
C10   O6    A    
C11   O7    A    
C6    H2    S    
C4    C6    A    
H5    O10   S    
C13   C16   A    
C1    O1    A    
Cu1   O6    S    
C14   C15   A    
Cu2   O5    S    
N1    N2    T    
C1    C7    S    
C15   H4    S    
H6    O2    S    
C8    C9    S    
C3    C5    A    
