data_mof_unit_46024.cif
_audit_creation_date              2013-03-05T15:47:46-0500
_audit_creation_method            fapswitch 2.2
_symmetry_space_group_name_H-M    P1
_symmetry_Int_Tables_number       1
_space_group_crystal_system       triclinic
_cell_length_a                    21.814133
_cell_length_b                    7.197569
_cell_length_c                    18.512453
_cell_angle_alpha                 89.998574
_cell_angle_beta                  96.175636
_cell_angle_gamma                 89.998517
_cell_volume                      2889.74900405

loop_
_atom_site_label
_atom_site_type_symbol
_atom_site_description
_atom_site_fract_x
_atom_site_fract_y
_atom_site_fract_z
_atom_type_partial_charge
O1    O     O_R   0.449650 0.506500 0.414480 -0.595089
O2    O     O_R   0.550350 0.006500 0.585520 -0.595077
O3    O     O_R   0.432010 0.173150 0.560250 -0.557053
O4    O     O_R   0.567990 0.673150 0.439750 -0.557073
C1    C     C_R   0.416096 0.344765 0.581446 1.006721
C2    C     C_R   0.583904 0.844763 0.418554 1.006721
O5    O     O_R   0.442320 0.176650 0.413480 -0.560435
O6    O     O_R   0.557680 0.676650 0.586520 -0.560443
O7    O     O_R   0.560730 0.008380 0.437700 -0.533939
O8    O     O_R   0.439270 0.508380 0.562300 -0.533953
C3    C     C_R   0.427980 0.345516 0.387660 0.941875
C4    C     C_R   0.572021 0.845509 0.612339 0.941844
O9    O     O_3   0.538840 0.339860 0.508120 -0.256305
O10   O     O_3   0.461160 0.839860 0.491880 -0.256299
V1    V     V_3+5 0.492800 0.064220 0.498490 1.308587
V2    V     V_3+5 0.507200 0.564220 0.501510 1.308572
C5    C     C_R   0.871834 0.981110 0.687949 -0.055295
C6    C     C_R   0.128149 0.480763 0.312064 -0.055419
H1    H     H_    0.958738 0.015304 0.752529 0.113636
H2    H     H_    0.041231 0.514804 0.247498 0.113615
H3    H     H_    0.892325 0.016314 0.639112 0.169995
H4    H     H_    0.107648 0.515705 0.360923 0.169926
C7    C     C_R   0.886940 0.942050 0.818492 -0.094361
C8    C     C_R   0.113058 0.442006 0.181507 -0.094339
C9    C     C_R   0.588301 0.830610 0.746086 -0.124432
C10   C     C_R   0.411706 0.330626 0.253913 -0.124453
C11   C     C_R   0.624874 0.830044 0.812246 -0.100669
C12   C     C_R   0.375134 0.330058 0.187752 -0.100668
C13   C     C_R   0.688414 0.853128 0.815132 -0.156743
C14   C     C_R   0.311595 0.353151 0.184862 -0.156726
C15   C     C_R   0.717419 0.879927 0.751127 0.100308
C16   C     C_R   0.282588 0.379976 0.248865 0.100277
C17   C     C_R   0.679221 0.882444 0.683160 0.027603
C18   C     C_R   0.320786 0.382499 0.316834 0.027646
C19   C     C_R   0.782757 0.907247 0.752747 0.067343
C20   C     C_R   0.217248 0.407269 0.247243 0.067355
C21   C     C_R   0.808352 0.940727 0.686211 -0.038067
C22   C     C_R   0.191647 0.440633 0.313781 -0.038075
C23   C     C_R   0.769888 0.939218 0.619461 0.344390
C24   C     C_R   0.230118 0.439263 0.380521 0.344521
C25   C     C_R   0.706373 0.912944 0.618997 -0.246039
C26   C     C_R   0.293633 0.413050 0.380993 -0.245964
C27   C     C_R   0.823695 0.904713 0.818390 -0.194097
C28   C     C_R   0.176313 0.404815 0.181598 -0.194063
C29   C     C_R   0.910315 0.982389 0.753123 -0.171429
C30   C     C_R   0.089667 0.482072 0.246891 -0.171393
C31   C     C_R   0.614290 0.853966 0.680938 -0.148476
C32   C     C_R   0.385715 0.353995 0.319059 -0.148468
H5    H     H_    0.808054 0.876409 0.870506 0.092027
H6    H     H_    0.191962 0.376693 0.129472 0.091996
H7    H     H_    0.539191 0.813947 0.746005 0.180936
H8    H     H_    0.460815 0.313949 0.253997 0.180948
H9    H     H_    0.713248 0.851527 0.868600 0.109777
H10   H     H_    0.286761 0.351504 0.131394 0.109781
H11   H     H_    0.603689 0.811587 0.862037 0.127751
H12   H     H_    0.396321 0.311578 0.137963 0.127753
H13   H     H_    0.678148 0.914658 0.567185 0.162600
H14   H     H_    0.321852 0.414860 0.432810 0.162438
C33   C     C_R   0.633753 0.007500 0.317813 0.461255
C34   C     C_R   0.366248 0.507495 0.682187 0.461258
C35   C     C_R   0.633562 0.857638 0.368083 -0.416953
C36   C     C_R   0.366437 0.357644 0.631915 -0.417093
C37   C     C_R   0.681018 0.721679 0.369468 0.288218
C38   C     C_R   0.318978 0.221700 0.630526 0.287998
C39   C     C_R   0.727177 0.735215 0.321217 -0.017254
C40   C     C_R   0.272820 0.235233 0.678778 -0.017304
C41   C     C_R   0.728425 0.890852 0.274679 -0.052774
C42   C     C_R   0.271574 0.390857 0.725319 -0.052795
C43   C     C_R   0.682596 0.029303 0.274192 0.032021
C44   C     C_R   0.317405 0.529299 0.725808 0.031993
C45   C     C_R   0.773240 0.598046 0.319406 -0.057716
C46   C     C_R   0.226756 0.098073 0.680586 -0.057628
C47   C     C_R   0.818468 0.612435 0.271659 -0.230946
C48   C     C_R   0.181528 0.112458 0.728335 -0.230964
C49   C     C_R   0.820137 0.766561 0.225771 0.140513
C50   C     C_R   0.179861 0.266574 0.774225 0.140507
C51   C     C_R   0.775629 0.907748 0.227881 0.101107
C52   C     C_R   0.224370 0.407751 0.772118 0.101116
C53   C     C_R   0.778200 0.065560 0.182915 0.162664
C54   C     C_R   0.221801 0.565554 0.817086 0.162664
C55   C     C_R   0.733839 0.204929 0.184800 -0.267203
C56   C     C_R   0.266162 0.704915 0.815203 -0.267190
C57   C     C_R   0.686489 0.186734 0.229263 -0.086507
C58   C     C_R   0.313513 0.686720 0.770740 -0.086509
C59   C     C_R   0.865635 0.781746 0.177843 -0.231382
C60   C     C_R   0.134363 0.281757 0.822154 -0.231381
C61   C     C_R   0.868305 0.938578 0.132628 -0.142673
C62   C     C_R   0.131695 0.438578 0.867372 -0.142670
C63   C     C_R   0.824790 0.081184 0.136382 -0.260586
C64   C     C_R   0.175211 0.581176 0.863620 -0.260578
H15   H     H_    0.774656 0.477609 0.354467 0.191149
H16   H     H_    0.225339 0.977645 0.645523 0.191198
H17   H     H_    0.852510 0.502930 0.271006 0.147248
H18   H     H_    0.147486 0.002961 0.728985 0.147262
H19   H     H_    0.899465 0.671810 0.176365 0.140971
H20   H     H_    0.100533 0.171827 0.823630 0.140969
H21   H     H_    0.826279 0.202504 0.101895 0.144607
H22   H     H_    0.173723 0.702489 0.898108 0.144607
H23   H     H_    0.735384 0.327982 0.151288 0.142906
H24   H     H_    0.264618 0.827961 0.848718 0.142905
H25   H     H_    0.653533 0.299109 0.228421 0.185935
H26   H     H_    0.346469 0.799088 0.771583 0.185934
O11   O     O_R   0.060820 0.290050 0.937800 -0.595568
O12   O     O_R   0.939180 0.790050 0.062200 -0.595571
O13   O     O_R   0.057690 0.616620 0.086540 -0.585440
O14   O     O_R   0.942310 0.116620 0.913460 -0.585453
C65   C     C_R   0.071440 0.448728 0.112874 0.902155
C66   C     C_R   0.928559 0.948736 0.887126 0.902161
O15   O     O_R   0.068010 0.619890 0.939770 -0.594154
O16   O     O_R   0.931990 0.119890 0.060230 -0.594158
O17   O     O_R   0.949640 0.787940 0.914460 -0.578981
O18   O     O_R   0.050360 0.287940 0.085540 -0.578985
C67   C     C_R   0.083625 0.451006 0.918349 0.935080
C68   C     C_R   0.916375 0.951006 0.081651 0.935086
O19   O     O_3   0.961210 0.453080 0.991940 -0.282056
O20   O     O_3   0.038790 0.953080 0.008060 -0.282047
V3    V     V_3+5 0.007200 0.728820 0.001500 1.161098
V4    V     V_3+5 0.992800 0.228820 0.998500 1.161093
N1    N     N_R   0.683503 0.572686 0.421183 0.251554
O21   O     O_R   0.671949 0.403138 0.399609 -0.354124
O22   O     O_R   0.697053 0.606533 0.490039 -0.379547
N2    N     N_R   0.316490 0.072728 0.578805 0.251604
O23   O     O_R   0.328044 0.903169 0.600370 -0.354037
O24   O     O_R   0.302948 0.106610 0.509949 -0.379481
N3    N     N_R   0.794529 0.960412 0.550948 0.242500
O25   O     O_R   0.838712 0.851901 0.534593 -0.374243
O26   O     O_R   0.765145 0.060503 0.499846 -0.353479
N4    N     N_R   0.205480 0.460654 0.449018 0.242301
O27   O     O_R   0.161505 0.351583 0.465571 -0.374053
O28   O     O_R   0.234674 0.561834 0.499920 -0.353226
Cl1   Cl    Cl    0.570029 0.160504 0.303559 -0.690523
Cl2   Cl    Cl    0.429972 0.660487 0.696442 -0.690506

loop_
_geom_bond_atom_site_label_1
_geom_bond_atom_site_label_2
_geom_bond_distance
_ccdc_geom_bond_type
C40   C42   1.415215 A    
C37   C39   1.419420 A    
C7    C29   1.393371 A    
C11   C13   1.391290 A    
C58   H26   1.081113 S    
C65   O18   1.325442 A    
C48   H18   1.083828 S    
C41   C51   1.420429 A    
C47   H17   1.083828 S    
O2    C4    1.327449 A    
N4    O27   1.301416 A    
C34   Cl2   1.770798 S    
C2    O7    1.344087 A    
C12   H12   1.082814 S    
O15   V3    2.001606 S    
C23   C25   1.397482 A    
O5    C3    1.330927 A    
O13   C65   1.325288 A    
C33   Cl1   1.770787 S    
C48   C50   1.400065 A    
C38   N2    1.434677 S    
C23   N3    1.437900 S    
C16   C20   1.435923 A    
C2    C35   1.507564 S    
C19   C21   1.426510 A    
C5    C29   1.393743 A    
C46   H16   1.081355 S    
C60   C62   1.410200 A    
C24   N4    1.437754 S    
C37   N1    1.434677 S    
O20   V3    1.754162 S    
C34   C36   1.424899 A    
C62   C67   1.486971 S    
C35   C37   1.422734 A    
C61   C68   1.486967 S    
C36   C38   1.422732 A    
C26   H14   1.082694 S    
C49   C59   1.404904 A    
C40   C46   1.411640 A    
C18   C26   1.400466 A    
C39   C41   1.415215 A    
O1    C3    1.327441 A    
C15   C17   1.432559 A    
C19   C27   1.428664 A    
C9    C31   1.396891 A    
O15   C67   1.334140 A    
O14   C66   1.325275 A    
C24   C26   1.397406 A    
O1    V2    1.977191 S    
O6    V2    1.992828 S    
C22   C24   1.416963 A    
O14   V4    1.992662 S    
C54   C64   1.405705 A    
O13   V3    1.992607 S    
O16   V4    2.001613 S    
C3    C32   1.488168 S    
C4    C31   1.488180 S    
C6    C30   1.393748 A    
C55   C57   1.394456 A    
C51   C53   1.412891 A    
C42   C52   1.420428 A    
C33   C35   1.424894 A    
C59   C61   1.410201 A    
C46   C48   1.397536 A    
C53   C55   1.396816 A    
C27   H5    1.076828 S    
O5    V1    1.992772 S    
C55   H23   1.083950 S    
C39   C45   1.411639 A    
C5    H3    1.080881 S    
C63   H21   1.084246 S    
C41   C43   1.410884 A    
C16   C18   1.432585 A    
O4    V2    2.001651 S    
C9    H7    1.077809 S    
C43   C57   1.413552 A    
C10   H8    1.077801 S    
O18   V4    1.979593 S    
C14   H10   1.076106 S    
C34   C44   1.413177 A    
O6    C4    1.330919 A    
O19   V4    1.754123 S    
C52   C54   1.412892 A    
C8    C65   1.480778 S    
C5    C21   1.411969 A    
O2    V1    1.977161 S    
C49   C51   1.408873 A    
N1    O22   1.300203 A    
C60   H20   1.084327 S    
C33   C43   1.413176 A    
O12   C68   1.325813 A    
O4    C2    1.352596 A    
C62   C64   1.404829 A    
C56   C58   1.394459 A    
C61   C63   1.404827 A    
N3    O25   1.301283 A    
C8    C28   1.405389 A    
C15   C19   1.435913 A    
C20   C28   1.428652 A    
O11   V4    2.004330 S    
C18   C32   1.427365 A    
C47   C49   1.400064 A    
N2    O24   1.300206 A    
C50   C60   1.404904 A    
C44   C58   1.413551 A    
C45   C47   1.397537 A    
O12   V3    2.004325 S    
C28   H6    1.076833 S    
O16   C68   1.334137 A    
C57   H25   1.081113 S    
O11   C67   1.325817 A    
C6    H4    1.080927 S    
C7    C27   1.405380 A    
C56   H24   1.083950 S    
C50   C52   1.408876 A    
O3    C1    1.352603 A    
N4    O28   1.301850 A    
N1    O21   1.300239 A    
H1    C29   1.083760 S    
C10   C32   1.396894 A    
C9    C11   1.387952 A    
C10   C12   1.387953 A    
C66   O17   1.325458 A    
O17   V3    1.979562 S    
C17   C25   1.400452 A    
C20   C22   1.426488 A    
O7    V1    1.995648 S    
C8    C30   1.393401 A    
C1    O8    1.344084 A    
C21   C23   1.417063 A    
O8    V2    1.995654 S    
C14   C16   1.415203 A    
C59   H19   1.084326 S    
C13   H9    1.076107 S    
C17   C31   1.427381 A    
C7    C66   1.480792 S    
C12   C14   1.391288 A    
C54   C56   1.396818 A    
C1    C36   1.507560 S    
C11   H11   1.082812 S    
C6    C22   1.411952 A    
C53   C63   1.405705 A    
C25   H13   1.082676 S    
C45   H15   1.081353 S    
C13   C15   1.415205 A    
O9    V2    1.755232 S    
N3    O26   1.301657 A    
C42   C44   1.410887 A    
O10   V1    1.755270 S    
O3    V1    2.001646 S    
N2    O23   1.300241 A    
C64   H22   1.084246 S    
H2    C30   1.083766 S    
C38   C40   1.419421 A    
