data_mof_unit_40552.cif
_audit_creation_date              2013-03-05T15:52:56-0500
_audit_creation_method            fapswitch 2.2
_symmetry_space_group_name_H-M    P1
_symmetry_Int_Tables_number       1
_space_group_crystal_system       triclinic
_cell_length_a                    10.834634
_cell_length_b                    10.780234
_cell_length_c                    16.96224
_cell_angle_alpha                 100.056231
_cell_angle_beta                  100.114023
_cell_angle_gamma                 60.613844
_cell_volume                      1690.389456

loop_
_atom_site_label
_atom_site_type_symbol
_atom_site_description
_atom_site_fract_x
_atom_site_fract_y
_atom_site_fract_z
_atom_type_partial_charge
O1    O     O_R   0.749810 0.499790 0.438040 -0.476440
O2    O     O_R   0.477660 0.726260 0.439290 -0.478837
C1    C     C_R   0.348150 0.785496 0.404938 0.561228
O3    O     O_R   0.260150 0.743000 0.412270 -0.499163
O4    O     O_R   0.297740 0.466550 0.394720 -0.465367
C2    C     C_R   0.369236 0.345786 0.357796 0.566851
O5    O     O_R   0.488080 0.253500 0.386430 -0.490202
O6    O     O_R   0.722670 0.303800 0.421940 -0.492425
C3    C     C_R   0.780515 0.371816 0.405106 0.551793
O7    O     O_R   0.751130 0.502220 0.613520 -0.497705
O8    O     O_R   0.478890 0.728510 0.601960 -0.483363
C4    C     C_R   0.358116 0.769708 0.627180 0.536606
O9    O     O_R   0.261470 0.745430 0.587750 -0.523166
O10   O     O_R   0.298970 0.468800 0.557390 -0.488401
C5    C     C_R   0.407565 0.375612 0.600159 0.532831
O11   O     O_R   0.489400 0.255930 0.561910 -0.467223
O12   O     O_R   0.723890 0.306050 0.584610 -0.527497
C6    C     C_R   0.774104 0.380461 0.629432 0.530479
Cr1   Cr    Cr6+3 0.608100 0.610860 0.522250 1.092282
Cr2   Cr    Cr6+3 0.288890 0.599990 0.488420 1.079507
Cr3   Cr    Cr6+3 0.603040 0.289190 0.489390 1.068805
O13   O     O_3   0.500010 0.500010 0.500020 -0.293648
C7    C     C_1   0.343076 0.336173 0.274249 -0.027205
C8    C     C_1   0.331860 0.327172 0.203205 -0.022687
H1    H     H_    0.967579 0.437920 0.359338 0.183031
C9    C     C_R   0.872301 0.318080 0.172660 0.032792
C10   C     C_R   0.807628 0.243706 0.192355 0.006476
C11   C     C_R   0.824329 0.219478 0.273184 0.005651
C12   C     C_R   0.930886 0.375814 0.313876 -0.113537
C13   C     C_R   0.947822 0.368780 0.233946 -0.114514
C14   C     C_R   0.749243 0.172520 0.132964 -0.100522
C15   C     C_R   0.761094 0.044333 0.147885 -0.089181
C16   C     C_R   0.821666 0.994695 0.222897 0.056286
C17   C     C_R   0.831806 0.090970 0.288584 -0.083510
C18   C     C_R   0.857753 0.311319 0.333507 -0.001685
H2    H     H_    0.715769 0.202320 0.072062 0.144845
H3    H     H_    0.009573 0.414724 0.219729 0.174465
H4    H     H_    0.743659 0.974839 0.098099 0.142857
H5    H     H_    0.871025 0.054961 0.347924 0.153183
H6    H     H_    0.099893 0.901045 0.313885 0.170613
C19   C     C_R   0.268602 0.962283 0.187043 -0.001692
C20   C     C_R   0.382461 0.963443 0.244400 -0.017107
C21   C     C_R   0.390812 0.939786 0.326435 -0.007425
C22   C     C_R   0.177631 0.919871 0.294825 -0.124569
C23   C     C_R   0.159865 0.956272 0.217402 -0.130491
C24   C     C_R   0.502559 0.961900 0.222947 -0.118876
C25   C     C_R   0.629890 0.885537 0.268344 0.077960
C26   C     C_R   0.630260 0.906568 0.352081 0.075516
C27   C     C_R   0.502963 0.942897 0.383054 0.035805
C28   C     C_R   0.302474 0.890527 0.345037 0.031013
H7    H     H_    0.512504 0.974476 0.163799 0.195856
H8    H     H_    0.065784 0.966606 0.178553 0.170621
H9    H     H_    0.176670 0.546285 0.681863 0.151511
C29   C     C_R   0.299196 0.276781 0.798941 -0.005443
C30   C     C_R   0.424810 0.176797 0.762303 0.025697
C31   C     C_R   0.477502 0.226206 0.712696 0.025830
C32   C     C_R   0.249915 0.446334 0.706912 -0.142397
C33   C     C_R   0.211416 0.410157 0.769620 -0.142706
C34   C     C_R   0.503766 0.031102 0.777157 -0.090676
C35   C     C_R   0.641207 0.944937 0.755070 -0.098518
C36   C     C_R   0.703005 0.002921 0.718373 -0.075995
C37   C     C_R   0.622306 0.142413 0.697589 -0.060029
C38   C     C_R   0.381627 0.354247 0.677026 -0.014183
H10   H     H_    0.461000 0.983536 0.806995 0.151023
H11   H     H_    0.113746 0.486840 0.795476 0.147568
H12   H     H_    0.701009 0.834777 0.768736 0.124159
H13   H     H_    0.812022 0.938959 0.704096 0.127378
H14   H     H_    0.673705 0.182845 0.668713 0.152914
C39   C     C_1   0.818899 0.342030 0.708813 -0.061016
C40   C     C_1   0.845231 0.313433 0.776640 -0.053286
C41   C     C_1   0.339585 0.809124 0.709558 -0.055993
C42   C     C_1   0.312885 0.836290 0.777692 -0.061998
O14   O     O_R   0.171100 0.914680 0.053100 -0.489667
O15   O     O_R   0.941680 0.184840 0.050710 -0.535266
C43   C     C_R   0.901180 0.307057 0.090865 0.538791
O16   O     O_R   0.922080 0.403420 0.072610 -0.479024
O17   O     O_R   0.196880 0.369150 0.083850 -0.477355
C44   C     C_R   0.319465 0.300583 0.119711 0.561705
O18   O     O_R   0.411730 0.181020 0.091530 -0.544829
O19   O     O_R   0.365010 0.944360 0.063320 -0.496959
C45   C     C_R   0.255314 0.963211 0.096985 0.564155
O20   O     O_R   0.159380 0.906670 0.876210 -0.494455
O21   O     O_R   0.930820 0.177420 0.886730 -0.495317
C46   C     C_R   0.885549 0.297594 0.859276 0.550701
O22   O     O_R   0.910360 0.395420 0.895720 -0.512105
O23   O     O_R   0.186010 0.361730 0.919870 -0.487697
C47   C     C_R   0.279300 0.252966 0.876951 0.542477
O24   O     O_R   0.400000 0.173010 0.914630 -0.513188
O25   O     O_R   0.354140 0.936940 0.899340 -0.525552
C48   C     C_R   0.278890 0.884101 0.857633 0.556847
Cr4   Cr    Cr6+3 0.053960 0.052250 0.967380 1.018248
Cr5   Cr    Cr6+3 0.059890 0.373160 0.992710 1.054829
Cr6   Cr    Cr6+3 0.373370 0.061690 0.991710 1.001023
O26   O     O_3   0.162410 0.162370 0.983930 -0.306732
I1    I     I_    0.681194 0.675501 0.217700 -0.317959
C49   C     C_2   0.763112 0.882626 0.403873 0.594037
O27   O     O_2   0.870463 0.766872 0.396983 -0.489307
O28   O     O_R   0.765710 0.992395 0.460724 -0.658892
H15   H     H_    0.862646 0.963214 0.492484 0.320119
C50   C     C_2   0.484398 0.980908 0.470720 0.627279
O29   O     O_2   0.586009 0.931457 0.521700 -0.482702
O30   O     O_R   0.347906 0.070591 0.494653 -0.703018
H16   H     H_    0.347494 0.086458 0.555346 0.340282
I2    I     I_    0.953902 0.769015 0.220821 -0.345222

loop_
_geom_bond_atom_site_label_1
_geom_bond_atom_site_label_2
_geom_bond_distance
_ccdc_geom_bond_type
C30   C31   1.393301 A    
O17   Cr5   1.936297 S    
Cr6   O26   1.982224 S    
C30   C34   1.416361 A    
C16   I2    2.130698 S    
C19   C20   1.434524 A    
C29   C30   1.422584 A    
C47   O24   1.286172 A    
O4    Cr2   1.929843 S    
O17   C44   1.261034 A    
O8    Cr1   1.928708 S    
C9    C10   1.404461 A    
O11   Cr3   2.068066 S    
O18   Cr6   2.052143 S    
C14   H2    1.082526 S    
C29   C47   1.461653 S    
C5    O11   1.287917 A    
O12   C6    1.259973 A    
C20   C24   1.403140 A    
O14   C45   1.324489 A    
C24   C25   1.381163 A    
C1    C28   1.494837 S    
O21   C46   1.281651 A    
C11   C18   1.423467 A    
O6    C3    1.264475 A    
C49   O28   1.398436 S    
C7    C8    1.181376 T    
C15   H4    1.082583 S    
C40   C46   1.407155 S    
C36   C37   1.391614 A    
C6    C39   1.410025 S    
C11   C17   1.415197 A    
C34   C35   1.391979 A    
Cr3   O13   1.970166 S    
O30   H16   1.014151 S    
C50   O30   1.398978 S    
O22   Cr5   2.051614 S    
C32   C38   1.402489 A    
H1    C12   1.083600 S    
O1    Cr1   2.049425 S    
O15   C43   1.271442 A    
C10   C14   1.409445 A    
C17   H5    1.081078 S    
C25   C26   1.398303 A    
O10   Cr2   1.939599 S    
Cr1   O13   2.000664 S    
O1    C3    1.292956 A    
C46   O22   1.248485 A    
O14   Cr4   2.045008 S    
H9    C32   1.083320 S    
C44   O18   1.255901 A    
C21   C27   1.420861 A    
C23   H8    1.078872 S    
O5    Cr3   2.054534 S    
C24   H7    1.066006 S    
O12   Cr3   1.935056 S    
O20   Cr4   2.042718 S    
C13   H3    1.083823 S    
C35   C36   1.385464 A    
O15   Cr4   1.926841 S    
C43   O16   1.262575 A    
C12   C13   1.383976 A    
C42   C48   1.408896 S    
C36   H13   1.082632 S    
C33   H11   1.083256 S    
C14   C15   1.388085 A    
O7    Cr1   2.044340 S    
C19   C45   1.510317 S    
C49   O27   1.223133 D    
Cr5   O26   1.970394 S    
O6    Cr3   1.948813 S    
C34   H10   1.067679 S    
C31   C38   1.419218 A    
C19   C23   1.398923 A    
O16   Cr5   2.061780 S    
C8    C44   1.391107 S    
C26   C27   1.408607 A    
C4    C41   1.407412 S    
Cr2   O13   1.982199 S    
C9    C13   1.410896 A    
C31   C37   1.418667 A    
C20   C21   1.437566 A    
C1    O3    1.274606 A    
C22   C23   1.390251 A    
C29   C33   1.400291 A    
C22   C28   1.387311 A    
O24   Cr6   2.062291 S    
C5    C38   1.459140 S    
C26   C49   1.476741 S    
O9    Cr2   2.044843 S    
O2    Cr1   1.926807 S    
O23   C47   1.312885 A    
O19   C45   1.319373 A    
O8    C4    1.285473 A    
C21   C28   1.400341 A    
C2    O5    1.255223 A    
O21   Cr4   1.925901 S    
C12   C18   1.391527 A    
O20   C48   1.281596 A    
C37   H14   1.071727 S    
C15   C16   1.391343 A    
O2    C1    1.296021 A    
O19   Cr6   1.941925 S    
C41   C42   1.192140 T    
O23   Cr5   1.945121 S    
C27   C50   1.493641 S    
C32   C33   1.384857 A    
O4    C2    1.258226 A    
O7    C6    1.279529 A    
C2    C7    1.391341 S    
C50   O29   1.222547 D    
C16   C17   1.412697 A    
O25   Cr6   1.931666 S    
C39   C40   1.192609 T    
C35   H12   1.082634 S    
O3    Cr2   2.055532 S    
H6    C22   1.068370 S    
C4    O9    1.254652 A    
C9    C43   1.447543 S    
O28   H15   1.014135 S    
C10   C11   1.404380 A    
C3    C18   1.464689 S    
C25   I1    2.104036 S    
O10   C5    1.309422 A    
O25   C48   1.265753 A    
Cr4   O26   2.001351 S    
