data_mof_unit_47487.cif
_audit_creation_date              2012-10-26T20:01:47-0400
_audit_creation_method            fapswitch 2.2
_symmetry_space_group_name_H-M    P1
_symmetry_Int_Tables_number       1
_space_group_crystal_system       triclinic
_cell_length_a                    11.691749
_cell_length_b                    10.856749
_cell_length_c                    9.644573
_cell_angle_alpha                 91.123982
_cell_angle_beta                  90.444513
_cell_angle_gamma                 94.087288
_cell_volume                      1220.82784433

loop_
_atom_site_label
_atom_site_type_symbol
_atom_type_description
_atom_site_fract_x
_atom_site_fract_y
_atom_site_fract_z
_atom_type_partial_charge
Br1   Br    Br    0.344104 0.778074 0.808914 -0.441871
Br2   Br    Br    0.291616 0.339159 0.149023 -0.428629
C1    C     C_R   0.507240 0.262647 0.498646 0.542629
C2    C     C_R   0.475807 0.869580 0.506809 0.009974
C3    C     C_R   0.672844 0.637217 0.152591 -0.108593
C4    C     C_R   0.284226 0.499636 0.499604 0.575119
C5    C     C_R   0.779802 0.663146 0.095602 -0.067088
C6    C     C_R   0.792449 0.647560 0.953446 -0.066724
C7    C     C_R   0.692811 0.625957 0.870619 -0.005837
C8    C     C_R   0.590044 0.565503 0.929016 0.114639
C9    C     C_R   0.586127 0.567285 0.078219 0.099986
C10   C     C_R   0.416571 0.436471 0.069279 0.286401
C11   C     C_R   0.416715 0.437844 0.922578 0.067988
C12   C     C_R   0.596731 0.061347 0.861684 -0.117899
C13   C     C_R   0.488384 0.736042 0.501868 0.575006
C14   C     C_R   0.715743 0.500015 0.500384 0.537253
C15   C     C_1   0.162471 0.500225 0.499052 0.047158
C16   C     C_1   0.059938 0.500602 0.499607 0.022024
C17   C     C_1   0.940084 0.500683 0.500645 0.003465
C18   C     C_1   0.837525 0.500449 0.501062 0.003085
C19   C     C_R   0.593785 0.120967 0.735271 -0.085887
C20   C     C_1   0.484929 0.108606 0.237529 0.259914
C21   C     C_1   0.904078 0.674427 0.890932 0.230996
C22   C     C_1   0.696400 0.708799 0.755232 0.274815
C23   C     C_R   0.528901 0.952296 0.880037 -0.069147
C24   C     C_1   0.873426 0.712276 0.183927 0.221789
C25   C     C_R   0.470831 0.894118 0.766868 0.194277
C26   C     C_R   0.489777 0.940855 0.631711 0.050613
C27   C     C_R   0.532112 0.065009 0.621293 -0.003557
C28   C     C_R   0.514128 0.127304 0.496122 -0.019958
C29   C     C_R   0.488402 0.056414 0.373613 -0.033403
C30   C     C_R   0.473439 0.929127 0.379832 -0.153297
Cu1   Cu    Cu3+1 0.499990 0.499990 0.640660 1.004130
Cu2   Cu    Cu3+1 0.500010 0.500010 0.359340 1.022373
H1    H     H_    0.348925 0.386282 0.864743 0.157100
H2    H     H_    0.643220 0.208499 0.726189 0.146790
H3    H     H_    0.645708 0.104020 0.947703 0.145194
H4    H     H_    0.519334 0.914534 0.982717 0.138525
H5    H     H_    0.461542 0.876015 0.283621 0.148841
H6    H     H_    0.662155 0.669283 0.256510 0.187780
N1    N     N_R   0.501070 0.501210 0.147910 -0.232825
N2    N     N_R   0.501110 0.501290 0.852040 -0.256525
N3    N     N_1   0.482713 0.149841 0.128075 -0.272993
N4    N     N_1   0.992852 0.695666 0.841082 -0.215408
N5    N     N_1   0.708208 0.778213 0.665914 -0.301322
N6    N     N_1   0.948280 0.751513 0.254689 -0.247428
O1    O     O_R   0.499990 0.319640 0.618810 -0.515019
O2    O     O_R   0.500000 0.319660 0.381240 -0.460849
O3    O     O_R   0.337190 0.500000 0.618790 -0.482327
O4    O     O_R   0.337200 0.500030 0.381210 -0.449133
O5    O     O_R   0.500000 0.680340 0.618760 -0.460621
O6    O     O_R   0.500010 0.680360 0.381190 -0.539839
O7    O     O_R   0.662800 0.499970 0.618790 -0.512238
O8    O     O_R   0.662810 0.500000 0.381210 -0.519448

loop_
_geom_bond_atom_site_label_1
_geom_bond_atom_site_label_2
_ccdc_geom_bond_type
C1    C28   S    
C7    C22   S    
Cu2   O8    S    
C10   N1    A    
C13   O5    A    
C23   H4    S    
Cu1   O5    S    
C27   C28   A    
C7    C8    A    
Cu2   O6    S    
C17   C18   T    
C14   C18   S    
Br2   C10   S    
C2    C13   S    
C15   C16   T    
C5    C6    A    
C12   C23   A    
C19   H2    S    
C13   O6    A    
C4    O4    A    
C12   H3    S    
C3    C9    A    
C5    C24   S    
C2    C30   A    
Cu2   N1    S    
C22   N5    T    
C12   C19   A    
C1    O1    A    
C26   C27   A    
C2    C26   A    
Cu1   Cu2   S    
C11   H1    S    
C4    O3    A    
Cu1   O7    S    
C28   C29   A    
Cu1   O1    S    
C14   O8    A    
Cu2   O4    S    
C8    N2    A    
C8    C9    A    
Cu1   N2    S    
Cu1   O3    S    
C1    O2    A    
C6    C21   S    
Cu2   O2    S    
C10   C11   A    
C3    C5    A    
C16   C17   S    
C20   C29   S    
C30   H5    S    
C25   C26   A    
Br1   C25   S    
C4    C15   S    
C24   N6    T    
C14   O7    A    
C11   N2    A    
C3    H6    S    
C19   C27   A    
C20   N3    T    
C21   N4    T    
C29   C30   A    
C9    N1    A    
C6    C7    A    
C23   C25   A    
