data_mof_unit_41401.cif
_audit_creation_date              2013-03-05T16:12:49-0500
_audit_creation_method            fapswitch 2.2
_symmetry_space_group_name_H-M    P1
_symmetry_Int_Tables_number       1
_space_group_crystal_system       triclinic
_cell_length_a                    25.916647
_cell_length_b                    6.889149
_cell_length_c                    21.640672
_cell_angle_alpha                 89.999303
_cell_angle_beta                  96.293012
_cell_angle_gamma                 90.000759
_cell_volume                      3840.52240624

loop_
_atom_site_label
_atom_site_type_symbol
_atom_site_description
_atom_site_fract_x
_atom_site_fract_y
_atom_site_fract_z
_atom_type_partial_charge
O1    O     O_R   0.208650 0.594520 0.175450 -0.587028
O2    O     O_R   0.791350 0.405480 0.824550 -0.587026
O3    O     O_R   0.291350 0.094520 0.324550 -0.587023
O4    O     O_R   0.708650 0.905480 0.675450 -0.587025
O5    O     O_R   0.192980 0.260780 0.300160 -0.557574
O6    O     O_R   0.807020 0.739220 0.699840 -0.557576
O7    O     O_R   0.307020 0.760780 0.199840 -0.557579
O8    O     O_R   0.692980 0.239220 0.800160 -0.557578
C1    C     C_R   0.179521 0.433434 0.319489 0.938528
C2    C     C_R   0.820479 0.566566 0.680511 0.938530
C3    C     C_R   0.320478 0.933437 0.180511 0.938531
C4    C     C_R   0.679521 0.066563 0.819489 0.938529
O9    O     O_R   0.202550 0.264660 0.174420 -0.604718
O10   O     O_R   0.797450 0.735340 0.825580 -0.604717
O11   O     O_R   0.297450 0.764660 0.325580 -0.604720
O12   O     O_R   0.702550 0.235340 0.674420 -0.604714
O13   O     O_R   0.300990 0.096480 0.197920 -0.563577
O14   O     O_R   0.699010 0.903520 0.802080 -0.563575
O15   O     O_R   0.199010 0.596480 0.302080 -0.563577
O16   O     O_R   0.800990 0.403520 0.697920 -0.563574
C5    C     C_R   0.191287 0.431920 0.150452 0.974936
C6    C     C_R   0.808713 0.568080 0.849548 0.974928
C7    C     C_R   0.308713 0.931920 0.349548 0.974926
C8    C     C_R   0.691287 0.068080 0.650452 0.974934
O17   O     O_3   0.282290 0.427760 0.257860 -0.254313
O18   O     O_3   0.717710 0.572240 0.742140 -0.254309
O19   O     O_3   0.217710 0.927760 0.242140 -0.254309
O20   O     O_3   0.782290 0.072240 0.757860 -0.254308
V1    V     V_3+5 0.244010 0.152080 0.248540 1.232642
V2    V     V_3+5 0.755990 0.847920 0.751460 1.232644
V3    V     V_3+5 0.255990 0.652080 0.251460 1.232634
V4    V     V_3+5 0.744010 0.347920 0.748540 1.232642
C9    C     C_R   0.657351 0.076215 0.590550 -0.143672
C10   C     C_R   0.342644 0.923783 0.409454 -0.143687
C11   C     C_R   0.842645 0.576219 0.909453 -0.143688
C12   C     C_R   0.157352 0.423778 0.090549 -0.143678
C13   C     C_R   0.632964 0.278076 0.500382 -0.206603
C14   C     C_R   0.367023 0.721939 0.499628 -0.206566
C15   C     C_R   0.867027 0.778069 0.999624 -0.206566
C16   C     C_R   0.132958 0.221882 0.000392 -0.206601
C17   C     C_R   0.669676 0.214914 0.547474 -0.057905
C18   C     C_R   0.330318 0.785066 0.452524 -0.057861
C19   C     C_R   0.830320 0.714931 0.952523 -0.057877
C20   C     C_R   0.169672 0.285048 0.047482 -0.057873
C21   C     C_R   0.608139 0.988082 0.582175 -0.257903
C22   C     C_R   0.391851 0.011947 0.417842 -0.257839
C23   C     C_R   0.891854 0.488067 0.917838 -0.257854
C24   C     C_R   0.108143 0.511933 0.082168 -0.257911
C25   C     C_R   0.569918 0.045865 0.532540 0.113898
C26   C     C_R   0.430066 0.954190 0.467486 0.113885
C27   C     C_R   0.930070 0.545829 0.967480 0.113895
C28   C     C_R   0.069920 0.454143 0.032536 0.113854
C29   C     C_R   0.581973 0.204014 0.494141 0.055775
C30   C     C_R   0.418009 0.796054 0.505889 0.055663
C31   C     C_R   0.918014 0.703965 0.005884 0.055701
C32   C     C_R   0.081971 0.295976 0.994143 0.055783
C33   C     C_R   0.519378 0.959246 0.522215 0.011390
C34   C     C_R   0.480604 0.040828 0.477818 0.011362
C35   C     C_R   0.980606 0.459189 0.977813 0.011348
C36   C     C_R   0.019383 0.540781 0.022206 0.011380
C37   C     C_R   0.492718 0.210299 0.446138 -0.220110
C38   C     C_R   0.507261 0.789797 0.553903 -0.220008
C39   C     C_R   0.007268 0.710246 0.053890 -0.220011
C40   C     C_R   0.992717 0.289709 0.946136 -0.220113
C41   C     C_R   0.542633 0.291784 0.452536 0.165663
C42   C     C_R   0.457342 0.708349 0.547517 0.165689
C43   C     C_R   0.957348 0.791672 0.047516 0.165628
C44   C     C_R   0.042631 0.208231 0.952531 0.165709
H1    H     H_    0.400736 0.110859 0.381868 0.113654
H2    H     H_    0.599257 0.889173 0.618152 0.113658
H3    H     H_    0.099265 0.610867 0.118139 0.113668
H4    H     H_    0.900738 0.389158 0.881863 0.113658
H5    H     H_    0.293064 0.712515 0.446599 0.164788
H6    H     H_    0.706934 0.287431 0.553387 0.164796
H7    H     H_    0.206927 0.212511 0.053400 0.164786
H8    H     H_    0.793066 0.787472 0.946600 0.164785
H9    H     H_    0.644792 0.392459 0.470798 0.128391
H10   H     H_    0.355194 0.607534 0.529202 0.128382
H11   H     H_    0.855198 0.892474 0.029198 0.128380
H12   H     H_    0.144783 0.107470 0.970818 0.128383
H13   H     H_    0.462739 0.283538 0.417035 0.154708
H14   H     H_    0.537240 0.716550 0.583002 0.154700
H15   H     H_    0.037250 0.783518 0.082982 0.154697
H16   H     H_    0.962737 0.216462 0.917036 0.154716
C45   C     C_R   0.439689 0.814733 0.097805 -0.138364
C46   C     C_R   0.560310 0.185270 0.902192 -0.138366
C47   C     C_R   0.060309 0.314726 0.402195 -0.138375
C48   C     C_R   0.939689 0.685279 0.597803 -0.138366
H17   H     H_    0.468674 0.701088 0.099127 0.124265
H18   H     H_    0.531325 0.298916 0.900870 0.124267
H19   H     H_    0.031323 0.201081 0.400874 0.124266
H20   H     H_    0.968674 0.798927 0.599123 0.124266
C49   C     C_R   0.400076 0.802402 0.137183 -0.121843
C50   C     C_R   0.599924 0.197599 0.862816 -0.121836
C51   C     C_R   0.099923 0.302395 0.362818 -0.121844
C52   C     C_R   0.900075 0.697608 0.637180 -0.121840
H21   H     H_    0.399817 0.679661 0.168383 0.167992
H22   H     H_    0.600183 0.320340 0.831616 0.168000
H23   H     H_    0.100182 0.179653 0.331620 0.167999
H24   H     H_    0.899816 0.820351 0.668378 0.168001
C53   C     C_R   0.361975 0.948543 0.137377 -0.305094
C54   C     C_R   0.638024 0.051457 0.862622 -0.305098
C55   C     C_R   0.138025 0.448537 0.362623 -0.305097
C56   C     C_R   0.861975 0.551463 0.637376 -0.305099
C57   C     C_R   0.364499 0.108018 0.095738 0.374596
C58   C     C_R   0.635498 0.891982 0.904260 0.374594
C59   C     C_R   0.135500 0.608014 0.404259 0.374598
C60   C     C_R   0.864500 0.391985 0.595740 0.374596
C61   C     C_R   0.404171 0.117369 0.056498 -0.234421
C62   C     C_R   0.595827 0.882632 0.943500 -0.234421
C63   C     C_R   0.095828 0.617366 0.443499 -0.234420
C64   C     C_R   0.904172 0.382635 0.556500 -0.234419
H25   H     H_    0.405604 0.239888 0.025269 0.156663
H26   H     H_    0.594393 0.760112 0.974728 0.156664
H27   H     H_    0.094395 0.739887 0.474726 0.156664
H28   H     H_    0.905605 0.260113 0.525273 0.156665
C65   C     C_R   0.442009 0.973051 0.057469 0.105715
C66   C     C_R   0.557989 0.026951 0.942529 0.105714
C67   C     C_R   0.057989 0.473047 0.442529 0.105715
C68   C     C_R   0.942010 0.526957 0.557469 0.105713
C69   C     C_1   0.483032 0.990894 0.017040 -0.028306
C70   C     C_1   0.516965 0.009110 0.982957 -0.028306
C71   C     C_1   0.016966 0.490893 0.482957 -0.028308
C72   C     C_1   0.983033 0.509112 0.517041 -0.028307
C73   C     C_3   0.554120 0.478073 0.417814 -0.343140
C74   C     C_3   0.508235 0.575693 0.379265 -0.904604
H29   H     H_    0.492117 0.479268 0.340760 0.255312
H30   H     H_    0.477587 0.614604 0.409103 0.262434
H31   H     H_    0.521671 0.711640 0.358542 0.257879
H32   H     H_    0.570484 0.587197 0.452441 0.197808
H33   H     H_    0.583832 0.445549 0.385958 0.194124
C75   C     C_3   0.445843 0.522180 0.582287 -0.343130
C76   C     C_3   0.491704 0.424786 0.620939 -0.904820
H34   H     H_    0.522367 0.385581 0.591161 0.262438
H35   H     H_    0.507811 0.521469 0.659375 0.255367
H36   H     H_    0.478246 0.289045 0.641754 0.257919
H37   H     H_    0.416096 0.554800 0.614085 0.194153
H38   H     H_    0.429519 0.412911 0.547690 0.197812
C77   C     C_3   0.945843 0.977792 0.082316 -0.343062
C78   C     C_3   0.991697 0.075154 0.121006 -0.904547
H39   H     H_    0.007823 0.978314 0.159400 0.255315
H40   H     H_    0.022349 0.114617 0.091229 0.262393
H41   H     H_    0.978221 0.210765 0.141902 0.257841
H42   H     H_    0.929524 0.087129 0.047733 0.197787
H43   H     H_    0.916089 0.945082 0.114104 0.194119
C79   C     C_3   0.054121 0.022002 0.917785 -0.343157
C80   C     C_3   0.008247 0.924494 0.879190 -0.904702
H44   H     H_    0.977597 0.885399 0.909003 0.262442
H45   H     H_    0.992125 0.021064 0.840727 0.255332
H46   H     H_    0.021696 0.788674 0.858406 0.257897
H47   H     H_    0.083849 0.054578 0.885954 0.194140
H48   H     H_    0.070468 0.912801 0.952395 0.197813
N1    N     N_R   0.326702 0.260350 0.090955 0.217109
O21   O     O_R   0.329530 0.394714 0.133365 -0.402302
O22   O     O_R   0.301484 0.297672 0.036948 -0.436804
N2    N     N_R   0.673295 0.739646 0.909044 0.217107
O23   O     O_R   0.670467 0.605287 0.866632 -0.402301
O24   O     O_R   0.698510 0.702314 0.963051 -0.436808
N3    N     N_R   0.173297 0.760349 0.409042 0.217107
O25   O     O_R   0.170469 0.894713 0.366632 -0.402300
O26   O     O_R   0.198514 0.797673 0.463049 -0.436811
N4    N     N_R   0.826704 0.239644 0.590959 0.217106
O27   O     O_R   0.829533 0.105290 0.633373 -0.402301
O28   O     O_R   0.801491 0.202300 0.536952 -0.436816

loop_
_geom_bond_atom_site_label_1
_geom_bond_atom_site_label_2
_geom_bond_distance
_ccdc_geom_bond_type
O17   V3    1.688572 S    
C57   N1    1.431581 S    
C48   C52   1.406836 A    
O1    C5    1.302523 A    
C74   H29   1.110781 S    
C47   H19   1.083230 S    
O19   V1    1.688559 S    
O13   V1    1.970315 S    
O3    C7    1.302523 A    
C80   H44   1.110000 S    
C10   C18   1.396156 A    
C78   H41   1.110821 S    
C56   C60   1.426940 A    
C11   C23   1.406222 A    
C11   C19   1.396156 A    
C62   C66   1.395025 A    
C61   C65   1.395025 A    
C71   C72   1.214654 T    
C5    C12   1.485668 S    
O7    C3    1.320381 A    
C6    C11   1.485668 S    
O5    C1    1.320385 A    
C26   C30   1.425500 A    
C36   C39   1.406743 A    
C40   C44   1.402996 A    
O9    V1    1.987733 S    
N2    O23   1.299925 A    
C80   H45   1.110749 S    
C78   H40   1.110154 S    
C14   C18   1.385846 A    
C58   C62   1.404910 A    
O4    C8    1.302518 A    
C51   H23   1.082548 S    
C50   H22   1.082547 S    
C75   H38   1.112101 S    
O1    V3    1.981367 S    
C9    C21   1.406232 A    
O2    V4    1.981362 S    
C66   C70   1.454242 S    
O3    V1    1.981362 S    
C65   C69   1.454244 S    
O12   V4    1.987737 S    
C40   H16   1.071295 S    
C22   H1    1.078293 S    
C46   C50   1.406834 A    
C17   H6    1.082246 S    
C45   C49   1.406832 A    
C73   H32   1.112152 S    
C1    O15   1.304001 A    
C15   C31   1.409200 A    
C48   H20   1.083229 S    
C2    O16   1.304000 A    
C75   C76   1.531210 S    
C16   C32   1.409201 A    
C47   C51   1.406836 A    
O2    C6    1.302522 A    
C76   H36   1.110626 S    
N3    O26   1.300662 A    
C54   C58   1.426936 A    
C10   C22   1.406228 A    
C21   C25   1.435326 A    
C48   C68   1.402378 A    
C43   C77   1.532777 S    
C62   H26   1.084443 S    
C16   C20   1.385848 A    
N4    O28   1.300670 A    
C1    C55   1.502943 S    
C13   C29   1.409196 A    
C34   C37   1.406712 A    
O11   C7    1.284054 A    
C38   H14   1.071264 S    
O15   V3    1.970297 S    
C35   C36   1.427311 A    
O12   C8    1.284054 A    
O17   V1    2.141958 S    
C47   C67   1.402378 A    
O10   V2    1.987730 S    
C51   C55   1.410535 A    
C67   C71   1.454245 S    
O5    V1    1.970195 S    
C53   C57   1.426935 A    
C39   C43   1.403008 A    
O7    V3    1.970173 S    
C38   C42   1.403008 A    
O19   V3    2.141977 S    
C26   C34   1.434393 A    
C33   C38   1.406684 A    
C80   H46   1.110704 S    
C78   H39   1.110842 S    
C46   C66   1.402376 A    
C46   H18   1.083230 S    
C49   C53   1.410536 A    
C64   C68   1.395023 A    
C45   H17   1.083231 S    
O18   V4    1.688574 S    
C15   C19   1.385861 A    
C14   H10   1.080635 S    
C74   H31   1.110737 S    
C75   H37   1.111165 S    
C32   C44   1.419341 A    
C60   N4    1.431581 S    
C60   C64   1.404910 A    
C39   H15   1.071306 S    
C15   H11   1.080638 S    
C20   H7    1.082253 S    
N2    O24   1.300665 A    
C4    C54   1.502938 S    
C63   H27   1.084443 S    
C77   H42   1.112186 S    
C73   H33   1.111210 S    
C31   C43   1.419381 A    
N3    O25   1.299922 A    
C14   C30   1.409204 A    
O20   V4    2.141975 S    
O8    C4    1.320382 A    
C7    C10   1.485669 S    
C59   N3    1.431578 S    
C16   H12   1.080649 S    
C35   C40   1.406722 A    
O9    C5    1.284049 A    
C3    C53   1.502938 S    
C45   C65   1.402375 A    
C69   C70   1.214652 T    
C79   H48   1.112138 S    
C63   C67   1.395021 A    
O6    V2    1.970197 S    
O18   V2    2.141958 S    
C58   N2    1.431580 S    
C52   C56   1.410537 A    
C76   H34   1.109957 S    
C12   C20   1.396163 A    
N1    O22   1.300665 A    
C24   H3    1.078295 S    
C49   H21   1.082546 S    
C64   H28   1.084443 S    
C44   C79   1.532711 S    
C79   C80   1.531230 S    
O16   V4    1.970300 S    
C19   H8    1.082248 S    
C57   C61   1.404912 A    
C77   H43   1.111261 S    
C18   H5    1.082250 S    
C74   H30   1.110026 S    
C21   H2    1.078302 S    
C59   C63   1.404909 A    
C3    O13   1.304002 A    
O6    C2    1.320386 A    
C25   C33   1.434392 A    
C23   C27   1.435325 A    
C77   C78   1.531359 S    
O11   V3    1.987735 S    
C30   C42   1.419326 A    
C61   H25   1.084442 S    
N4    O27   1.299924 A    
C22   C26   1.435320 A    
C8    C9    1.485664 S    
C42   C75   1.532649 S    
C9    C17   1.396163 A    
O10   C6    1.284049 A    
C2    C56   1.502943 S    
C37   H13   1.071271 S    
C33   C34   1.427298 A    
C73   C74   1.531294 S    
O8    V4    1.970173 S    
C13   H9    1.080642 S    
C29   C41   1.419339 A    
C25   C29   1.425506 A    
C52   H24   1.082547 S    
O20   V2    1.688558 S    
C12   C24   1.406235 A    
C27   C31   1.425524 A    
C13   C17   1.385861 A    
C23   H4    1.078297 S    
C68   C72   1.454246 S    
O14   V2    1.970310 S    
C79   H47   1.111197 S    
C37   C41   1.403019 A    
C24   C28   1.435325 A    
C27   C35   1.434386 A    
C50   C54   1.410537 A    
C28   C36   1.434398 A    
C4    O14   1.304005 A    
C76   H35   1.110698 S    
C55   C59   1.426938 A    
N1    O21   1.299924 A    
O4    V2    1.981367 S    
C28   C32   1.425512 A    
C41   C73   1.532735 S    
