data_mof_unit_52504.cif
_audit_creation_date              2012-12-11T16:23:21-0500
_audit_creation_method            fapswitch 2.2
_symmetry_space_group_name_H-M    P1
_symmetry_Int_Tables_number       1
_space_group_crystal_system       triclinic
_cell_length_a                    20.073847
_cell_length_b                    7.230626
_cell_length_c                    19.718234
_cell_angle_alpha                 89.036729
_cell_angle_beta                  99.21214
_cell_angle_gamma                 91.148081
_cell_volume                      2824.283317

loop_
_atom_site_label
_atom_site_type_symbol
_atom_type_description
_atom_site_fract_x
_atom_site_fract_y
_atom_site_fract_z
_atom_type_partial_charge
O1    O     O_R   0.188410 0.619490 0.310050 -0.530107
O2    O     O_R   0.811590 0.380510 0.689950 -0.542041
O3    O     O_R   0.311590 0.119490 0.189950 -0.537479
O4    O     O_R   0.688410 0.880510 0.810050 -0.536006
O5    O     O_R   0.327280 0.288800 0.321740 -0.533089
O6    O     O_R   0.672720 0.711200 0.678260 -0.537748
O7    O     O_R   0.172720 0.788800 0.178260 -0.529698
O8    O     O_R   0.827280 0.211200 0.821740 -0.531249
C1    C     C_R   0.351786 0.459104 0.338264 0.733657
C2    C     C_R   0.648146 0.540995 0.661800 0.735813
C3    C     C_R   0.148099 0.958387 0.161839 0.752230
C4    C     C_R   0.852286 0.041640 0.837660 0.745513
O9    O     O_R   0.189900 0.289710 0.318190 -0.515964
O10   O     O_R   0.810100 0.710290 0.681810 -0.515664
O11   O     O_R   0.310100 0.789710 0.181810 -0.527877
O12   O     O_R   0.689900 0.210290 0.818190 -0.498798
O13   O     O_R   0.173230 0.120350 0.186370 -0.537454
O14   O     O_R   0.826770 0.879650 0.813630 -0.533262
O15   O     O_R   0.326770 0.620350 0.313630 -0.535682
O16   O     O_R   0.673230 0.379650 0.686370 -0.537050
C5    C     C_R   0.170583 0.455517 0.334616 0.695674
C6    C     C_R   0.830711 0.544621 0.666546 0.688063
C7    C     C_R   0.328758 0.960051 0.164321 0.715429
C8    C     C_R   0.670661 0.040047 0.834489 0.712410
O17   O     O_3   0.244690 0.453290 0.206760 -0.378011
O18   O     O_3   0.755310 0.546710 0.793240 -0.364397
O19   O     O_3   0.255310 0.953290 0.293240 -0.357365
O20   O     O_3   0.744690 0.046710 0.706760 -0.378120
V1    V     V_3+5 0.250980 0.178070 0.258020 1.553449
V2    V     V_3+5 0.749020 0.821930 0.741980 1.541682
V3    V     V_3+5 0.249020 0.678070 0.241980 1.531552
V4    V     V_3+5 0.750980 0.321930 0.758020 1.546463
C9    C     C_R   0.461650 0.152560 0.061696 0.030683
C10   C     C_R   0.502882 0.974533 0.897799 0.007399
C11   C     C_R   0.042089 0.636501 0.434499 -0.037743
C12   C     C_R   0.969946 0.363823 0.579390 0.021020
C13   C     C_R   0.416467 0.132262 0.109360 -0.126131
C14   C     C_R   0.553980 0.977074 0.856286 -0.177304
C15   C     C_R   0.077065 0.602035 0.380294 -0.143064
C16   C     C_R   0.925605 0.391041 0.626074 -0.198863
H1    H     H_    0.412546 0.244164 0.144287 0.184377
H2    H     H_    0.541013 0.948826 0.801881 0.157953
H3    H     H_    0.077770 0.707225 0.340513 0.183745
H4    H     H_    0.920585 0.283852 0.664198 0.201641
C17   C     C_R   0.375027 0.973382 0.111485 -0.144232
C18   C     C_R   0.620816 0.027786 0.882580 -0.100222
C19   C     C_R   0.123256 0.458281 0.385379 -0.143401
C20   C     C_R   0.882392 0.541332 0.620094 -0.147108
C21   C     C_R   0.379741 0.830700 0.063730 -0.021513
C22   C     C_R   0.637841 0.067395 0.953329 -0.008881
C23   C     C_R   0.129388 0.340661 0.444377 0.011259
C24   C     C_R   0.886839 0.673413 0.567121 -0.008750
C25   C     C_R   0.428927 0.844383 0.020324 -0.124156
C26   C     C_R   0.588094 0.049931 0.995951 -0.126286
C27   C     C_R   0.085510 0.362357 0.492658 -0.082284
C28   C     C_R   0.934810 0.652357 0.523146 -0.141339
H5    H     H_    0.433729 0.732071 0.985817 0.152070
H6    H     H_    0.601815 0.075726 0.050458 0.151544
H7    H     H_    0.094832 0.283687 0.539806 0.106011
H8    H     H_    0.934147 0.751495 0.481550 0.166777
C29   C     C_R   0.469322 0.004296 0.017449 0.031369
C30   C     C_R   0.520193 0.010283 0.969168 0.025427
C31   C     C_R   0.034538 0.495556 0.483568 0.053357
C32   C     C_R   0.980477 0.504052 0.530203 0.021476
C33   C     C_R   0.084643 0.973870 0.111210 -0.123710
C34   C     C_R   0.916238 0.025893 0.887666 -0.122250
C35   C     C_R   0.415326 0.475076 0.388617 -0.117055
C36   C     C_R   0.584574 0.525594 0.611399 -0.119492
C37   C     C_R   0.025455 0.880151 0.925131 -0.192935
C38   C     C_R   0.975640 0.119541 0.073271 -0.177255
C39   C     C_R   0.470562 0.397758 0.576867 -0.185850
C40   C     C_R   0.528924 0.605580 0.423314 -0.178932
C41   C     C_R   0.971023 0.920048 0.872544 -0.034209
C42   C     C_R   0.029895 0.080057 0.125977 -0.036587
C43   C     C_R   0.525872 0.435093 0.628946 -0.034751
C44   C     C_R   0.473097 0.570912 0.371493 -0.040401
C45   C     C_R   0.919348 0.094671 0.954375 -0.206598
C46   C     C_R   0.081984 0.904793 0.044425 -0.217511
C47   C     C_R   0.584602 0.583806 0.542915 -0.223289
C48   C     C_R   0.415684 0.414671 0.456911 -0.217344
C49   C     C_R   0.974067 0.054404 0.006505 0.131713
C50   C     C_R   0.027238 0.944935 0.992081 0.130348
C51   C     C_R   0.528529 0.548043 0.491531 0.133377
C52   C     C_R   0.471541 0.451889 0.508400 0.131934
H9    H     H_    0.123880 0.825797 0.032561 0.146431
H10   H     H_    0.877785 0.173720 0.966429 0.126789
H11   H     H_    0.371257 0.344597 0.470418 0.130680
H12   H     H_    0.629252 0.652425 0.529305 0.135306
H13   H     H_    0.067117 0.799371 0.913720 0.164099
H14   H     H_    0.933934 0.200516 0.084505 0.165904
H15   H     H_    0.425818 0.328218 0.589774 0.172359
H16   H     H_    0.573184 0.677685 0.410379 0.169943
C53   C     C_2   0.497909 0.332921 0.057737 0.794626
O21   O     O_2   0.513054 0.426108 0.109291 -0.550242
O22   O     O_R   0.513121 0.399314 0.994850 -0.646647
H17   H     H_    0.537964 0.523109 0.999036 0.303160
C54   C     C_2   0.431918 0.944389 0.864067 0.771838
O23   O     O_2   0.419585 0.846204 0.813517 -0.529952
O24   O     O_R   0.379252 0.032786 0.888379 -0.642923
H18   H     H_    0.333447 0.001651 0.860790 0.319577
C55   C     C_2   0.051723 0.826758 0.458935 0.830990
O25   O     O_2   0.036623 0.957848 0.419904 -0.529938
O26   O     O_R   0.085576 0.853512 0.525756 -0.655235
H19   H     H_    0.100754 0.985425 0.534998 0.304163
C56   C     C_2   0.988475 0.170388 0.574071 0.764038
O27   O     O_2   0.972436 0.092427 0.519412 -0.541558
O28   O     O_R   0.017100 0.071913 0.632850 -0.638386
H20   H     H_    0.020816 0.935022 0.624298 0.328150
C57   C     C_2   0.331109 0.672564 0.053302 0.787993
O29   O     O_2   0.350715 0.518572 0.042307 -0.558560
O30   O     O_R   0.262281 0.701342 0.052398 -0.665963
H21   H     H_    0.234213 0.583323 0.044204 0.291332
C58   C     C_2   0.706075 0.132990 0.984453 0.739150
O31   O     O_2   0.731821 0.073363 0.040788 -0.536685
O32   O     O_R   0.739083 0.271801 0.951762 -0.653499
H22   H     H_    0.781587 0.319398 0.981531 0.289310
C59   C     C_2   0.184172 0.205804 0.461167 0.732171
O33   O     O_2   0.186581 0.071625 0.424813 -0.530129
O34   O     O_R   0.231083 0.227530 0.521111 -0.661170
H23   H     H_    0.265662 0.125819 0.527896 0.303428
C60   C     C_2   0.840435 0.830307 0.553277 0.808394
O35   O     O_2   0.799333 0.834226 0.500370 -0.548806
O36   O     O_R   0.845789 0.977587 0.598910 -0.629602
H24   H     H_    0.812238 0.078414 0.583004 0.295336
C61   C     C_2   0.027243 0.149154 0.196197 0.777824
O37   O     O_2   0.995591 0.288301 0.203542 -0.543546
O38   O     O_R   0.059443 0.053427 0.254105 -0.656843
H25   H     H_    0.054148 0.115458 0.298598 0.334714
C62   C     C_2   0.973844 0.851782 0.802228 0.777598
O39   O     O_2   0.944105 0.932583 0.751662 -0.542287
O40   O     O_R   0.012119 0.696792 0.793701 -0.659291
H26   H     H_    0.010258 0.664155 0.743601 0.306521
C63   C     C_2   0.477077 0.634940 0.299972 0.783519
O41   O     O_2   0.514942 0.763742 0.290017 -0.538964
O42   O     O_R   0.438795 0.546650 0.243806 -0.662794
H27   H     H_    0.445310 0.605482 0.198249 0.317712
C64   C     C_2   0.519270 0.382782 0.701103 0.769506
O43   O     O_2   0.556111 0.453369 0.749571 -0.551412
O44   O     O_R   0.468805 0.256608 0.713745 -0.651428
H28   H     H_    0.467487 0.237949 0.764570 0.314388

loop_
_geom_bond_atom_site_label_1
_geom_bond_atom_site_label_2
_ccdc_geom_bond_type
O17   V3    S    
C6    C20   S    
O1    C5    A    
C53   O21   D    
C7    C17   S    
C27   H7    S    
O19   V1    S    
O13   V1    S    
O3    C7    A    
O22   H17   S    
C10   C30   A    
C40   C44   A    
O15   V3    S    
C54   O23   D    
O36   H24   S    
C36   C43   A    
O7    C3    A    
C64   O44   S    
C55   O25   D    
O9    V1    S    
C14   H2    S    
C48   H11   S    
C57   O30   S    
C26   H6    S    
C40   H16   S    
C21   C25   A    
C42   C61   S    
O32   H22   S    
O1    V3    S    
C10   C54   S    
O2    V4    S    
O3    V1    S    
C38   C49   A    
C38   C42   A    
C12   C16   A    
C37   C50   A    
C58   O31   D    
C25   C29   A    
C1    O15   A    
O24   H18   S    
C2    O16   A    
C27   C31   A    
O2    C6    A    
O28   H20   S    
C28   C32   A    
C37   C41   A    
O14   V2    S    
C45   C49   A    
C16   H4    S    
C48   C52   A    
C36   C47   A    
O11   C7    A    
C64   O43   D    
O12   C8    A    
C63   O42   S    
C38   H14   S    
O10   V2    S    
C37   H13   S    
C47   H12   S    
C54   O24   S    
C49   C50   A    
O5    V1    S    
C53   O22   S    
C41   C62   S    
C39   C43   A    
O7    V3    S    
O8    V4    S    
O42   H27   S    
C43   C64   S    
C25   H5    S    
O18   V4    S    
C19   C23   A    
C26   C30   A    
C34   C41   A    
C4    C34   S    
C9    C13   A    
C33   C42   A    
C28   H8    S    
C11   C15   A    
C1    C35   S    
O5    C1    A    
C56   O28   S    
C24   C60   S    
C46   C50   A    
C51   C52   A    
C17   C21   A    
O8    C4    A    
O9    C5    A    
C22   C26   A    
C62   O40   S    
O34   H23   S    
C60   O35   D    
C46   H9    S    
C9    C29   A    
O6    V2    S    
C45   H10   S    
C63   O41   D    
C44   C63   S    
C13   C17   A    
O38   H25   S    
C15   C19   A    
C39   C52   A    
O16   V4    S    
C16   C20   A    
C34   C45   A    
C3    O13   A    
C33   C46   A    
O30   H21   S    
C12   C56   S    
C10   C14   A    
C35   C48   A    
C11   C55   S    
O40   H26   S    
C9    C53   S    
O6    C2    A    
C15   H3    S    
O44   H28   S    
O11   V3    S    
C2    C36   S    
O12   V4    S    
C56   O27   D    
C18   C22   A    
C22   C58   S    
C8    C18   S    
O10   C6    A    
C59   O34   S    
C62   O39   D    
C21   C57   S    
C12   C32   A    
C57   O29   D    
C14   C18   A    
C47   C51   A    
C61   O37   D    
O4    C8    A    
O20   V2    S    
C23   C59   S    
C23   C27   A    
C13   H1    S    
C29   C30   S    
C60   O36   S    
C40   C51   A    
C31   C32   S    
C3    C33   S    
C20   C24   A    
C39   H15   S    
C55   O26   S    
C4    O14   A    
O26   H19   S    
C61   O38   S    
C11   C31   A    
C35   C44   A    
C58   O32   S    
C59   O33   D    
O4    V2    S    
C24   C28   A    
C5    C19   S    
