data_mof_unit_11088.cif
_audit_creation_date              2012-12-10T18:43:45-0500
_audit_creation_method            fapswitch 2.2
_symmetry_space_group_name_H-M    P1
_symmetry_Int_Tables_number       1
_space_group_crystal_system       triclinic
_cell_length_a                    10.559485
_cell_length_b                    10.690183
_cell_length_c                    9.844375
_cell_angle_alpha                 90.171221
_cell_angle_beta                  104.07316
_cell_angle_gamma                 90.198177
_cell_volume                      1077.89268102

loop_
_atom_site_label
_atom_site_type_symbol
_atom_type_description
_atom_site_fract_x
_atom_site_fract_y
_atom_site_fract_z
_atom_type_partial_charge
C1    C     C_R   0.500090 0.259918 0.499877 0.842341
C2    C     C_R   0.500082 0.740073 0.500201 0.851867
C3    C     C_R   0.256660 0.497680 0.441194 0.885590
C4    C     C_R   0.742806 0.495433 0.558491 0.845222
C5    C     C_R   0.591109 0.567070 0.096243 -0.327570
C6    C     C_R   0.409411 0.432446 0.903878 -0.282396
C7    C     C_R   0.590672 0.568754 0.951366 0.532260
C8    C     C_R   0.410304 0.430302 0.048455 0.542247
C9    C     C_2   0.115465 0.477468 0.407405 0.056001
C10   C     C_2   0.882406 0.471994 0.591816 0.050127
C11   C     C_2   0.068522 0.413782 0.502186 -0.216493
C12   C     C_2   0.930182 0.412149 0.495103 -0.184937
C13   C     C_R   0.545700 0.063898 0.397262 -0.226479
C14   C     C_R   0.455799 0.936102 0.603611 -0.198804
C15   C     C_R   0.545492 0.935712 0.397266 -0.192520
C16   C     C_R   0.455881 0.064271 0.603536 -0.193978
C17   C     C_R   0.500486 0.872481 0.500425 -0.015417
C18   C     C_R   0.500505 0.127513 0.500107 -0.007418
H1    H     H_    0.865672 0.377564 0.398753 0.150564
H2    H     H_    0.133258 0.376911 0.596610 0.169714
H3    H     H_    0.665147 0.617823 0.171635 0.172409
H4    H     H_    0.336437 0.380168 0.829125 0.170969
H5    H     H_    0.581861 0.112985 0.318076 0.140718
H6    H     H_    0.419491 0.887063 0.682686 0.147205
H7    H     H_    0.581426 0.886351 0.317959 0.146434
H8    H     H_    0.419816 0.113599 0.682789 0.148014
N1    N     N_R   0.499970 0.499970 0.857200 -0.128552
N2    N     N_R   0.500030 0.500030 0.142800 -0.130173
O1    O     O_R   0.499990 0.316750 0.614620 -0.625691
O2    O     O_R   0.500010 0.683250 0.385380 -0.621924
O3    O     O_R   0.499990 0.316780 0.385290 -0.619614
O4    O     O_R   0.500010 0.683220 0.614710 -0.597954
O5    O     O_R   0.317810 0.500000 0.571850 -0.629489
O6    O     O_R   0.682190 0.500000 0.428150 -0.626766
O7    O     O_R   0.317810 0.500030 0.342520 -0.558499
O8    O     O_R   0.682190 0.499970 0.657480 -0.549222
Zn1   Zn    Zn3+2 0.500000 0.499980 0.653120 0.972121
Zn2   Zn    Zn3+2 0.500000 0.500020 0.346880 0.958457
N3    N     N_2   0.965066 0.518474 0.718743 -0.295085
H9    H     H_    0.932250 0.600878 0.752642 0.238392
C19   C     C_3   0.996470 0.426861 0.829428 -0.732702
H10   H     H_    0.072404 0.465428 0.918108 0.258336
H11   H     H_    0.034962 0.340346 0.791897 0.237323
H12   H     H_    0.908161 0.403456 0.867009 0.247317
N4    N     N_2   0.029199 0.527542 0.284056 -0.300703
H13   H     H_    0.962138 0.465501 0.226273 0.234713
C20   C     C_3   0.076155 0.622359 0.203568 -0.744993
H14   H     H_    0.991709 0.665927 0.129434 0.237698
H15   H     H_    0.140122 0.579868 0.141914 0.264081
H16   H     H_    0.129765 0.696843 0.273695 0.230511
O9    O     O_3   0.687369 0.630709 0.904922 -0.586604
C21   C     C_3   0.682310 0.760304 0.931311 0.094335
H17   H     H_    0.719083 0.780957 0.044870 0.120365
H18   H     H_    0.581127 0.797021 0.894126 0.134228
C22   C     C_3   0.769540 0.829007 0.853577 -0.810076
H19   H     H_    0.738029 0.808502 0.739689 0.257613
H20   H     H_    0.763508 0.931421 0.869993 0.207949
H21   H     H_    0.872434 0.798861 0.893209 0.237203
O10   O     O_3   0.316512 0.363052 0.094040 -0.602564
C23   C     C_3   0.338020 0.232756 0.084878 0.137628
H22   H     H_    0.340190 0.191051 0.188443 0.183728
H23   H     H_    0.432213 0.207300 0.059340 0.098944
C24   C     C_3   0.225172 0.171742 0.978961 -0.926581
H24   H     H_    0.223846 0.203032 0.871388 0.236213
H25   H     H_    0.236680 0.068501 0.983182 0.222845
H26   H     H_    0.131043 0.195941 0.003730 0.271524

loop_
_geom_bond_atom_site_label_1
_geom_bond_atom_site_label_2
_ccdc_geom_bond_type
C11   C12   S    
C24   H25   S    
C9    N4    S    
C3    C9    S    
C3    O7    A    
C5    N2    A    
C9    C11   D    
C19   H10   S    
C7    N1    A    
C6    N1    A    
O3    Zn2   S    
N2    Zn2   S    
C22   H19   S    
C13   C15   A    
C24   H26   S    
C7    O9    S    
O10   C23   S    
C20   H15   S    
C16   C18   A    
O6    Zn2   S    
N4    H13   S    
C2    C17   S    
C19   H11   S    
C14   C17   A    
O2    Zn2   S    
C1    C18   S    
C22   H21   S    
C10   C12   D    
C13   C18   A    
N1    Zn1   S    
C23   C24   S    
C12   H1    S    
C23   H23   S    
O8    Zn1   S    
C21   C22   S    
C21   H18   S    
C20   H16   S    
C14   C16   A    
C22   H20   S    
C8    O10   S    
C16   H8    S    
C8    N2    A    
C19   H12   S    
C4    O6    A    
C11   H2    S    
C15   H7    S    
C2    O2    A    
C1    O1    A    
C24   H24   S    
O1    Zn1   S    
O9    C21   S    
C6    H4    S    
C1    O3    A    
O7    Zn2   S    
C5    H3    S    
C21   H17   S    
C13   H5    S    
C2    O4    A    
N4    C20   S    
C14   H6    S    
N3    H9    S    
C15   C17   A    
C3    O5    A    
C5    C7    A    
C10   N3    S    
C6    C8    A    
O4    Zn1   S    
C4    C10   S    
O5    Zn1   S    
N3    C19   S    
C20   H14   S    
C4    O8    A    
C23   H22   S    
