data_mof_unit_30017.cif
_audit_creation_date              2012-12-11T15:57:32-0500
_audit_creation_method            fapswitch 2.2
_symmetry_space_group_name_H-M    P1
_symmetry_Int_Tables_number       1
_space_group_crystal_system       triclinic
_cell_length_a                    10.734331
_cell_length_b                    10.75862
_cell_length_c                    17.172116
_cell_angle_alpha                 100.216238
_cell_angle_beta                  100.160824
_cell_angle_gamma                 61.334451
_cell_volume                      1702.89032294

loop_
_atom_site_label
_atom_site_type_symbol
_atom_type_description
_atom_site_fract_x
_atom_site_fract_y
_atom_site_fract_z
_atom_type_partial_charge
C1    C     C_R   0.387832 0.697954 0.389991 0.580744
C2    C     C_2   0.327807 0.326356 0.821244 0.235899
C3    C     C_2   0.435090 0.223535 0.779065 0.258620
C4    C     C_R   0.371734 0.347701 0.356420 0.575857
C5    C     C_2   0.455803 0.246880 0.703857 0.243001
C6    C     C_1   0.814371 0.345244 0.709667 0.008255
C7    C     C_1   0.842324 0.315030 0.776672 0.002222
C8    C     C_1   0.357792 0.765462 0.713297 -0.072524
C9    C     C_1   0.324639 0.812082 0.779942 -0.093481
C10   C     C_R   0.947885 0.287741 0.098784 0.603924
C11   C     C_R   0.319510 0.300142 0.119674 0.536975
C12   C     C_2   0.897316 0.310306 0.176134 0.109529
C13   C     C_R   0.293080 0.893965 0.085083 0.574657
C14   C     C_R   0.885436 0.296918 0.858494 0.564202
C15   C     C_R   0.306754 0.290818 0.893112 0.583425
C16   C     C_R   0.702417 0.417154 0.393632 0.553694
C17   C     C_R   0.279941 0.881250 0.856900 0.535796
C18   C     C_R   0.381074 0.715383 0.631376 0.565834
C19   C     C_R   0.370080 0.344044 0.580137 0.597733
C20   C     C_R   0.770505 0.382956 0.630560 0.595583
C21   C     C_1   0.347136 0.338112 0.273194 -0.010935
C22   C     C_1   0.334525 0.328252 0.202626 -0.031093
C23   C     C_2   0.823991 0.244687 0.190546 0.252056
C24   C     C_2   0.720749 0.398177 0.309830 -0.151430
C25   C     C_3   0.701324 0.133401 0.112200 0.011248
C26   C     C_3   0.718859 0.030268 0.036579 -0.325644
C27   C     C_3   0.678882 0.065281 0.673362 0.030928
C28   C     C_3   0.806039 0.027962 0.629637 -0.343570
C29   C     C_3   0.219733 0.561626 0.798059 -0.013449
C30   C     C_3   0.093285 0.667551 0.748080 -0.333109
C31   C     C_3   0.630111 0.815056 0.152391 0.001066
C32   C     C_3   0.790403 0.753789 0.175857 -0.386359
C33   C     C_3   0.637814 0.836913 0.356489 0.027215
C34   C     C_2   0.773785 0.269054 0.268663 -0.114646
C35   C     C_3   0.677497 0.883390 0.442096 -0.334403
C36   C     C_3   0.521349 0.984537 0.780732 0.003815
C37   C     C_3   0.635392 0.854467 0.820395 -0.337513
C38   C     C_2   0.402680 0.702429 0.307522 -0.089499
C39   C     C_2   0.325055 0.858611 0.166625 0.062116
C40   C     C_2   0.457983 0.790769 0.204268 0.230227
C41   C     C_2   0.468599 0.772508 0.288760 0.265172
C42   C     C_2   0.342424 0.305516 0.647839 0.072372
Cr1   Cr    Cr6+3 0.608020 0.610770 0.522990 1.013006
Cr2   Cr    Cr6+3 0.289390 0.599570 0.488050 1.042240
Cr3   Cr    Cr6+3 0.602610 0.289690 0.489020 0.997876
Cr4   Cr    Cr6+3 0.053780 0.052210 0.965970 1.046557
Cr5   Cr    Cr6+3 0.060060 0.372530 0.992430 1.032478
Cr6   Cr    Cr6+3 0.372600 0.061970 0.991430 0.963430
H1    H     H_    0.787399 0.176531 0.293349 0.176434
H2    H     H_    0.726726 0.010679 0.727948 0.176319
H3    H     H_    0.874644 0.073671 0.664010 0.167577
H4    H     H_    0.872154 0.910307 0.622352 0.073225
H5    H     H_    0.770165 0.062576 0.569136 0.180314
H6    H     H_    0.320676 0.546234 0.779172 0.117282
H7    H     H_    0.212914 0.604068 0.862022 0.150363
H8    H     H_    0.100461 0.627333 0.683983 0.179607
H9    H     H_    0.090437 0.772966 0.756718 0.132373
H10   H     H_    0.991810 0.681171 0.764821 0.158416
H11   H     H_    0.575281 0.923972 0.184445 0.136540
H12   H     H_    0.700058 0.490879 0.282769 0.121581
H13   H     H_    0.614765 0.825526 0.087882 0.166953
H14   H     H_    0.848291 0.657244 0.135323 0.203583
H15   H     H_    0.826056 0.833333 0.171617 0.122550
H16   H     H_    0.818916 0.725963 0.237594 0.167059
H17   H     H_    0.654166 0.899053 0.317947 0.135179
H18   H     H_    0.710834 0.720838 0.344044 0.151400
H19   H     H_    0.668607 0.820417 0.483538 0.167609
H20   H     H_    0.789316 0.866251 0.449319 0.079263
H21   H     H_    0.605558 0.998146 0.457531 0.184632
H22   H     H_    0.525606 0.959759 0.715655 0.110760
H23   H     H_    0.359705 0.646413 0.260895 0.042268
H24   H     H_    0.413930 0.005308 0.790860 0.178821
H25   H     H_    0.627186 0.871792 0.885313 0.160261
H26   H     H_    0.622120 0.758815 0.794739 0.117679
H27   H     H_    0.743172 0.834775 0.810696 0.127206
H28   H     H_    0.622368 0.242792 0.096962 0.141029
H29   H     H_    0.662590 0.101664 0.157361 0.137656
H30   H     H_    0.742851 0.069477 0.988331 0.176280
H31   H     H_    0.807848 0.923086 0.047351 0.131828
H32   H     H_    0.620375 0.019643 0.016639 0.142724
H33   H     H_    0.614991 0.018305 0.633300 0.115753
I1    I     I_    0.158592 0.271970 0.631884 -0.319497
I2    I     I_    0.986644 0.418654 0.266294 -0.377023
I3    I     I_    0.140646 0.960454 0.231204 -0.272299
O1    O     O_R   0.749250 0.499990 0.439200 -0.484960
O2    O     O_R   0.411120 0.181190 0.091480 -0.569016
O3    O     O_R   0.364220 0.944920 0.062310 -0.518583
O4    O     O_R   0.477870 0.725740 0.440280 -0.462859
O5    O     O_R   0.158740 0.906940 0.874970 -0.523637
O6    O     O_R   0.930920 0.176940 0.885610 -0.491085
O7    O     O_R   0.910730 0.394510 0.895320 -0.508842
O8    O     O_R   0.185840 0.361180 0.920280 -0.476862
O9    O     O_R   0.399210 0.173040 0.915160 -0.510749
O10   O     O_R   0.353170 0.937370 0.898860 -0.516919
O11   O     O_3   0.162150 0.162240 0.983280 -0.271457
O12   O     O_R   0.299400 0.468710 0.556310 -0.506188
O13   O     O_R   0.260770 0.742210 0.412610 -0.462121
O14   O     O_R   0.297990 0.466320 0.394220 -0.500185
O15   O     O_R   0.487720 0.253870 0.385870 -0.533435
O16   O     O_R   0.721940 0.304340 0.422320 -0.488026
O17   O     O_R   0.750770 0.502570 0.614050 -0.504682
O18   O     O_R   0.479280 0.728140 0.602370 -0.500247
O19   O     O_R   0.262290 0.744790 0.587460 -0.494057
O20   O     O_3   0.835718 0.123438 0.141349 -0.530769
O21   O     O_3   0.596106 0.215124 0.693918 -0.534180
O22   O     O_3   0.209978 0.434083 0.784481 -0.580381
O23   O     O_R   0.489240 0.256450 0.560730 -0.497402
O24   O     O_3   0.580224 0.719810 0.164348 -0.578606
O25   O     O_3   0.492472 0.869664 0.346220 -0.514519
O26   O     O_3   0.544640 0.103676 0.811706 -0.568751
O27   O     O_R   0.723350 0.306730 0.584410 -0.484483
O28   O     O_3   0.500010 0.500010 0.500020 -0.340046
O29   O     O_R   0.170650 0.915100 0.051290 -0.488930
O30   O     O_R   0.941960 0.184500 0.049060 -0.444507
O31   O     O_R   0.922640 0.402670 0.071640 -0.520409
O32   O     O_R   0.196880 0.368740 0.083740 -0.494908

loop_
_geom_bond_atom_site_label_1
_geom_bond_atom_site_label_2
_ccdc_geom_bond_type
C5    C42   D    
Cr6   O11   S    
C4    O14   A    
Cr5   O8    S    
C31   H13   S    
C42   I1    S    
C37   H26   S    
Cr3   O28   S    
C33   H17   S    
Cr4   O5    S    
C5    O21   S    
Cr5   O31   S    
C12   C23   D    
C26   H30   S    
Cr6   O10   S    
C25   H29   S    
Cr1   O4    S    
C36   C37   S    
C39   I3    S    
C18   O18   A    
C28   H3    S    
C29   H6    S    
C27   O21   S    
C11   O2    A    
C30   H9    S    
C31   O24   S    
C31   H11   S    
C14   O6    A    
C15   O8    A    
Cr2   O14   S    
C7    C14   S    
Cr4   O11   S    
C23   O20   S    
C8    C9    T    
C24   C34   D    
C10   O30   A    
C27   H2    S    
C40   O24   S    
C1    O4    A    
C37   H27   S    
C16   C24   S    
C41   O25   S    
C21   C22   T    
Cr2   O19   S    
C36   H22   S    
C33   H18   S    
Cr5   O32   S    
Cr6   O9    S    
Cr4   O30   S    
Cr1   O1    S    
C27   H33   S    
C17   O5    A    
C32   H16   S    
C38   C41   D    
Cr3   O15   S    
C1    O13   A    
C39   C40   D    
C16   O16   A    
C20   O17   A    
C29   H7    S    
C25   C26   S    
C30   H8    S    
C2    O22   S    
C8    C18   S    
C12   I2    S    
Cr1   O17   S    
C29   C30   S    
Cr2   O12   S    
C20   O27   A    
Cr2   O13   S    
C31   C32   S    
C35   H19   S    
C24   H12   S    
C23   C34   S    
C13   O3    A    
Cr6   O3    S    
C2    C15   S    
C10   C12   S    
C1    C38   S    
Cr2   O28   S    
C9    C17   S    
C40   C41   S    
C36   O26   S    
C16   O1    A    
Cr6   O2    S    
C29   O22   S    
C33   O25   S    
Cr1   O28   S    
C37   H25   S    
C38   H23   S    
C34   H1    S    
Cr4   O29   S    
Cr5   O7    S    
C32   H15   S    
C3    C5    S    
Cr3   O16   S    
C15   O9    A    
C28   H5    S    
Cr3   O27   S    
C25   O20   S    
C6    C7    T    
Cr4   O6    S    
C6    C20   S    
C11   C22   S    
C26   H31   S    
C11   O32   A    
C25   H28   S    
C2    C3    D    
Cr1   O18   S    
C32   H14   S    
C4    C21   S    
C28   H4    S    
C19   C42   S    
C35   H20   S    
C30   H10   S    
C33   C35   S    
C18   O19   A    
C26   H32   S    
C14   O7    A    
C13   C39   S    
C10   O31   A    
Cr3   O23   S    
C35   H21   S    
C4    O15   A    
C27   C28   S    
Cr5   O11   S    
C17   O10   A    
C3    O26   S    
C13   O29   A    
C19   O12   A    
C36   H24   S    
C19   O23   A    
