data_mof_unit_45476.cif
_audit_creation_date              2012-12-11T14:10:38-0500
_audit_creation_method            fapswitch 2.2
_symmetry_space_group_name_H-M    P1
_symmetry_Int_Tables_number       1
_space_group_crystal_system       triclinic
_cell_length_a                    20.031802
_cell_length_b                    17.253361
_cell_length_c                    15.465014
_cell_angle_alpha                 89.999965
_cell_angle_beta                  52.027863
_cell_angle_gamma                 89.999936
_cell_volume                      4213.48170976

loop_
_atom_site_label
_atom_site_type_symbol
_atom_type_description
_atom_site_fract_x
_atom_site_fract_y
_atom_site_fract_z
_atom_type_partial_charge
C1    C     C_R   0.380023 0.197710 0.990030 0.511454
C2    C     C_R   0.641512 0.810427 0.982678 0.532268
C3    C     C_R   0.619986 0.197708 0.009961 0.511455
C4    C     C_R   0.358491 0.810426 0.017318 0.532281
C5    C     C_R   0.880023 0.697710 0.990030 0.511456
C6    C     C_R   0.141513 0.310428 0.982676 0.532283
C7    C     C_R   0.119980 0.697709 0.009967 0.511456
C8    C     C_R   0.858504 0.310419 0.017298 0.532242
C9    C     C_3   0.242235 0.222990 0.555179 0.606038
C10   C     C_3   0.667288 0.723140 0.463394 0.611371
C11   C     C_3   0.757800 0.222914 0.444766 0.605993
C12   C     C_3   0.332755 0.723084 0.536556 0.611394
C13   C     C_3   0.742224 0.722961 0.555202 0.606010
C14   C     C_3   0.167258 0.223104 0.463427 0.611375
C15   C     C_3   0.257753 0.723012 0.444835 0.606050
C16   C     C_3   0.832674 0.223188 0.536646 0.611331
C17   C     C_2   0.201293 0.740480 0.073200 -0.221665
C18   C     C_2   0.753385 0.284330 0.984640 -0.214836
C19   C     C_2   0.798714 0.740484 0.926791 -0.221685
C20   C     C_2   0.246649 0.284351 0.015314 -0.214822
C21   C     C_2   0.701317 0.240469 0.073171 -0.221666
C22   C     C_2   0.253360 0.784346 0.984674 -0.214829
C23   C     C_2   0.298715 0.240484 0.926790 -0.221672
C24   C     C_2   0.746647 0.784350 0.015316 -0.214822
C25   C     C_R   0.390096 0.803272 0.214732 0.002375
C26   C     C_R   0.652341 0.169552 0.778724 -0.079458
C27   C     C_R   0.609913 0.803274 0.785265 0.002358
C28   C     C_R   0.347661 0.169555 0.221278 -0.079509
C29   C     C_R   0.890077 0.303277 0.214739 0.002346
C30   C     C_R   0.152338 0.669556 0.778720 -0.079523
C31   C     C_R   0.109906 0.303273 0.785267 0.002376
C32   C     C_R   0.847661 0.669555 0.221277 -0.079484
C33   C     C_R   0.346853 0.899663 0.922823 -0.201818
C34   C     C_R   0.633868 0.110493 0.102798 -0.200073
C35   C     C_R   0.653151 0.899666 0.077172 -0.201820
C36   C     C_R   0.366142 0.110498 0.897190 -0.200078
C37   C     C_R   0.846865 0.399655 0.922804 -0.201808
C38   C     C_R   0.133861 0.610497 0.102807 -0.200081
C39   C     C_R   0.153152 0.399666 0.077171 -0.201813
C40   C     C_R   0.866142 0.610498 0.897190 -0.200082
C41   C     C_R   0.356591 0.078505 0.317120 -0.147639
C42   C     C_R   0.602870 0.895209 0.689343 -0.150482
C43   C     C_R   0.643413 0.078503 0.682882 -0.147688
C44   C     C_R   0.397139 0.895207 0.310652 -0.150430
C45   C     C_R   0.856591 0.578505 0.317119 -0.147662
C46   C     C_R   0.102863 0.395207 0.689347 -0.150447
C47   C     C_R   0.143406 0.578507 0.682879 -0.147633
C48   C     C_R   0.897122 0.395210 0.310661 -0.150519
C49   C     C_R   0.350176 0.186438 0.931599 -0.010991
C50   C     C_R   0.684158 0.829820 0.023405 -0.005742
C51   C     C_R   0.649841 0.186431 0.068381 -0.010984
C52   C     C_R   0.315847 0.829817 0.976587 -0.005745
C53   C     C_R   0.850176 0.686438 0.931599 -0.010986
C54   C     C_R   0.184160 0.329821 0.023403 -0.005747
C55   C     C_R   0.149829 0.686436 0.068395 -0.010992
C56   C     C_R   0.815869 0.329804 0.976555 -0.005745
C57   C     C_R   0.373794 0.820430 0.312761 0.064859
C58   C     C_R   0.693838 0.136031 0.676471 0.081920
C59   C     C_R   0.626224 0.820434 0.687230 0.064847
C60   C     C_R   0.306169 0.136037 0.323533 0.081953
C61   C     C_R   0.873759 0.320437 0.312777 0.064841
C62   C     C_R   0.193827 0.636039 0.676465 0.081968
C63   C     C_R   0.126211 0.320431 0.687236 0.064852
C64   C     C_R   0.806168 0.636036 0.323532 0.081938
C65   C     C_3   0.205931 0.150110 0.541336 -0.329253
C66   C     C_3   0.703430 0.796071 0.477999 -0.332343
C67   C     C_3   0.794147 0.150093 0.458658 -0.329246
C68   C     C_3   0.296643 0.796055 0.521982 -0.332340
C69   C     C_3   0.705901 0.650103 0.541339 -0.329248
C70   C     C_3   0.203381 0.296059 0.478013 -0.332319
C71   C     C_3   0.294045 0.650115 0.458665 -0.329236
C72   C     C_3   0.796507 0.296080 0.522014 -0.332367
C73   C     C_3   0.624241 0.696177 0.582352 -0.296164
C74   C     C_3   0.284024 0.250541 0.438590 -0.304385
C75   C     C_3   0.375747 0.696132 0.417607 -0.296196
C76   C     C_3   0.715930 0.250479 0.561369 -0.304355
C77   C     C_3   0.124246 0.196149 0.582378 -0.296215
C78   C     C_3   0.784047 0.750519 0.438606 -0.304354
C79   C     C_3   0.875768 0.196217 0.417684 -0.296138
C80   C     C_3   0.215984 0.750559 0.561421 -0.304411
C81   C     C_3   0.662736 0.768270 0.595588 0.039052
C82   C     C_3   0.246671 0.178089 0.423800 0.059905
C83   C     C_3   0.337282 0.768267 0.404404 0.039044
C84   C     C_3   0.753325 0.178090 0.576208 0.059931
C85   C     C_3   0.162722 0.268267 0.595593 0.039055
C86   C     C_3   0.746675 0.678091 0.423796 0.059897
C87   C     C_3   0.837249 0.268272 0.404418 0.039083
C88   C     C_3   0.253326 0.678091 0.576198 0.059895
H1    H     H_    0.208540 0.090349 0.565702 0.154211
H2    H     H_    0.701354 0.855616 0.452561 0.148418
H3    H     H_    0.791612 0.090315 0.434285 0.154237
H4    H     H_    0.298772 0.855587 0.547411 0.148404
H5    H     H_    0.708480 0.590333 0.565709 0.154212
H6    H     H_    0.201274 0.355595 0.452581 0.148413
H7    H     H_    0.291416 0.590359 0.434301 0.154203
H8    H     H_    0.798536 0.355634 0.547457 0.148435
N1    N     N_R   0.408680 0.130810 0.995780 -0.074279
N2    N     N_R   0.591320 0.869190 0.004220 -0.080053
N3    N     N_R   0.591320 0.130810 0.004220 -0.074284
N4    N     N_R   0.408680 0.869190 0.995780 -0.080050
N5    N     N_R   0.908680 0.630810 0.995780 -0.074282
N6    N     N_R   0.091320 0.369190 0.004220 -0.080049
N7    N     N_R   0.091320 0.630810 0.004220 -0.074277
N8    N     N_R   0.908680 0.369190 0.995780 -0.080052
N9    N     N_R   0.421410 0.867210 0.153620 -0.058969
N10   N     N_R   0.578590 0.132790 0.846380 -0.040623
N11   N     N_R   0.578590 0.867210 0.846380 -0.058977
N12   N     N_R   0.421410 0.132790 0.153620 -0.040611
N13   N     N_R   0.921410 0.367210 0.153620 -0.058981
N14   N     N_R   0.078590 0.632790 0.846380 -0.040609
N15   N     N_R   0.078590 0.367210 0.846380 -0.058972
N16   N     N_R   0.921410 0.632790 0.153620 -0.040617
N17   N     N_R   0.403840 0.921910 0.935760 -0.071867
N18   N     N_R   0.596160 0.078090 0.064240 -0.069984
N19   N     N_R   0.596160 0.921910 0.064240 -0.071870
N20   N     N_R   0.403840 0.078090 0.935760 -0.069979
N21   N     N_R   0.903840 0.421910 0.935760 -0.071869
N22   N     N_R   0.096160 0.578090 0.064240 -0.069979
N23   N     N_R   0.096160 0.421910 0.064240 -0.071867
N24   N     N_R   0.903840 0.578090 0.935760 -0.069982
N25   N     N_R   0.426250 0.076100 0.213650 -0.051003
N26   N     N_R   0.573750 0.923900 0.786350 -0.049258
N27   N     N_R   0.573750 0.076100 0.786350 -0.050997
N28   N     N_R   0.426250 0.923900 0.213650 -0.049264
N29   N     N_R   0.926250 0.576100 0.213650 -0.050999
N30   N     N_R   0.073750 0.423900 0.786350 -0.049263
N31   N     N_R   0.073750 0.576100 0.786350 -0.051004
N32   N     N_R   0.926250 0.423900 0.213650 -0.049253
Ni1   Ni    Ni4+2 0.500000 0.131570 0.000000 0.306142
Ni2   Ni    Ni4+2 0.500000 0.868430 0.000000 0.274901
Ni3   Ni    Ni4+2 1.000000 0.631570 0.000000 0.306141
Ni4   Ni    Ni4+2 0.000000 0.368430 0.000000 0.274903
Ni5   Ni    Ni4+2 0.488900 0.000000 0.862310 0.195316
Ni6   Ni    Ni4+2 0.511100 0.000000 0.137690 0.195316
Ni7   Ni    Ni4+2 0.988900 0.500000 0.862310 0.195315
Ni8   Ni    Ni4+2 0.011100 0.500000 0.137690 0.195320
O1    O     O_3   0.403028 0.267174 0.009031 -0.764369
H9    H     H_    0.396498 0.308788 0.970613 0.324076
O2    O     O_3   0.632041 0.738290 0.953477 -0.786815
H10   H     H_    0.654128 0.699024 0.976682 0.322884
O3    O     O_3   0.596986 0.267174 0.990959 -0.764365
H11   H     H_    0.603530 0.308787 0.029363 0.324075
O4    O     O_3   0.367962 0.738289 0.046521 -0.786829
H12   H     H_    0.345884 0.699023 0.023306 0.322881
O5    O     O_3   0.903027 0.767175 0.009030 -0.764366
H13   H     H_    0.896497 0.808788 0.970613 0.324074
O6    O     O_3   0.132044 0.238291 0.953473 -0.786820
H14   H     H_    0.154126 0.199025 0.976684 0.322885
O7    O     O_3   0.096977 0.767174 0.990965 -0.764370
H15   H     H_    0.103510 0.808787 0.029380 0.324076
O8    O     O_3   0.867983 0.238283 0.046494 -0.786815
H16   H     H_    0.845922 0.199015 0.023258 0.322893
H17   H     H_    0.388704 0.746439 0.186741 0.180390
H18   H     H_    0.672657 0.219571 0.798924 0.166536
H19   H     H_    0.611304 0.746441 0.813256 0.180434
H20   H     H_    0.327342 0.219572 0.201078 0.166486
H21   H     H_    0.888685 0.246444 0.186748 0.180477
H22   H     H_    0.172656 0.719574 0.798920 0.166476
H23   H     H_    0.111298 0.246440 0.813259 0.180407
H24   H     H_    0.827343 0.719572 0.201077 0.166505
H25   H     H_    0.332338 0.929594 0.874733 0.135968
H26   H     H_    0.642733 0.083070 0.157982 0.133183
H27   H     H_    0.667666 0.929597 0.125260 0.135973
H28   H     H_    0.357282 0.083077 0.842001 0.133175
H29   H     H_    0.832355 0.429585 0.874709 0.135972
H30   H     H_    0.142722 0.583075 0.157995 0.133175
H31   H     H_    0.167667 0.429598 0.125259 0.135970
H32   H     H_    0.857281 0.583077 0.842001 0.133178
H33   H     H_    0.345478 0.044921 0.383774 0.105718
H34   H     H_    0.597463 0.922840 0.631142 0.097153
H35   H     H_    0.654527 0.044921 0.616225 0.105724
H36   H     H_    0.402548 0.922840 0.368851 0.097143
H37   H     H_    0.845478 0.544924 0.383775 0.105713
H38   H     H_    0.097455 0.422839 0.631147 0.097146
H39   H     H_    0.154518 0.544923 0.616226 0.105716
H40   H     H_    0.902528 0.422838 0.368864 0.097158
H41   H     H_    0.557677 0.676419 0.642164 0.165477
H42   H     H_    0.350295 0.271531 0.380028 0.162246
H43   H     H_    0.442295 0.676338 0.357767 0.165468
H44   H     H_    0.649635 0.271413 0.619890 0.162240
H45   H     H_    0.057693 0.176370 0.642208 0.165467
H46   H     H_    0.850329 0.771486 0.380059 0.162239
H47   H     H_    0.942343 0.176492 0.357896 0.165488
H48   H     H_    0.149718 0.771563 0.619994 0.162243
O9    O     O_3   0.281139 0.224657 0.605394 -0.755663
H49   H     H_    0.330369 0.189273 0.561387 0.305217
O10   O     O_3   0.629987 0.720803 0.411230 -0.757858
H50   H     H_    0.581140 0.756741 0.453452 0.301481
O11   O     O_3   0.718949 0.224496 0.394485 -0.755700
H51   H     H_    0.669744 0.189085 0.438472 0.305210
O12   O     O_3   0.370089 0.720690 0.588676 -0.757822
H52   H     H_    0.418967 0.756593 0.546424 0.301526
O13   O     O_3   0.781107 0.724592 0.605445 -0.755675
H53   H     H_    0.830325 0.689194 0.561450 0.305211
O14   O     O_3   0.129937 0.220733 0.411292 -0.757836
H54   H     H_    0.081055 0.256631 0.453554 0.301555
O15   O     O_3   0.218836 0.724701 0.394636 -0.755656
H55   H     H_    0.169583 0.689342 0.438666 0.305217
O16   O     O_3   0.869944 0.220898 0.588846 -0.757916
H56   H     H_    0.918748 0.256876 0.546665 0.301485
H57   H     H_    0.203592 0.738573 0.141572 0.184342
H58   H     H_    0.752275 0.285490 0.915265 0.173251
H59   H     H_    0.796415 0.738576 0.858419 0.184344
H60   H     H_    0.247756 0.285514 0.084692 0.173224
H61   H     H_    0.703617 0.238564 0.141542 0.184358
H62   H     H_    0.252252 0.785508 0.915297 0.173216
H63   H     H_    0.296416 0.238576 0.858418 0.184343
H64   H     H_    0.747754 0.785512 0.084694 0.173235

loop_
_geom_bond_atom_site_label_1
_geom_bond_atom_site_label_2
_ccdc_geom_bond_type
C68   C80   S    
N10   Ni1   S    
C14   O14   S    
C18   C21   D    
O6    H14   S    
C3    O3    S    
C7    C55   A    
N12   N25   A    
C72   C76   S    
C78   C86   S    
C8    C56   A    
C47   C62   A    
C79   C87   S    
O5    H13   S    
C48   C61   A    
C25   N9    A    
C66   H2    S    
C17   H57   S    
C33   C52   A    
C65   H1    S    
C12   C68   S    
C34   C51   A    
C13   C69   S    
C30   N14   A    
C2    O2    S    
C29   N13   A    
C70   H6    S    
C45   C64   A    
N31   Ni7   S    
C9    O9    S    
C11   C76   S    
N32   Ni8   S    
C15   O15   S    
C10   C73   S    
N4    Ni2   S    
C23   C49   S    
C39   C54   A    
C71   H7    S    
C21   H61   S    
O4    H12   S    
C15   C83   S    
C13   C81   S    
C16   C84   S    
C22   H62   S    
C38   H30   S    
C14   C77   S    
C41   N25   A    
C42   H34   S    
C43   C58   A    
C9    C85   S    
C7    O7    S    
C37   C56   A    
C60   C82   S    
N22   Ni8   S    
C13   O13   S    
C38   C55   A    
C11   C87   S    
C16   C72   S    
N10   N27   A    
C70   C74   S    
C77   H45   S    
O8    H16   S    
C46   H38   S    
C69   C73   S    
C17   C22   D    
N25   Ni6   S    
C75   H43   S    
C17   C55   S    
N2    N19   A    
C18   C56   S    
N14   N31   A    
C73   H41   S    
C19   C53   S    
C10   C66   S    
C77   C85   S    
C67   C84   S    
C7    N7    A    
C63   C85   S    
C6    N6    A    
C27   H19   S    
C14   C70   S    
C76   C84   S    
C19   H59   S    
O15   H55   S    
C25   C57   A    
N3    N18   A    
N11   Ni2   S    
C44   N28   A    
C4    O4    S    
C64   C86   S    
C65   C82   S    
C11   C67   S    
C35   C50   A    
C5    N5    A    
C28   C60   A    
C24   C50   S    
C66   C78   S    
C29   C61   A    
C5    O5    S    
N3    Ni1   S    
C25   H17   S    
O12   H52   S    
C31   C63   A    
C8    O8    S    
C67   C79   S    
C20   H60   S    
C20   C54   S    
C57   C83   S    
C1    N1    A    
C43   H35   S    
C37   H29   S    
N20   Ni5   S    
C34   H26   S    
N5    N24   A    
C62   C88   S    
C24   H64   S    
C35   H27   S    
O14   H54   S    
N9    N28   A    
C11   O11   S    
C38   N22   A    
C33   H25   S    
C44   H36   S    
N26   Ni5   S    
C45   H37   S    
C26   N10   A    
C48   N32   A    
C65   C77   S    
C26   C58   A    
N13   N32   A    
C15   C80   S    
C74   H42   S    
C20   C23   D    
C27   N11   A    
C44   C57   A    
C12   C88   S    
C28   H20   S    
N2    Ni2   S    
N15   N30   A    
C67   H3    S    
C10   O10   S    
N12   Ni1   S    
N14   Ni3   S    
C18   H58   S    
N1    N20   A    
C35   N19   A    
C58   C84   S    
C8    N8    A    
C32   C64   A    
N16   N29   A    
C16   O16   S    
C73   C81   S    
N5    Ni3   S    
N29   Ni8   S    
C40   N24   A    
C4    C52   A    
N30   Ni7   S    
C6    C54   A    
C4    N4    A    
C2    C50   A    
C26   H18   S    
N7    N22   A    
C9    C74   S    
C14   C82   S    
C36   N20   A    
C43   N27   A    
C21   C51   S    
C72   C87   S    
C1    O1    S    
C42   N26   A    
C61   C87   S    
N8    N21   A    
C74   C82   S    
C5    C53   A    
C30   H22   S    
C12   O12   S    
C13   C78   S    
C10   C86   S    
C3    C51   A    
C32   N16   A    
C23   H63   S    
C68   C83   S    
C33   N17   A    
N7    Ni3   S    
C46   N30   A    
C31   H23   S    
N4    N17   A    
C59   C81   S    
C41   C60   A    
N6    Ni4   S    
C76   H44   S    
C42   C59   A    
C29   H21   S    
O2    H10   S    
C40   C53   A    
C47   N31   A    
N9    Ni2   S    
N19   Ni6   S    
C34   N18   A    
C15   C71   S    
O1    H9    S    
N13   Ni4   S    
C69   H5    S    
N23   Ni8   S    
C69   C86   S    
N18   Ni6   S    
N28   Ni6   S    
C46   C63   A    
C16   C79   S    
N24   Ni7   S    
C30   C62   A    
C19   C24   D    
C32   H24   S    
N1    Ni1   S    
O10   H50   S    
C80   C88   S    
C27   C59   A    
O3    H11   S    
C66   C81   S    
C71   C75   S    
C6    O6    S    
C75   C83   S    
O9    H49   S    
C41   H33   S    
C2    N2    A    
C28   N12   A    
C39   N23   A    
C68   H4    S    
C79   H47   S    
C22   C52   S    
C80   H48   S    
N16   Ni3   S    
C39   H31   S    
O11   H51   S    
C9    C65   S    
C40   H32   S    
N6    N23   A    
C71   C88   S    
C72   H8    S    
C3    N3    A    
N15   Ni4   S    
O16   H56   S    
C37   N21   A    
N27   Ni5   S    
O13   H53   S    
N8    Ni4   S    
C12   C75   S    
C45   N29   A    
C36   H28   S    
C31   N15   A    
N17   Ni5   S    
N11   N26   A    
C78   H46   S    
O7    H15   S    
C70   C85   S    
C1    C49   A    
C47   H39   S    
C36   C49   A    
C48   H40   S    
N21   Ni7   S    
