data_mof_unit_49673.cif
_audit_creation_date              2012-12-10T17:48:47-0500
_audit_creation_method            fapswitch 2.2
_symmetry_space_group_name_H-M    P1
_symmetry_Int_Tables_number       1
_space_group_crystal_system       triclinic
_cell_length_a                    15.73425
_cell_length_b                    10.727462
_cell_length_c                    9.891937
_cell_angle_alpha                 89.22664
_cell_angle_beta                  89.959369
_cell_angle_gamma                 91.757712
_cell_volume                      1668.70720033

loop_
_atom_site_label
_atom_site_type_symbol
_atom_type_description
_atom_site_fract_x
_atom_site_fract_y
_atom_site_fract_z
_atom_type_partial_charge
C1    C     C_R   0.504927 0.259798 0.501994 0.861852
C2    C     C_R   0.484736 0.043352 0.878095 -0.147640
C3    C     C_R   0.440145 0.930276 0.866759 -0.158154
C4    C     C_R   0.338334 0.499507 0.500113 0.884133
C5    C     C_R   0.431912 0.875042 0.740644 -0.158576
C6    C     C_R   0.468166 0.933513 0.623868 0.096785
C7    C     C_R   0.496901 0.057718 0.631452 0.095243
C8    C     C_R   0.507738 0.125728 0.507649 -0.122093
C9    C     C_R   0.507750 0.064352 0.383851 -0.226576
C10   C     C_R   0.497122 0.937438 0.380843 -0.219843
C11   C     C_R   0.480049 0.871176 0.500521 -0.127634
C12   C     C_3   0.949364 0.423669 0.621596 -0.408111
C13   C     C_R   0.388027 0.336543 0.142470 -0.158777
C14   C     C_R   0.332856 0.256367 0.073165 -0.214402
C15   C     C_R   0.332742 0.256788 0.933285 -0.185889
C16   C     C_R   0.491267 0.738822 0.499663 0.882198
C17   C     C_R   0.388042 0.337037 0.861927 -0.153758
C18   C     C_R   0.444880 0.419500 0.928763 0.149023
C19   C     C_R   0.444897 0.419420 0.073487 0.167890
C20   C     C_R   0.552408 0.577505 0.070360 -0.125890
C21   C     C_R   0.552386 0.577470 0.927110 -0.117425
C22   C     C_R   0.661698 0.500378 0.499901 0.915716
C23   C     C_3   0.917543 0.501244 0.499731 0.302294
C24   C     C_3   0.047411 0.422926 0.621050 -0.518038
C25   C     C_3   0.047919 0.443686 0.367215 -0.371302
C26   C     C_3   0.949863 0.443843 0.367225 -0.402389
C27   C     C_1   0.750680 0.500681 0.499803 -0.195229
C28   C     C_3   0.082644 0.501464 0.499712 0.276288
C29   C     C_3   0.097800 0.836729 0.442626 -0.356947
C30   C     C_3   0.953701 0.636626 0.510092 -0.453364
C31   C     C_3   0.052360 0.637582 0.512191 0.435762
C32   C     C_1   0.826054 0.500974 0.499756 -0.096481
C33   C     C_1   0.174128 0.500075 0.500122 -0.071918
C34   C     C_1   0.249442 0.499571 0.500219 -0.177425
C35   C     C_R   0.513256 0.106848 0.761895 -0.169025
H1    H     H_    0.923315 0.326165 0.616595 0.180250
H2    H     H_    0.503996 0.891282 0.284834 0.169940
H3    H     H_    0.595161 0.640819 0.123309 0.145455
H4    H     H_    0.068633 0.325119 0.614441 0.191582
H5    H     H_    0.383918 0.330733 0.249671 0.205757
H6    H     H_    0.289941 0.193486 0.128528 0.147486
H7    H     H_    0.289995 0.193917 0.879528 0.149242
H8    H     H_    0.384899 0.330738 0.754822 0.207540
H9    H     H_    0.595098 0.640802 0.872156 0.153214
H10   H     H_    0.072898 0.497177 0.277761 0.206873
H11   H     H_    0.069377 0.346227 0.357837 0.155977
H12   H     H_    0.072208 0.461328 0.717829 0.174647
H13   H     H_    0.924097 0.346578 0.357261 0.169388
H14   H     H_    0.927422 0.498362 0.278304 0.176698
H15   H     H_    0.074893 0.672723 0.612440 0.046989
H16   H     H_    0.930149 0.680263 0.603909 0.127777
H17   H     H_    0.149883 0.845403 0.518204 0.163900
H18   H     H_    0.038229 0.875192 0.483308 0.154671
H19   H     H_    0.116878 0.893623 0.352540 0.197323
H20   H     H_    0.926842 0.463864 0.717935 0.174903
H21   H     H_    0.930754 0.693399 0.423173 0.195450
H22   H     H_    0.517303 0.114053 0.288658 0.172054
H23   H     H_    0.550571 0.191469 0.777433 0.171186
H24   H     H_    0.495814 0.083273 0.976729 0.144009
H25   H     H_    0.414541 0.883290 0.956078 0.140979
H26   H     H_    0.396998 0.786765 0.735463 0.160153
N1    N     N_R   0.499210 0.498800 0.142780 -0.120528
N2    N     N_R   0.499180 0.498720 0.857170 -0.125796
O1    O     O_R   0.500000 0.316780 0.614690 -0.654180
O2    O     O_R   0.499990 0.316750 0.385360 -0.640441
O3    O     O_R   0.377150 0.500020 0.614720 -0.641364
O4    O     O_R   0.377140 0.499990 0.385380 -0.625815
O5    O     O_R   0.500010 0.683250 0.614640 -0.623326
O6    O     O_R   0.500000 0.683220 0.385310 -0.619101
O7    O     O_R   0.622860 0.500010 0.614620 -0.612935
O8    O     O_R   0.622850 0.499980 0.385280 -0.610404
O9    O     O_3   0.085647 0.711550 0.403119 -0.596819
Zn1   Zn    Zn3+2 0.500010 0.500020 0.653130 0.922086
Zn2   Zn    Zn3+2 0.499990 0.499980 0.346870 0.934881

loop_
_geom_bond_atom_site_label_1
_geom_bond_atom_site_label_2
_ccdc_geom_bond_type
C2    C35   A    
C4    O4    A    
C1    O2    A    
C30   H16   S    
C17   H8    S    
C30   H21   S    
C6    C7    A    
C16   O5    A    
O8    Zn2   S    
C21   H9    S    
C20   H3    S    
C9    C10   A    
C12   C24   S    
C26   H13   S    
O1    Zn1   S    
C29   O9    S    
C10   C11   A    
C23   C32   S    
O7    Zn1   S    
C2    C3    A    
C25   C26   S    
C5    H26   S    
C7    C8    A    
O4    Zn2   S    
C13   C14   A    
C3    H25   S    
C25   C28   S    
C4    O3    A    
O3    Zn1   S    
C12   C23   S    
C30   C31   S    
C29   H18   S    
C35   H23   S    
C25   H11   S    
C31   O9    S    
C28   C33   S    
C33   C34   T    
C9    H22   S    
C22   C27   S    
C10   H2    S    
C20   N1    A    
C5    C6    A    
C14   H6    S    
C4    C34   S    
C18   N2    A    
C21   N2    A    
C12   H20   S    
C12   H1    S    
C29   H19   S    
C13   C19   A    
C31   H15   S    
C1    C8    S    
C23   C30   S    
C25   H10   S    
C22   O8    A    
O6    Zn2   S    
C24   H4    S    
C27   C32   T    
C20   C21   A    
C17   C18   A    
C18   C19   A    
C11   C16   S    
C23   C26   S    
C6    C11   A    
C15   C17   A    
C14   C15   A    
N1    Zn2   S    
C13   H5    S    
C19   N1    A    
C3    C5    A    
O5    Zn1   S    
C2    H24   S    
C24   H12   S    
C7    C35   A    
C1    O1    A    
C22   O7    A    
C28   C31   S    
N2    Zn1   S    
C16   O6    A    
C24   C28   S    
C15   H7    S    
C8    C9    A    
O2    Zn2   S    
C29   H17   S    
C26   H14   S    
