data_mof_unit_48447.cif
_audit_creation_date              2012-12-10T17:30:17-0500
_audit_creation_method            fapswitch 2.2
_symmetry_space_group_name_H-M    P1
_symmetry_Int_Tables_number       1
_space_group_crystal_system       triclinic
_cell_length_a                    12.053132
_cell_length_b                    12.867964
_cell_length_c                    14.889122
_cell_angle_alpha                 90.921042
_cell_angle_beta                  87.022198
_cell_angle_gamma                 94.895289
_cell_volume                      2297.60431471

loop_
_atom_site_label
_atom_site_type_symbol
_atom_type_description
_atom_site_fract_x
_atom_site_fract_y
_atom_site_fract_z
_atom_type_partial_charge
C1    C     C_R   0.523561 0.700469 0.499468 0.968899
C2    C     C_R   0.381859 0.138738 0.567088 0.080970
C3    C     C_R   0.467721 0.870311 0.550201 0.340834
C4    C     C_R   0.529044 0.129933 0.447741 0.338842
C5    C     C_R   0.462485 0.975789 0.532940 -0.020955
C6    C     C_R   0.534902 0.024580 0.465320 -0.021570
C7    C     C_R   0.948879 0.398732 0.418669 -0.231074
C8    C     C_R   0.050946 0.601301 0.581605 -0.227877
C9    C     C_R   0.834390 0.409341 0.425851 -0.034684
C10   C     C_R   0.165579 0.590863 0.574018 -0.031937
C11   C     C_R   0.860788 0.544801 0.534796 0.468366
C12   C     C_R   0.476307 0.299697 0.500444 0.963545
C13   C     C_R   0.138744 0.454650 0.466099 0.470313
C14   C     C_R   0.977590 0.537251 0.529659 -0.045356
C15   C     C_R   0.022078 0.462699 0.470852 -0.042696
C16   C     C_R   0.501403 0.501369 0.672801 0.950108
C17   C     C_R   0.499023 0.497620 0.327109 0.947128
C18   C     C_R   0.467324 0.400990 0.185957 0.416225
C19   C     C_R   0.556107 0.588316 0.812896 0.422763
C20   C     C_R   0.499671 0.493718 0.231093 -0.147328
C21   C     C_R   0.506749 0.501500 0.768326 -0.148063
C22   C     C_R   0.549529 0.580019 0.186394 -0.276056
C23   C     C_R   0.630621 0.663580 0.953659 0.430151
C24   C     C_R   0.475381 0.408803 0.811714 -0.282182
C25   C     C_R   0.563987 0.579491 0.093348 0.103053
C26   C     C_R   0.484838 0.401159 0.903927 0.105566
C27   C     C_R   0.527244 0.487939 0.045502 -0.057632
C28   C     C_R   0.529324 0.490028 0.951634 -0.058096
C29   C     C_R   0.485922 0.395328 0.091740 -0.098364
C30   C     C_R   0.573148 0.581835 0.905415 -0.099141
C31   C     C_R   0.617889 0.667030 0.047874 0.079527
C32   C     C_R   0.454296 0.305886 0.948479 0.077942
C33   C     C_3   0.662193 0.763060 0.099922 -0.760914
C34   C     C_R   0.464502 0.301602 0.041878 0.429547
C35   C     C_3   0.411719 0.209387 0.896237 -0.761370
C36   C     C_3   0.299097 0.197321 0.623269 -0.792145
C37   C     C_3   0.702202 0.804187 0.378297 -0.795461
C38   C     C_R   0.458528 0.187760 0.502972 -0.109129
C39   C     C_R   0.540391 0.812725 0.496521 -0.110763
C40   C     C_R   0.613782 0.967921 0.418168 -0.098435
C41   C     C_R   0.384324 0.032767 0.580730 -0.103332
C42   C     C_R   0.617629 0.862186 0.432951 0.082411
Cl1   Cl    Cl    0.393103 0.299888 0.249304 -0.418560
Cl2   Cl    Cl    0.578301 0.706633 0.752712 -0.424980
Cl3   Cl    Cl    0.735651 0.749628 0.899901 -0.470185
Cl4   Cl    Cl    0.472901 0.177688 0.090696 -0.469013
Cl5   Cl    Cl    0.607072 0.189737 0.354735 -0.561655
Cl6   Cl    Cl    0.384637 0.810177 0.640457 -0.577592
Cl7   Cl    Cl    0.196288 0.359809 0.396396 -0.522223
Cl8   Cl    Cl    0.801989 0.636905 0.607334 -0.512535
H1    H     H_    0.978729 0.340742 0.372148 0.222881
H2    H     H_    0.728630 0.742441 0.143742 0.235616
H3    H     H_    0.696876 0.828436 0.056807 0.293697
H4    H     H_    0.337479 0.226316 0.859622 0.223235
H5    H     H_    0.478056 0.185639 0.847512 0.247478
H6    H     H_    0.383986 0.141609 0.939018 0.291040
H7    H     H_    0.251026 0.146673 0.673865 0.234644
H8    H     H_    0.343003 0.262500 0.660180 0.213699
H9    H     H_    0.238407 0.228314 0.579226 0.283708
H10   H     H_    0.750994 0.855017 0.328222 0.235569
H11   H     H_    0.762064 0.773851 0.423470 0.282170
H12   H     H_    0.021107 0.659338 0.628093 0.227012
H13   H     H_    0.659673 0.738622 0.340953 0.215032
H14   H     H_    0.576589 0.647490 0.226073 0.148426
H15   H     H_    0.444551 0.342873 0.771745 0.147397
H16   H     H_    0.672722 0.005066 0.368949 0.211389
H17   H     H_    0.325442 0.996044 0.630166 0.212061
H18   H     H_    0.221104 0.639787 0.614492 0.215336
H19   H     H_    0.778838 0.360400 0.385309 0.210518
H20   H     H_    0.593321 0.794164 0.141804 0.236176
N1    N     N_R   0.207800 0.519350 0.516680 -0.142804
N2    N     N_R   0.792200 0.480650 0.483320 -0.142733
O1    O     O_R   0.421700 0.658830 0.504450 -0.603531
O2    O     O_R   0.578300 0.341170 0.495550 -0.608504
O3    O     O_R   0.609310 0.646410 0.493750 -0.581568
O4    O     O_R   0.390690 0.353590 0.506250 -0.578483
O5    O     O_R   0.406180 0.506230 0.637500 -0.618250
O6    O     O_R   0.593820 0.493770 0.362500 -0.624058
O7    O     O_R   0.593800 0.493820 0.626800 -0.568052
O8    O     O_R   0.406200 0.506180 0.373200 -0.562567
Zn1   Zn    Zn3+2 0.374730 0.508290 0.507150 1.041917
Zn2   Zn    Zn3+2 0.625270 0.491710 0.492850 1.036659

loop_
_geom_bond_atom_site_label_1
_geom_bond_atom_site_label_2
_ccdc_geom_bond_type
C25   C31   A    
C26   C32   A    
C16   C21   S    
C23   Cl3   S    
C12   O2    A    
C27   C29   A    
C9    N2    A    
C36   H9    S    
C41   H17   S    
C33   H2    S    
C19   C21   A    
C24   C26   A    
C36   H8    S    
C5    C6    A    
C11   C14   A    
C2    C41   A    
C3    Cl6   S    
C17   C20   S    
C16   O5    A    
C37   C42   S    
O6    Zn2   S    
C22   C25   A    
C31   C33   S    
C34   Cl4   S    
C10   N1    A    
C40   C42   A    
C3    C39   A    
C40   H16   S    
C35   H4    S    
O2    Zn2   S    
O1    Zn1   S    
C37   H13   S    
C39   C42   A    
C33   H3    S    
C35   H5    S    
C1    O3    A    
C32   C35   S    
C4    C6    A    
C36   H7    S    
C11   N2    A    
C13   N1    A    
C29   C34   A    
C17   O8    A    
C23   C31   A    
C23   C30   A    
C2    C38   A    
O5    Zn1   S    
C18   C29   A    
C24   H15   S    
C13   Cl7   S    
C33   H20   S    
C20   C22   A    
C13   C15   A    
C12   O4    A    
C6    C40   A    
C19   Cl2   S    
C2    C36   S    
C7    C9    A    
C5    C41   A    
C8    C14   A    
C35   H6    S    
C9    H19   S    
O8    Zn1   S    
C3    C5    A    
O4    Zn1   S    
O7    Zn2   S    
C37   H11   S    
O3    Zn2   S    
C10   H18   S    
C25   C27   A    
C26   C28   A    
C16   O7    A    
C1    O1    A    
C28   C30   A    
C7    H1    S    
C11   Cl8   S    
C18   Cl1   S    
C7    C15   A    
C17   O6    A    
C18   C20   A    
C12   C38   S    
C37   H10   S    
C1    C39   S    
C22   H14   S    
C8    C10   A    
C21   C24   A    
C8    H12   S    
C27   C28   A    
C14   C15   A    
C4    C38   A    
C19   C30   A    
N2    Zn2   S    
C32   C34   A    
N1    Zn1   S    
C4    Cl5   S    
