data_mof_unit_10660.cif
_audit_creation_date              2012-12-10T17:35:41-0500
_audit_creation_method            fapswitch 2.2
_symmetry_space_group_name_H-M    P1
_symmetry_Int_Tables_number       1
_space_group_crystal_system       triclinic
_cell_length_a                    10.483485
_cell_length_b                    11.999195
_cell_length_c                    12.845217
_cell_angle_alpha                 93.484092
_cell_angle_beta                  90.538818
_cell_angle_gamma                 86.627999
_cell_volume                      1610.03681711

loop_
_atom_site_label
_atom_site_type_symbol
_atom_type_description
_atom_site_fract_x
_atom_site_fract_y
_atom_site_fract_z
_atom_type_partial_charge
C1    C     C_R   0.498817 0.522165 0.700401 0.896832
C2    C     C_R   0.608993 0.162086 0.587545 0.034136
C3    C     C_R   0.552515 0.858557 0.541574 -0.046938
C4    C     C_R   0.447485 0.141443 0.458426 -0.046933
C5    C     C_R   0.543996 0.975887 0.535089 0.093420
C6    C     C_R   0.456004 0.024113 0.464911 0.093420
C7    C     C_R   0.742481 0.500925 0.503128 0.935968
C8    C     C_R   0.257519 0.499075 0.496872 0.935956
C9    C     C_3   0.965831 0.419350 0.562369 -0.311828
C10   C     C_3   0.034169 0.580651 0.437629 -0.311933
C11   C     C_3   0.044340 0.519971 0.595130 0.558942
C12   C     C_R   0.501168 0.477837 0.299600 0.896853
C13   C     C_3   0.955661 0.480029 0.404868 0.558946
C14   C     C_3   0.122655 0.498356 0.496125 -0.106649
C15   C     C_3   0.877344 0.501644 0.503874 -0.106654
C16   C     C_3   0.045426 0.397353 0.461382 -0.300694
C17   C     C_3   0.954573 0.602648 0.538617 -0.300809
C18   C     C_R   0.504126 0.464260 0.188267 -0.040726
C19   C     C_R   0.495815 0.535747 0.811735 -0.040667
C20   C     C_R   0.426072 0.639182 0.968962 -0.238445
C21   C     C_R   0.573834 0.360823 0.031035 -0.238434
C22   C     C_R   0.439064 0.632856 0.861646 -0.185504
C23   C     C_R   0.543186 0.446458 0.868090 -0.293265
C24   C     C_R   0.560871 0.367153 0.138351 -0.185486
C25   C     C_3   0.012160 0.554492 0.771506 0.094744
C26   C     C_3   0.078457 0.577466 0.875845 -0.812780
C27   C     C_3   0.987814 0.445675 0.228467 0.094734
C28   C     C_3   0.921532 0.422461 0.124165 -0.812788
C29   C     C_R   0.456725 0.553544 0.131915 -0.293291
C30   C     C_R   0.529722 0.451530 0.974636 0.190534
C31   C     C_R   0.470175 0.548471 0.025365 0.190570
C32   C     C_R   0.379145 0.954064 0.403276 -0.333309
C33   C     C_R   0.620855 0.045936 0.596723 -0.333311
C34   C     C_R   0.391007 0.837914 0.412455 0.034131
H1    H     H_    0.932978 0.355742 0.613723 0.151336
H2    H     H_    0.619342 0.286197 0.992479 0.139364
H3    H     H_    0.380463 0.180037 0.404883 0.117609
H4    H     H_    0.619537 0.819963 0.595117 0.117603
H5    H     H_    0.668390 0.215983 0.635046 0.119434
H6    H     H_    0.331610 0.784016 0.364954 0.119428
H7    H     H_    0.310563 0.988657 0.348594 0.141272
H8    H     H_    0.689437 0.011343 0.651406 0.141268
H9    H     H_    0.958726 0.477507 0.776315 0.130859
H10   H     H_    0.943817 0.626754 0.757690 0.130259
H11   H     H_    0.131466 0.654802 0.874177 0.255616
H12   H     H_    0.067026 0.644262 0.386281 0.151303
H13   H     H_    0.006424 0.588593 0.939029 0.201766
H14   H     H_    0.146687 0.506287 0.892498 0.262036
H15   H     H_    0.056420 0.373598 0.242293 0.130205
H16   H     H_    0.040952 0.522816 0.223603 0.130939
H17   H     H_    0.853020 0.493443 0.107516 0.262102
H18   H     H_    0.993536 0.411524 0.060952 0.201777
H19   H     H_    0.868844 0.344954 0.125880 0.255558
H20   H     H_    0.086968 0.315528 0.428735 0.154910
H21   H     H_    0.913028 0.684474 0.571258 0.154878
H22   H     H_    0.411222 0.627948 0.171163 0.149582
H23   H     H_    0.588692 0.372056 0.828842 0.149593
H24   H     H_    0.598320 0.298129 0.182337 0.166794
H25   H     H_    0.401636 0.701884 0.817659 0.166767
H26   H     H_    0.380561 0.713810 0.007519 0.139339
N1    N     N_R   0.523490 0.207800 0.519350 -0.099742
N2    N     N_R   0.476510 0.792200 0.480650 -0.099742
O1    O     O_R   0.506270 0.421700 0.658830 -0.625452
O2    O     O_3   0.895035 0.459659 0.307604 -0.608888
O3    O     O_R   0.493730 0.578300 0.341170 -0.625452
O4    O     O_R   0.491200 0.609310 0.646410 -0.629795
O5    O     O_R   0.508800 0.390690 0.353590 -0.629787
O6    O     O_R   0.693580 0.406210 0.506230 -0.621534
O7    O     O_R   0.306420 0.593790 0.493770 -0.621548
O8    O     O_R   0.678510 0.593830 0.493810 -0.621886
O9    O     O_R   0.321490 0.406170 0.506190 -0.621882
O10   O     O_3   0.104967 0.540313 0.692398 -0.608880
Zn1   Zn    Zn3+2 0.510060 0.374730 0.508290 0.952133
Zn2   Zn    Zn3+2 0.489940 0.625270 0.491710 0.952117

loop_
_geom_bond_atom_site_label_1
_geom_bond_atom_site_label_2
_ccdc_geom_bond_type
C6    C32   A    
C25   H9    S    
C7    O8    A    
C21   H2    S    
C8    O7    A    
C34   H6    S    
C33   H8    S    
C9    C16   S    
C5    C6    A    
C28   H17   S    
C10   C17   S    
O4    Zn2   S    
C34   N2    A    
C15   C17   S    
C26   H11   S    
C7    O6    A    
C2    H5    S    
C3    H4    S    
C5    C33   A    
O8    Zn2   S    
C32   H7    S    
O5    Zn1   S    
C20   H26   S    
C17   H21   S    
C27   H16   S    
C26   H14   S    
C7    C15   S    
C1    O1    A    
C25   H10   S    
C12   O5    A    
C1    C19   S    
C23   C30   A    
C19   C22   A    
C18   C24   A    
C4    C6    A    
C10   C14   S    
C22   H25   S    
C18   C29   A    
C11   O10   S    
O1    Zn1   S    
N1    Zn1   S    
C25   C26   S    
C4    N1    A    
O3    Zn2   S    
C32   C34   A    
C19   C23   A    
C10   H12   S    
C1    O4    A    
O7    Zn2   S    
C25   O10   S    
C9    C11   S    
C26   H13   S    
C2    C33   A    
C20   C22   A    
C13   C15   S    
C14   C16   S    
C13   C16   S    
O9    Zn1   S    
C21   C30   A    
C3    N2    A    
C23   H23   S    
C11   C17   S    
C8    O9    A    
C8    C14   S    
C3    C5    A    
C10   C13   S    
C28   H19   S    
C2    N1    A    
C29   H22   S    
C12   O3    A    
O6    Zn1   S    
C29   C31   A    
C28   H18   S    
C30   C31   A    
C13   O2    S    
C11   C14   S    
C9    C15   S    
C16   H20   S    
C27   O2    S    
C4    H3    S    
C24   H24   S    
C21   C24   A    
C12   C18   S    
C27   C28   S    
C9    H1    S    
N2    Zn2   S    
C27   H15   S    
C20   C31   A    
