data_mof_unit_13332.cif
_audit_creation_date              2012-12-10T20:41:49-0500
_audit_creation_method            fapswitch 2.2
_symmetry_space_group_name_H-M    P1
_symmetry_Int_Tables_number       1
_space_group_crystal_system       triclinic
_cell_length_a                    14.897042
_cell_length_b                    15.101695
_cell_length_c                    9.885381
_cell_angle_alpha                 89.017663
_cell_angle_beta                  89.493538
_cell_angle_gamma                 90.070625
_cell_volume                      2223.50408798

loop_
_atom_site_label
_atom_site_type_symbol
_atom_type_description
_atom_site_fract_x
_atom_site_fract_y
_atom_site_fract_z
_atom_type_partial_charge
C1    C     C_R   0.381428 0.879063 0.501136 0.880707
C2    C     C_R   0.385856 0.125527 0.499348 0.916225
C3    C     C_R   0.881428 0.379063 0.501136 0.880706
C4    C     C_R   0.885856 0.625527 0.499348 0.916222
C5    C     C_3   0.268541 0.197816 0.750776 -0.222122
C6    C     C_3   0.170281 0.896425 0.548275 -0.293747
C7    C     C_3   0.768541 0.697815 0.750776 -0.222122
C8    C     C_3   0.670280 0.396425 0.548274 -0.293738
C9    C     C_R   0.425224 0.974475 0.072911 0.199667
C10   C     C_R   0.925225 0.474474 0.072911 0.199665
C11   C     C_R   0.571484 0.032156 0.069096 0.209654
C12   C     C_R   0.071483 0.532157 0.069096 0.209654
C13   C     C_R   0.571145 0.031308 0.925310 -0.120291
C14   C     C_R   0.071145 0.531309 0.925310 -0.120288
C15   C     C_R   0.425341 0.974355 0.930467 0.291968
C16   C     C_R   0.925342 0.474354 0.930467 0.291970
C17   C     C_3   0.382512 0.885079 0.927853 -0.471050
C18   C     C_3   0.882514 0.385077 0.927853 -0.471049
C19   C     C_3   0.382121 0.885300 0.081265 -0.502558
C20   C     C_3   0.882123 0.385298 0.081265 -0.502560
C21   C     C_R   0.620437 0.118897 0.499094 0.885526
C22   C     C_R   0.624098 0.884056 0.500269 0.862207
C23   C     C_R   0.120438 0.618897 0.499094 0.885525
C24   C     C_R   0.124098 0.384056 0.500269 0.862208
C25   C     C_R   0.303654 0.239131 0.621195 0.032211
C26   C     C_R   0.237748 0.823507 0.568677 0.033069
C27   C     C_R   0.803654 0.739130 0.621195 0.032212
C28   C     C_R   0.737748 0.323507 0.568677 0.033080
C29   C     C_R   0.337563 0.207590 0.498903 -0.210568
C30   C     C_R   0.319798 0.808677 0.504911 -0.206279
C31   C     C_R   0.837563 0.707590 0.498903 -0.210569
C32   C     C_R   0.819798 0.308677 0.504911 -0.206283
C33   C     C_R   0.322765 0.258562 0.378826 -0.026581
C34   C     C_R   0.341335 0.725193 0.450962 -0.053150
C35   C     C_R   0.822765 0.758562 0.378826 -0.026582
C36   C     C_R   0.841335 0.225193 0.450963 -0.053149
C37   C     C_R   0.752860 0.820163 0.380421 -0.172254
C38   C     C_R   0.773632 0.161432 0.448785 -0.195820
C39   C     C_R   0.252860 0.320163 0.380421 -0.172254
C40   C     C_R   0.273632 0.661432 0.448784 -0.195819
C41   C     C_R   0.705362 0.834648 0.501151 -0.161730
C42   C     C_R   0.688703 0.182156 0.499653 -0.152666
C43   C     C_R   0.205362 0.334648 0.501151 -0.161730
C44   C     C_R   0.188703 0.682156 0.499653 -0.152665
C45   C     C_R   0.741503 0.804976 0.622678 0.176406
C46   C     C_R   0.672971 0.259563 0.568381 0.179431
C47   C     C_R   0.241503 0.304976 0.622678 0.176405
C48   C     C_R   0.172971 0.759563 0.568382 0.179432
C49   C     C_3   0.699350 0.772447 0.752705 -0.325102
C50   C     C_3   0.598216 0.324588 0.548070 -0.336760
C51   C     C_3   0.199351 0.272447 0.752705 -0.325098
C52   C     C_3   0.098216 0.824588 0.548072 -0.336749
H1    H     H_    0.313445 0.888011 0.125898 0.218688
H2    H     H_    0.426666 0.834064 0.126906 0.216232
H3    H     H_    0.813447 0.388007 0.125898 0.218687
H4    H     H_    0.926669 0.334063 0.126905 0.216232
H5    H     H_    0.733678 0.854047 0.287545 0.199328
H6    H     H_    0.785797 0.096986 0.405478 0.192755
H7    H     H_    0.233678 0.354047 0.287545 0.199329
H8    H     H_    0.285796 0.596986 0.405476 0.192755
H9    H     H_    0.628284 0.751320 0.740374 0.125868
H10   H     H_    0.563270 0.316452 0.449904 0.113766
H11   H     H_    0.128284 0.251320 0.740375 0.125869
H12   H     H_    0.063270 0.816452 0.449906 0.113763
H13   H     H_    0.318790 0.199749 0.833487 0.223539
H14   H     H_    0.166667 0.940716 0.636567 0.203065
H15   H     H_    0.818789 0.699748 0.833487 0.223539
H16   H     H_    0.666656 0.440716 0.636566 0.203062
H17   H     H_    0.629468 0.053964 0.868723 0.199137
H18   H     H_    0.129467 0.553966 0.868723 0.199137
H19   H     H_    0.314064 0.887183 0.884125 0.249119
H20   H     H_    0.427551 0.833960 0.884505 0.199237
H21   H     H_    0.814066 0.387180 0.884125 0.249119
H22   H     H_    0.927553 0.333958 0.884504 0.199237
N1    N     N_R   0.499140 0.000000 0.142800 -0.137240
N2    N     N_R   0.999140 0.500000 0.142800 -0.137239
N3    N     N_R   0.499160 0.000000 0.857150 -0.139679
N4    N     N_R   0.999160 0.500000 0.857150 -0.139678
O1    O     O_R   0.408400 0.908380 0.614690 -0.605373
O2    O     O_R   0.408400 0.091620 0.614690 -0.575929
O3    O     O_R   0.908400 0.408380 0.614690 -0.605371
O4    O     O_R   0.908400 0.591620 0.614690 -0.575927
O5    O     O_R   0.408370 0.908370 0.385350 -0.627611
O6    O     O_R   0.408370 0.091630 0.385350 -0.622223
O7    O     O_R   0.908370 0.408370 0.385350 -0.627612
O8    O     O_R   0.908370 0.591630 0.385350 -0.622224
O9    O     O_R   0.591610 0.091610 0.614650 -0.589196
O10   O     O_R   0.591610 0.908390 0.614650 -0.610512
O11   O     O_R   0.091610 0.591610 0.614650 -0.589197
O12   O     O_R   0.091610 0.408390 0.614650 -0.610511
O13   O     O_R   0.591590 0.091600 0.385310 -0.611114
O14   O     O_R   0.591590 0.908400 0.385310 -0.628042
O15   O     O_R   0.091590 0.591600 0.385310 -0.611113
O16   O     O_R   0.091590 0.408400 0.385310 -0.628042
Zn1   Zn    Zn3+2 0.500010 0.000000 0.653130 1.003786
Zn2   Zn    Zn3+2 0.000010 0.500000 0.653130 1.003788
Zn3   Zn    Zn3+2 0.499980 0.000000 0.346870 0.960993
Zn4   Zn    Zn3+2 0.999980 0.500000 0.346870 0.960992
C53   C     C_2   0.377268 0.249312 0.253159 0.459193
H23   H     H_    0.444678 0.222478 0.257215 0.070896
O17   O     O_2   0.348404 0.274010 0.143607 -0.579318
C54   C     C_2   0.431988 0.704673 0.395842 0.409157
H24   H     H_    0.486288 0.752152 0.402660 0.069343
O18   O     O_2   0.447396 0.633830 0.342637 -0.546837
C55   C     C_2   0.877268 0.749312 0.253159 0.459192
H25   H     H_    0.944678 0.722478 0.257215 0.070896
O19   O     O_2   0.848404 0.774010 0.143607 -0.579316
C56   C     C_2   0.931989 0.204673 0.395844 0.409156
H26   H     H_    0.986288 0.252152 0.402662 0.069343
O20   O     O_2   0.947396 0.133829 0.342641 -0.546838
C57   C     C_2   0.711848 0.834010 0.869526 0.507238
H27   H     H_    0.690759 0.812601 0.970199 0.086218
O21   O     O_2   0.745025 0.907464 0.853138 -0.570770
C58   C     C_2   0.534015 0.329398 0.666380 0.452412
H28   H     H_    0.488907 0.385488 0.673670 0.096643
O22   O     O_2   0.530749 0.270761 0.752971 -0.545486
C59   C     C_2   0.211849 0.334011 0.869526 0.507235
H29   H     H_    0.190762 0.312602 0.970199 0.086221
O23   O     O_2   0.245023 0.407465 0.853136 -0.570770
C60   C     C_2   0.034016 0.829398 0.666383 0.452418
H30   H     H_    0.988908 0.885488 0.673674 0.096643
O24   O     O_2   0.030750 0.770760 0.752974 -0.545489
C61   C     C_2   0.225120 0.109041 0.733718 0.438202
H31   H     H_    0.177914 0.099025 0.652484 0.103476
O25   O     O_2   0.241559 0.048346 0.812557 -0.589179
C62   C     C_2   0.179956 0.944241 0.413882 0.465463
H32   H     H_    0.185637 0.907080 0.321111 0.072957
O26   O     O_2   0.181754 0.024986 0.408281 -0.566358
C63   C     C_2   0.725120 0.609040 0.733717 0.438204
H33   H     H_    0.677913 0.599025 0.652485 0.103474
O27   O     O_2   0.741561 0.548344 0.812553 -0.589176
C64   C     C_2   0.679956 0.444241 0.413880 0.465462
H34   H     H_    0.685640 0.407081 0.321110 0.072957
O28   O     O_2   0.681749 0.524986 0.408279 -0.566356
N5    N     N_2   0.649313 0.062291 0.135800 -0.262565
H35   H     H_    0.705074 0.024525 0.114041 0.237179
C65   C     C_3   0.666919 0.156136 0.117201 -0.701359
H36   H     H_    0.681285 0.172530 0.009159 0.234685
H37   H     H_    0.726388 0.175051 0.176920 0.238798
H38   H     H_    0.608482 0.195472 0.152438 0.245006
N6    N     N_2   0.149312 0.562294 0.135800 -0.262566
H39   H     H_    0.205073 0.524530 0.114040 0.237178
C66   C     C_3   0.166916 0.656140 0.117201 -0.701359
H40   H     H_    0.181281 0.672535 0.009160 0.234686
H41   H     H_    0.226384 0.675056 0.176921 0.238797
H42   H     H_    0.108477 0.695474 0.152439 0.245005

loop_
_geom_bond_atom_site_label_1
_geom_bond_atom_site_label_2
_ccdc_geom_bond_type
C66   H42   S    
C21   O9    A    
C62   H32   S    
C40   H8    S    
C3    O7    A    
C55   H25   S    
C2    O6    A    
C57   H27   S    
C20   H4    S    
C58   H28   S    
N5    H35   S    
C6    C26   S    
C56   H26   S    
C55   O19   D    
C28   C46   A    
C33   C39   A    
C6    H14   S    
C2    C29   S    
C34   C40   A    
O6    Zn3   S    
C32   C36   A    
C35   C37   A    
C38   C42   A    
C48   C52   S    
C11   N5    S    
N6    C66   S    
C61   O25   D    
C22   C41   S    
C4    O8    A    
O16   Zn4   S    
N2    Zn4   S    
C66   H40   S    
C29   C33   A    
N1    Zn3   S    
C7    C27   S    
C12   N6    S    
C66   H41   S    
C42   C46   A    
O7    Zn4   S    
C51   C59   S    
C38   H6    S    
C10   N2    A    
C9    C19   S    
C10   C20   S    
C64   H34   S    
O9    Zn1   S    
C8    C64   S    
C23   O11   A    
C22   O10   A    
C25   C47   A    
C18   C20   S    
C26   C48   A    
C49   C57   S    
C27   C45   A    
O10   Zn1   S    
C18   H22   S    
N5    C65   S    
C14   H18   S    
C3    C32   S    
C20   H3    S    
C60   O24   D    
O14   Zn3   S    
C25   C29   A    
C65   H38   S    
C13   N3    A    
C49   H9    S    
C30   C34   A    
C27   C31   A    
C61   H31   S    
O4    Zn2   S    
C6    C62   S    
C5    H13   S    
C52   H12   S    
N4    Zn2   S    
O3    Zn2   S    
C39   C43   A    
O12   Zn2   S    
N3    Zn1   S    
C23   C44   S    
C23   O15   A    
C50   C58   S    
O1    Zn1   S    
C35   C55   S    
C24   O16   A    
C65   H37   S    
C58   O22   D    
C53   H23   S    
C28   C32   A    
C39   H7    S    
C45   C49   S    
C51   H11   S    
C57   O21   D    
C34   C54   S    
O13   Zn3   S    
O2    Zn1   S    
C54   O18   D    
C7    C49   S    
C17   H20   S    
C5    C25   S    
C52   C60   S    
C19   H2    S    
C64   O28   D    
C53   O17   D    
C12   C14   A    
C17   H19   S    
C18   H21   S    
C12   N2    A    
C50   H10   S    
C31   C35   A    
C8    C50   S    
C60   H30   S    
C63   H33   S    
C21   O13   A    
C15   C17   S    
C5    C61   S    
C62   O26   D    
C22   O14   A    
C3    O3    A    
C24   O12   A    
C47   C51   S    
C8    H16   S    
C1    O5    A    
C65   H36   S    
C46   C50   S    
C6    C52   S    
O11   Zn2   S    
C59   O23   D    
C9    C15   A    
C11   N1    A    
C59   H29   S    
C11   C13   A    
C19   H1    S    
C15   N3    A    
C13   H17   S    
C1    O1    A    
C36   C38   A    
C1    C30   S    
C17   C19   S    
C56   O20   D    
C16   N4    A    
C14   N4    A    
C37   C41   A    
C54   H24   S    
O8    Zn4   S    
C7    C63   S    
C4    C31   S    
C2    O2    A    
C7    H15   S    
C21   C42   S    
C40   C44   A    
C4    O4    A    
C36   C56   S    
C8    C28   S    
C16   C18   S    
O5    Zn3   S    
C24   C43   S    
C41   C45   A    
C5    C51   S    
C10   C16   A    
C9    N1    A    
C33   C53   S    
N6    H39   S    
C43   C47   A    
O15   Zn4   S    
C37   H5    S    
C44   C48   A    
C63   O27   D    
C26   C30   A    
