data_mof_unit_19857.cif
_audit_creation_date              2012-12-10T18:29:15-0500
_audit_creation_method            fapswitch 2.2
_symmetry_space_group_name_H-M    P1
_symmetry_Int_Tables_number       1
_space_group_crystal_system       triclinic
_cell_length_a                    27.821853
_cell_length_b                    26.734083
_cell_length_c                    18.13538
_cell_angle_alpha                 90.115272
_cell_angle_beta                  90.03555
_cell_angle_gamma                 90.064419
_cell_volume                      13488.9071754

loop_
_atom_site_label
_atom_site_type_symbol
_atom_type_description
_atom_site_fract_x
_atom_site_fract_y
_atom_site_fract_z
_atom_type_partial_charge
C1    C     C_R   0.065904 0.433286 0.499909 0.818853
C2    C     C_R   0.934062 0.566962 0.500089 0.823263
C3    C     C_R   0.934239 0.432986 0.500028 0.821018
C4    C     C_R   0.065902 0.566767 0.500147 0.822204
C5    C     C_R   0.567765 0.935200 0.499933 0.799998
C6    C     C_R   0.433871 0.066397 0.499992 0.813679
C7    C     C_R   0.433437 0.933977 0.500024 0.832876
C8    C     C_R   0.566844 0.065598 0.500058 0.819208
C9    C     C_R   0.998993 0.499977 0.158657 -0.225097
C10   C     C_R   0.998084 0.500036 0.841133 -0.227573
C11   C     C_R   0.498898 0.000714 0.158216 -0.227743
C12   C     C_R   0.498549 0.000449 0.840269 -0.200516
C13   C     C_R   0.016313 0.541603 0.198879 -0.195266
C14   C     C_R   0.014376 0.457879 0.801143 -0.193032
C15   C     C_R   0.982460 0.458240 0.199136 -0.196802
C16   C     C_R   0.982931 0.542303 0.800384 -0.204090
C17   C     C_R   0.517003 0.041797 0.199006 -0.195227
C18   C     C_R   0.495264 0.955041 0.800262 -0.216609
C19   C     C_R   0.481075 0.959448 0.198485 -0.193107
C20   C     C_R   0.497897 0.045773 0.800018 -0.218032
C21   C     C_R   0.012876 0.542234 0.277328 0.520616
C22   C     C_R   0.011109 0.457293 0.722674 0.518598
C23   C     C_R   0.987238 0.457602 0.277424 0.522791
C24   C     C_R   0.988884 0.542933 0.722338 0.531003
C25   C     C_R   0.514369 0.041885 0.277520 0.521529
C26   C     C_R   0.497132 0.955537 0.721466 0.508173
C27   C     C_R   0.484422 0.958746 0.276905 0.520903
C28   C     C_R   0.501090 0.044694 0.721295 0.515718
C29   C     C_R   0.868549 0.386029 0.561653 -0.290292
C30   C     C_R   0.100883 0.643975 0.447037 -0.237736
C31   C     C_R   0.135911 0.609053 0.557646 -0.296252
C32   C     C_R   0.896141 0.358653 0.441759 -0.241417
C33   C     C_R   0.134794 0.390919 0.440233 -0.290664
C34   C     C_R   0.889920 0.634966 0.565158 -0.241887
C35   C     C_R   0.873887 0.620543 0.435812 -0.288935
C36   C     C_R   0.105301 0.359701 0.556884 -0.242280
C37   C     C_R   0.357814 0.902198 0.554333 -0.236459
C38   C     C_R   0.609898 0.138145 0.447369 -0.236180
C39   C     C_R   0.643430 0.095665 0.553120 -0.290594
C40   C     C_R   0.390596 0.860997 0.446708 -0.244801
C41   C     C_R   0.622165 0.875076 0.436688 -0.272611
C42   C     C_R   0.392007 0.138702 0.556502 -0.248139
C43   C     C_R   0.362178 0.103877 0.442049 -0.296837
C44   C     C_R   0.640477 0.900578 0.561293 -0.319567
C45   C     C_R   0.834221 0.347898 0.562561 0.435286
C46   C     C_R   0.132716 0.684260 0.450424 0.437479
C47   C     C_R   0.170794 0.646646 0.558312 0.437381
C48   C     C_R   0.864593 0.318094 0.443994 0.432556
C49   C     C_R   0.171209 0.355112 0.440250 0.438040
C50   C     C_R   0.858818 0.675906 0.565081 0.424926
C51   C     C_R   0.840338 0.659409 0.435691 0.433656
C52   C     C_R   0.138888 0.321047 0.554984 0.434033
C53   C     C_R   0.317977 0.870415 0.552881 0.437941
C54   C     C_R   0.647389 0.172761 0.449084 0.440133
C55   C     C_R   0.683406 0.127277 0.551932 0.424275
C56   C     C_R   0.353357 0.825993 0.448326 0.437517
C57   C     C_R   0.662926 0.844688 0.435296 0.408703
C58   C     C_R   0.356256 0.175266 0.554902 0.427922
C59   C     C_R   0.323749 0.137516 0.442625 0.428329
C60   C     C_R   0.680475 0.868204 0.562959 0.414421
C61   C     C_R   0.832277 0.313084 0.503771 -0.161584
C62   C     C_R   0.169098 0.685101 0.504903 -0.161993
C63   C     C_R   0.173111 0.319135 0.497327 -0.162438
C64   C     C_R   0.832963 0.688033 0.500422 -0.163934
C65   C     C_R   0.316048 0.831030 0.500816 -0.167389
C66   C     C_R   0.685265 0.166961 0.500592 -0.161648
C67   C     C_R   0.691289 0.839663 0.499426 -0.116952
C68   C     C_R   0.321032 0.174290 0.498438 -0.148928
C69   C     C_R   0.998174 0.500238 0.924338 0.592497
C70   C     C_R   0.998644 0.499966 0.075413 0.598515
C71   C     C_R   0.498290 0.000651 0.923504 0.567226
C72   C     C_R   0.498608 0.000827 0.074680 0.567983
C73   C     C_R   0.898715 0.392417 0.500652 -0.186985
C74   C     C_R   0.101841 0.606736 0.500995 -0.183473
C75   C     C_R   0.102675 0.394265 0.499288 -0.186516
C76   C     C_R   0.898418 0.607639 0.500467 -0.190509
C77   C     C_R   0.393565 0.898352 0.500445 -0.179009
C78   C     C_R   0.607181 0.100451 0.500264 -0.165113
C79   C     C_R   0.610191 0.902411 0.499720 -0.138523
C80   C     C_R   0.395589 0.103644 0.499558 -0.177729
C81   C     C_R   0.205781 0.724827 0.504229 0.387423
C82   C     C_R   0.795740 0.273104 0.503098 0.384955
C83   C     C_R   0.797827 0.729374 0.501188 0.406286
C84   C     C_R   0.210819 0.280514 0.497503 0.383856
C85   C     C_R   0.725603 0.202723 0.501370 0.399360
C86   C     C_R   0.276158 0.794834 0.502061 0.390898
C87   C     C_R   0.281554 0.210990 0.498153 0.405796
C88   C     C_R   0.730622 0.802740 0.501156 0.474660
Cu1   Cu    Cu3+1 0.000000 0.500000 0.573360 0.980360
Cu2   Cu    Cu3+1 1.000000 0.500000 0.426640 0.981716
Cu3   Cu    Cu3+1 0.500000 1.000000 0.573360 0.997347
Cu4   Cu    Cu3+1 0.500000 1.000000 0.426640 0.981457
H1    H     H_    0.870493 0.411659 0.607902 0.170223
H2    H     H_    0.073933 0.643230 0.404088 0.203582
H3    H     H_    0.136569 0.580612 0.600120 0.169895
H4    H     H_    0.919867 0.362454 0.394934 0.219853
H5    H     H_    0.132892 0.417416 0.395191 0.172679
H6    H     H_    0.908528 0.625712 0.615704 0.232690
H7    H     H_    0.879787 0.599724 0.385405 0.168006
H8    H     H_    0.080123 0.361408 0.602233 0.213847
H9    H     H_    0.359655 0.931399 0.595785 0.184470
H10   H     H_    0.581814 0.142141 0.406530 0.193834
H11   H     H_    0.641255 0.066549 0.594425 0.155381
H12   H     H_    0.418263 0.857664 0.405237 0.195362
H13   H     H_    0.599882 0.876950 0.388192 0.152561
H14   H     H_    0.417924 0.138807 0.601143 0.206253
H15   H     H_    0.364721 0.076589 0.398002 0.170122
H16   H     H_    0.633019 0.924837 0.607555 0.155019
N1    N     N_R   0.000000 0.500000 0.316380 -0.261319
N2    N     N_R   0.000000 0.500000 0.683620 -0.261473
N3    N     N_R   0.500000 1.000000 0.316380 -0.261705
N4    N     N_R   0.500000 1.000000 0.683620 -0.241946
N5    N     N_R   0.956557 0.499241 0.037024 -0.190190
N6    N     N_R   0.040241 0.500825 0.962721 -0.199765
N7    N     N_R   0.040472 0.500811 0.036503 -0.194932
N8    N     N_R   0.956323 0.499441 0.963213 -0.185753
N9    N     N_R   0.539908 0.007924 0.035790 -0.192700
N10   N     N_R   0.456973 0.993410 0.962213 -0.198431
N11   N     N_R   0.457137 0.993547 0.036039 -0.193223
N12   N     N_R   0.539742 0.007858 0.962011 -0.177947
N13   N     N_R   0.775151 0.258720 0.438667 -0.189057
N14   N     N_R   0.223536 0.743812 0.568126 -0.195892
N15   N     N_R   0.223496 0.741848 0.439287 -0.187314
N16   N     N_R   0.781051 0.251178 0.566649 -0.196418
N17   N     N_R   0.229511 0.263886 0.562022 -0.189704
N18   N     N_R   0.791003 0.758158 0.440573 -0.200903
N19   N     N_R   0.770884 0.738434 0.562120 -0.192827
N20   N     N_R   0.227936 0.261531 0.433297 -0.192604
N21   N     N_R   0.258050 0.776210 0.438215 -0.188790
N22   N     N_R   0.746556 0.216668 0.565812 -0.193464
N23   N     N_R   0.740809 0.224157 0.437812 -0.187196
N24   N     N_R   0.258099 0.778228 0.567055 -0.191621
N25   N     N_R   0.737898 0.774407 0.562110 -0.206118
N26   N     N_R   0.262725 0.227490 0.433623 -0.182649
N27   N     N_R   0.264138 0.229692 0.562346 -0.191242
N28   N     N_R   0.757965 0.794085 0.440536 -0.226087
O1    O     O_R   0.049930 0.450080 0.561970 -0.527050
O2    O     O_R   0.950070 0.549920 0.438030 -0.603253
O3    O     O_R   0.950070 0.549920 0.561970 -0.532465
O4    O     O_R   0.049930 0.450080 0.438030 -0.604976
O5    O     O_R   0.950070 0.450080 0.438030 -0.526014
O6    O     O_R   0.049930 0.549920 0.561970 -0.601634
O7    O     O_R   0.049930 0.549920 0.438030 -0.524558
O8    O     O_R   0.950070 0.450080 0.561970 -0.605007
O9    O     O_R   0.549930 0.950080 0.561970 -0.583363
O10   O     O_R   0.450070 0.049920 0.438030 -0.609081
O11   O     O_R   0.450070 0.049920 0.561970 -0.527239
O12   O     O_R   0.549930 0.950080 0.438030 -0.596282
O13   O     O_R   0.450070 0.950080 0.438030 -0.534379
O14   O     O_R   0.549930 0.049920 0.561970 -0.583013
O15   O     O_R   0.549930 0.049920 0.438030 -0.526745
O16   O     O_R   0.450070 0.950080 0.561970 -0.529388
O17   O     O_3   0.024646 0.585888 0.314202 -0.572735
C89   C     C_3   0.983454 0.616529 0.323058 0.073177
H17   H     H_    0.981156 0.626534 0.382357 0.170576
H18   H     H_    0.948860 0.598213 0.307052 0.122995
C90   C     C_3   0.988898 0.665441 0.280218 -0.380694
H19   H     H_    0.025145 0.681516 0.290341 0.251021
H20   H     H_    0.984885 0.658165 0.220335 0.239109
C91   C     C_3   0.950703 0.703380 0.303251 -0.886387
H21   H     H_    0.914183 0.688310 0.292060 0.286562
H22   H     H_    0.955532 0.738459 0.271428 0.265617
H23   H     H_    0.953920 0.712228 0.362934 0.250896
O18   O     O_3   0.022344 0.413583 0.685649 -0.577331
C92   C     C_3   0.980743 0.383604 0.675692 0.076209
H24   H     H_    0.980345 0.371645 0.617024 0.170435
H25   H     H_    0.946118 0.403332 0.686945 0.130531
C93   C     C_3   0.983221 0.336277 0.722824 -0.381123
H26   H     H_    0.019989 0.320299 0.720170 0.251069
H27   H     H_    0.974926 0.345666 0.781034 0.233859
C94   C     C_3   0.947076 0.297089 0.696403 -0.888368
H28   H     H_    0.909960 0.312273 0.699160 0.282265
H29   H     H_    0.949307 0.263494 0.732128 0.267519
H30   H     H_    0.955045 0.285708 0.638739 0.247011
O19   O     O_3   0.977259 0.413643 0.314360 -0.580186
C95   C     C_3   0.019621 0.384724 0.322801 0.074038
H31   H     H_    0.019901 0.370784 0.380463 0.168775
H32   H     H_    0.053733 0.406013 0.314080 0.136467
C96   C     C_3   0.019122 0.339196 0.271567 -0.386842
H33   H     H_    0.982905 0.321759 0.271931 0.250951
H34   H     H_    0.027597 0.351130 0.214484 0.233634
C97   C     C_3   0.056365 0.300506 0.295329 -0.885009
H35   H     H_    0.092963 0.317178 0.294619 0.278721
H36   H     H_    0.055525 0.268212 0.256761 0.267881
H37   H     H_    0.048375 0.286748 0.351775 0.247694
O20   O     O_3   0.982630 0.587650 0.685328 -0.580812
C98   C     C_3   0.027014 0.613703 0.680384 0.075287
H38   H     H_    0.027978 0.631566 0.625136 0.173226
H39   H     H_    0.059298 0.589077 0.684679 0.140468
C99   C     C_3   0.031084 0.655134 0.738455 -0.400666
H40   H     H_    0.996637 0.675718 0.742637 0.247791
H41   H     H_    0.039427 0.638368 0.792893 0.231705
C100  C     C_3   0.071140 0.691933 0.719082 -0.865688
H42   H     H_    0.106134 0.672125 0.715068 0.279543
H43   H     H_    0.073826 0.721024 0.762673 0.266175
H44   H     H_    0.063364 0.710583 0.665692 0.247327
O21   O     O_3   0.528526 0.084734 0.314490 -0.567799
C101  C     C_3   0.488748 0.116728 0.327254 0.082907
H45   H     H_    0.487813 0.124833 0.387274 0.169383
H46   H     H_    0.453114 0.100551 0.311452 0.126995
C102  C     C_3   0.495791 0.166688 0.287661 -0.375527
H47   H     H_    0.533221 0.180072 0.296000 0.245952
H48   H     H_    0.489512 0.161721 0.227694 0.239903
C103  C     C_3   0.460954 0.206244 0.316559 -0.910255
H49   H     H_    0.423217 0.193691 0.308626 0.274140
H50   H     H_    0.466403 0.241761 0.286045 0.268805
H51   H     H_    0.467396 0.213392 0.376136 0.246962
O22   O     O_3   0.488679 0.912065 0.681751 -0.546477
C104  C     C_3   0.528356 0.879088 0.685460 0.085894
H52   H     H_    0.531786 0.862136 0.740915 0.137916
H53   H     H_    0.562692 0.898461 0.672781 0.123006
C105  C     C_3   0.519888 0.836739 0.629956 -0.288664
H54   H     H_    0.485061 0.818220 0.642611 0.234483
H55   H     H_    0.517522 0.852310 0.573318 0.206174
C106  C     C_3   0.559647 0.797540 0.632373 -0.929196
H56   H     H_    0.594320 0.814063 0.614921 0.258608
H57   H     H_    0.550695 0.766503 0.593951 0.261985
H58   H     H_    0.563336 0.782065 0.688882 0.262493
O23   O     O_3   0.469428 0.916084 0.313208 -0.564475
C107  C     C_3   0.508030 0.882022 0.321524 0.071897
H59   H     H_    0.512874 0.875713 0.381489 0.170255
H60   H     H_    0.542946 0.895387 0.298377 0.100072
C108  C     C_3   0.495449 0.831545 0.286311 -0.374476
H61   H     H_    0.457816 0.821267 0.299930 0.249021
H62   H     H_    0.498630 0.834207 0.225494 0.240355
C109  C     C_3   0.528921 0.790166 0.313215 -0.918860
H63   H     H_    0.566682 0.798798 0.298359 0.271461
H64   H     H_    0.518657 0.754148 0.286971 0.267339
H65   H     H_    0.526249 0.785951 0.373993 0.255676
O24   O     O_3   0.498574 0.088681 0.681106 -0.561224
C110  C     C_3   0.540908 0.117576 0.690328 0.095879
H66   H     H_    0.573371 0.095983 0.674266 0.140723
H67   H     H_    0.545942 0.130037 0.748123 0.139785
C111  C     C_3   0.536704 0.164349 0.642309 -0.322114
H68   H     H_    0.533431 0.153422 0.583413 0.204118
H69   H     H_    0.503625 0.184920 0.658036 0.224503
C112  C     C_3   0.579728 0.199206 0.651833 -0.900763
H70   H     H_    0.581389 0.213390 0.709381 0.266918
H71   H     H_    0.576065 0.231547 0.613905 0.247027
H72   H     H_    0.613663 0.179390 0.638883 0.271948
C113  C     C_2   0.037482 0.585312 0.159988 0.878641
O25   O     O_2   0.073154 0.605961 0.185210 -0.546532
O26   O     O_R   0.016440 0.603383 0.095256 -0.746047
H73   H     H_    0.034181 0.633311 0.074374 0.347910
C114  C     C_2   0.034602 0.413816 0.840315 0.879384
O27   O     O_2   0.069674 0.392204 0.815086 -0.549108
O28   O     O_R   0.013414 0.396593 0.905429 -0.753450
H74   H     H_    0.030496 0.366345 0.926504 0.344863
C115  C     C_2   0.960849 0.414392 0.160767 0.879663
O29   O     O_2   0.926156 0.393098 0.187775 -0.549100
O30   O     O_R   0.980396 0.396886 0.094540 -0.754655
H75   H     H_    0.962528 0.366778 0.074279 0.345071
C116  C     C_2   0.961177 0.586603 0.837483 0.882535
O31   O     O_2   0.975206 0.600186 0.898235 -0.582987
O32   O     O_R   0.924809 0.613400 0.801868 -0.728187
H76   H     H_    0.913266 0.643129 0.831765 0.331972
C117  C     C_2   0.537880 0.085992 0.161004 0.892898
O33   O     O_2   0.518459 0.103290 0.106181 -0.570239
O34   O     O_R   0.579467 0.108485 0.189060 -0.716407
H77   H     H_    0.589905 0.138620 0.159214 0.338120
C118  C     C_2   0.484999 0.907634 0.840007 0.869534
O35   O     O_2   0.507671 0.896696 0.895470 -0.574299
O36   O     O_R   0.449448 0.875254 0.813426 -0.714378
H78   H     H_    0.445946 0.844083 0.844718 0.339027
C119  C     C_2   0.459506 0.915761 0.159923 0.892294
O37   O     O_2   0.479004 0.897908 0.105485 -0.577019
O38   O     O_R   0.417134 0.894436 0.186961 -0.716921
H79   H     H_    0.406221 0.864549 0.156774 0.337368
C120  C     C_2   0.487671 0.093834 0.838653 0.866588
O39   O     O_2   0.507275 0.103831 0.897227 -0.561489
O40   O     O_R   0.455781 0.128084 0.807083 -0.721810
H80   H     H_    0.452039 0.159562 0.837804 0.338321
O41   O     O_3   0.803631 0.344391 0.622473 -0.591152
C121  C     C_3   0.759133 0.367447 0.605641 0.088460
H81   H     H_    0.730778 0.347350 0.636964 0.180718
H82   H     H_    0.748882 0.364485 0.546225 0.120087
C122  C     C_3   0.759368 0.422366 0.630006 -0.366390
H83   H     H_    0.769871 0.424843 0.689047 0.240716
H84   H     H_    0.785939 0.443667 0.596854 0.215115
C123  C     C_3   0.710005 0.446209 0.619872 -0.891879
H85   H     H_    0.699110 0.444734 0.560961 0.254150
H86   H     H_    0.711401 0.485963 0.637605 0.265438
H87   H     H_    0.682759 0.426405 0.653778 0.257570
O42   O     O_3   0.128321 0.722168 0.398975 -0.577350
C124  C     C_3   0.104520 0.763626 0.431288 0.083355
H88   H     H_    0.117875 0.797951 0.403564 0.178945
H89   H     H_    0.112554 0.768544 0.491217 0.119060
C125  C     C_3   0.050119 0.759939 0.419057 -0.378993
H90   H     H_    0.042600 0.758270 0.358957 0.241199
H91   H     H_    0.035959 0.725386 0.445153 0.205529
C126  C     C_3   0.024018 0.804850 0.452040 -0.911593
H92   H     H_    0.030983 0.807234 0.512255 0.254476
H93   H     H_    0.984718 0.800717 0.443105 0.259092
H94   H     H_    0.036262 0.839943 0.425237 0.261358
O43   O     O_3   0.205436 0.646116 0.613088 -0.590664
C127  C     C_3   0.248261 0.624338 0.585626 0.088575
H95   H     H_    0.278734 0.641083 0.616704 0.181057
H96   H     H_    0.255028 0.632717 0.526228 0.119997
C128  C     C_3   0.248333 0.567662 0.598343 -0.363450
H97   H     H_    0.240464 0.559752 0.657262 0.241104
H98   H     H_    0.220056 0.549787 0.563950 0.213801
C129  C     C_3   0.296783 0.544738 0.578194 -0.904300
H99   H     H_    0.305208 0.551939 0.519301 0.255921
H100  H     H_    0.295517 0.503689 0.587200 0.260871
H101  H     H_    0.325703 0.560812 0.613256 0.260041
O44   O     O_3   0.864609 0.284670 0.385594 -0.573333
C130  C     C_3   0.889092 0.240353 0.406011 0.088258
H102  H     H_    0.871894 0.208727 0.376129 0.182684
H103  H     H_    0.886340 0.231332 0.465973 0.114846
C131  C     C_3   0.941949 0.243242 0.383014 -0.366891
H104  H     H_    0.944128 0.250569 0.322866 0.242461
H105  H     H_    0.959982 0.274350 0.412936 0.205733
C132  C     C_3   0.968176 0.194532 0.399931 -0.916089
H106  H     H_    0.965364 0.185658 0.459548 0.257101
H107  H     H_    0.006737 0.198352 0.385198 0.259440
H108  H     H_    0.952460 0.163296 0.367385 0.262827
O45   O     O_3   0.203848 0.354973 0.382693 -0.589112
C133  C     C_3   0.246567 0.379806 0.404614 0.088172
H109  H     H_    0.276473 0.363916 0.371471 0.182012
H110  H     H_    0.256188 0.373349 0.463611 0.119713
C134  C     C_3   0.243300 0.436051 0.388960 -0.365822
H111  H     H_    0.232293 0.441994 0.330708 0.241978
H112  H     H_    0.215909 0.453342 0.425497 0.213378
C135  C     C_3   0.291402 0.461969 0.402443 -0.900746
H113  H     H_    0.303145 0.456354 0.460376 0.255164
H114  H     H_    0.287628 0.502711 0.392192 0.262421
H115  H     H_    0.319219 0.446817 0.364619 0.259993
O46   O     O_3   0.852997 0.702881 0.629661 -0.578209
C136  C     C_3   0.880995 0.747137 0.626804 0.089870
H116  H     H_    0.861721 0.776320 0.658896 0.183529
H117  H     H_    0.885519 0.762438 0.569948 0.117273
C137  C     C_3   0.930180 0.738433 0.662349 -0.362714
H118  H     H_    0.924992 0.723939 0.719181 0.242459
H119  H     H_    0.950556 0.710279 0.629879 0.215953
C138  C     C_3   0.959451 0.786659 0.665798 -0.916411
H120  H     H_    0.965156 0.801719 0.609456 0.256742
H121  H     H_    0.995020 0.778985 0.691120 0.265223
H122  H     H_    0.940564 0.815086 0.699817 0.263179
O47   O     O_3   0.816248 0.670098 0.370843 -0.598335
C139  C     C_3   0.770308 0.647205 0.371557 0.091665
H123  H     H_    0.745712 0.671374 0.339082 0.187515
H124  H     H_    0.754251 0.644279 0.427829 0.126196
C140  C     C_3   0.772322 0.595519 0.335020 -0.375360
H125  H     H_    0.788686 0.598886 0.279347 0.239685
H126  H     H_    0.794922 0.570036 0.368638 0.216644
C141  C     C_3   0.722245 0.572714 0.327676 -0.880336
H127  H     H_    0.705500 0.568373 0.382893 0.255031
H128  H     H_    0.724932 0.535269 0.301407 0.265106
H129  H     H_    0.699046 0.596833 0.292819 0.258839
O48   O     O_3   0.138784 0.286363 0.611547 -0.573894
C142  C     C_3   0.115929 0.241784 0.587678 0.090645
H130  H     H_    0.133431 0.210074 0.616661 0.184362
H131  H     H_    0.120117 0.234202 0.527426 0.115843
C143  C     C_3   0.062585 0.242469 0.608356 -0.369888
H132  H     H_    0.059013 0.248727 0.668654 0.242614
H133  H     H_    0.044175 0.273406 0.578883 0.205307
C144  C     C_3   0.038165 0.193196 0.588251 -0.914863
H134  H     H_    0.042321 0.185455 0.528423 0.257178
H135  H     H_    0.999256 0.195460 0.601450 0.258882
H136  H     H_    0.054212 0.161964 0.620158 0.263033
O49   O     O_3   0.281931 0.877479 0.604408 -0.578291
C145  C     C_3   0.243151 0.903708 0.571764 0.083912
H137  H     H_    0.210377 0.894833 0.604190 0.181880
H138  H     H_    0.235533 0.891553 0.514014 0.120185
C146  C     C_3   0.251588 0.960437 0.574573 -0.372324
H139  H     H_    0.261101 0.971776 0.631750 0.246936
H140  H     H_    0.281828 0.970629 0.537536 0.204100
C147  C     C_3   0.206950 0.989129 0.550195 -0.915810
H141  H     H_    0.196582 0.978171 0.493268 0.255321
H142  H     H_    0.214569 0.029908 0.551112 0.255790
H143  H     H_    0.176514 0.981386 0.588114 0.263516
O50   O     O_3   0.646880 0.211727 0.399002 -0.578656
C148  C     C_3   0.627217 0.254978 0.432669 0.084669
H144  H     H_    0.644824 0.288023 0.407218 0.182988
H145  H     H_    0.634618 0.257580 0.493124 0.113968
C149  C     C_3   0.573033 0.258071 0.418189 -0.377464
H146  H     H_    0.566229 0.255374 0.357944 0.241996
H147  H     H_    0.554383 0.226584 0.446025 0.204670
C150  C     C_3   0.552196 0.307110 0.446852 -0.907892
H148  H     H_    0.558160 0.310419 0.507220 0.253211
H149  H     H_    0.512968 0.308036 0.435731 0.260348
H150  H     H_    0.569292 0.339385 0.418634 0.260958
O51   O     O_3   0.719479 0.120413 0.603441 -0.589089
C151  C     C_3   0.754538 0.087200 0.574922 0.093438
H151  H     H_    0.789921 0.099178 0.597283 0.176373
H152  H     H_    0.757935 0.088562 0.513552 0.120104
C152  C     C_3   0.744598 0.033468 0.600419 -0.381494
H153  H     H_    0.739572 0.032989 0.661216 0.233285
H154  H     H_    0.711289 0.019186 0.574020 0.210797
C153  C     C_3   0.785772 0.998431 0.580089 -0.885767
H155  H     H_    0.791075 0.997886 0.519387 0.256702
H156  H     H_    0.777128 0.959901 0.598703 0.279875
H157  H     H_    0.819567 0.010677 0.607352 0.254039
O52   O     O_3   0.353422 0.787538 0.397111 -0.580064
C154  C     C_3   0.372064 0.743493 0.429726 0.083348
H158  H     H_    0.353361 0.711086 0.404101 0.179385
H159  H     H_    0.365190 0.740786 0.490281 0.120418
C155  C     C_3   0.425965 0.738886 0.414147 -0.378867
H160  H     H_    0.432019 0.739516 0.353614 0.241288
H161  H     H_    0.445389 0.770937 0.439413 0.209766
C156  C     C_3   0.446407 0.690458 0.445462 -0.899664
H162  H     H_    0.441541 0.689406 0.506235 0.257243
H163  H     H_    0.485429 0.688305 0.433030 0.261752
H164  H     H_    0.428208 0.657606 0.420247 0.258257
O53   O     O_3   0.672637 0.816611 0.372841 -0.600280
C157  C     C_3   0.692055 0.847574 0.316796 0.080296
H165  H     H_    0.727766 0.832214 0.301385 0.186315
H166  H     H_    0.698120 0.887379 0.333589 0.125330
C158  C     C_3   0.659454 0.846180 0.248871 -0.365410
H167  H     H_    0.653583 0.806718 0.231628 0.237881
H168  H     H_    0.624139 0.862991 0.262633 0.207061
C159  C     C_3   0.681363 0.875194 0.184768 -0.866456
H169  H     H_    0.686762 0.915005 0.200411 0.259496
H170  H     H_    0.656745 0.873576 0.136600 0.270196
H171  H     H_    0.716421 0.858608 0.168676 0.255964
O54   O     O_3   0.354980 0.210333 0.611083 -0.575165
C160  C     C_3   0.376157 0.255622 0.586885 0.093614
H172  H     H_    0.358816 0.286566 0.617979 0.185233
H173  H     H_    0.369833 0.263578 0.527234 0.111125
C161  C     C_3   0.430119 0.256067 0.603688 -0.378283
H174  H     H_    0.435964 0.246038 0.662457 0.244568
H175  H     H_    0.448601 0.228071 0.568367 0.199910
C162  C     C_3   0.452107 0.307392 0.589238 -0.902249
H176  H     H_    0.446901 0.318135 0.530658 0.254017
H177  H     H_    0.491210 0.306233 0.601330 0.259963
H178  H     H_    0.435227 0.336005 0.625349 0.261674
O55   O     O_3   0.289003 0.134744 0.388061 -0.583264
C163  C     C_3   0.260583 0.091112 0.397256 0.053684
H179  H     H_    0.222882 0.103029 0.407195 0.165768
H180  H     H_    0.271073 0.067151 0.445134 0.128475
C164  C     C_3   0.262282 0.059838 0.326612 -0.317491
H181  H     H_    0.247264 0.081968 0.280186 0.237191
H182  H     H_    0.300180 0.050384 0.313322 0.222028
C165  C     C_3   0.233634 0.011448 0.334707 -0.900709
H183  H     H_    0.249594 0.987719 0.378563 0.258143
H184  H     H_    0.234510 0.990336 0.281941 0.271910
H185  H     H_    0.195614 0.019799 0.348727 0.253096
O56   O     O_3   0.712710 0.867479 0.621854 -0.603601
C166  C     C_3   0.689752 0.868108 0.691605 0.086781
H186  H     H_    0.706369 0.838345 0.725810 0.176226
H187  H     H_    0.650691 0.858955 0.689719 0.120403
C167  C     C_3   0.698531 0.918460 0.729877 -0.381512
H188  H     H_    0.737394 0.922209 0.743063 0.231187
H189  H     H_    0.688667 0.949758 0.692735 0.214565
C168  C     C_3   0.669330 0.922842 0.800795 -0.875357
H190  H     H_    0.630248 0.920942 0.788345 0.246122
H191  H     H_    0.677091 0.959271 0.827823 0.266308
H192  H     H_    0.678955 0.892251 0.839423 0.264338

loop_
_geom_bond_atom_site_label_1
_geom_bond_atom_site_label_2
_ccdc_geom_bond_type
O55   C163  S    
C69   N8    A    
C144  H134  S    
C136  H117  S    
C126  H92   S    
C152  C153  S    
C42   C58   A    
C66   C85   S    
N6    N7    A    
C108  C109  S    
C94   H29   S    
C90   H19   S    
C41   H13   S    
C46   C62   A    
C161  H174  S    
C55   O51   S    
C88   N25   A    
C61   C82   S    
C4    O6    A    
C6    O10   A    
O40   H80   S    
O50   C148  S    
C121  H81   S    
C9    C13   A    
C97   H35   S    
Cu2   O2    S    
C95   C96   S    
C108  H61   S    
C135  H113  S    
C137  C138  S    
Cu2   O7    S    
C149  C150  S    
N17   N27   A    
N18   N28   A    
C5    O12   A    
C58   O54   S    
C114  O27   D    
C111  H69   S    
C82   N16   A    
C147  H141  S    
C162  H178  S    
C44   C79   A    
C131  H105  S    
C115  O30   S    
C2    O2    A    
C125  C126  S    
O30   H75   S    
C24   N2    A    
C9    C70   S    
C148  C149  S    
C138  H121  S    
C11   C72   S    
C153  H156  S    
C15   C115  S    
C29   C45   A    
C97   H37   S    
C8    O14   A    
C106  H56   S    
Cu3   O14   S    
C16   C116  S    
C6    C80   S    
O19   C95   S    
C12   C20   A    
O44   C130  S    
N16   N22   A    
C123  H85   S    
C42   H14   S    
C89   H17   S    
C1    O4    A    
C93   H26   S    
C62   C81   S    
C90   C91   S    
C120  O40   S    
C35   C51   A    
C157  H166  S    
C146  C147  S    
C83   N18   A    
C152  H153  S    
C28   O24   S    
C162  H176  S    
C116  O32   S    
O42   C124  S    
C133  C134  S    
C161  C162  S    
C51   C64   A    
C150  H150  S    
C52   C63   A    
C151  H152  S    
Cu2   O4    S    
Cu4   N3    S    
C52   O48   S    
C126  H94   S    
C70   N7    A    
C38   C78   A    
C63   C84   S    
C17   C25   A    
O54   C160  S    
C9    C15   A    
C124  H89   S    
C10   C16   A    
O53   C157  S    
C85   N23   A    
C86   N24   A    
C135  H115  S    
C159  H170  S    
C110  C111  S    
C33   H5    S    
C60   O56   S    
C168  H190  S    
Cu2   O5    S    
C49   O45   S    
O52   C154  S    
C7    O16   A    
C10   C69   S    
C105  H54   S    
C150  H148  S    
C134  H111  S    
Cu4   O13   S    
C21   O17   S    
C40   C77   A    
C101  H46   S    
C113  O26   S    
C158  H167  S    
C146  H139  S    
C20   C120  S    
C147  H143  S    
Cu1   O6    S    
C91   H22   S    
C84   N20   A    
C99   H40   S    
C46   O42   S    
C142  H130  S    
C3    O5    A    
C139  C140  S    
C47   C62   A    
Cu3   O11   S    
C156  H162  S    
C142  C143  S    
C164  H182  S    
C115  O29   D    
C81   N15   A    
C159  H169  S    
C126  H93   S    
C166  H187  S    
C118  O35   D    
C30   C74   A    
C132  H107  S    
C145  H137  S    
C113  O25   D    
C133  H110  S    
C33   C75   A    
C93   C94   S    
C60   C67   A    
C5    C79   S    
C53   C65   A    
C36   C52   A    
C43   C59   A    
C7    C77   S    
C37   C53   A    
C100  H44   S    
C95   H32   S    
C27   N3    A    
C92   H25   S    
C122  H83   S    
C102  H48   S    
C87   N26   A    
O48   C142  S    
C107  H59   S    
C160  H173  S    
C149  H147  S    
C70   N5    A    
C129  H100  S    
C35   C76   A    
C5    O9    A    
Cu4   O10   S    
C39   C78   A    
C137  H118  S    
C10   C14   A    
C106  H58   S    
Cu3   Cu4   S    
C30   H2    S    
C31   C74   A    
C40   C56   A    
C43   C80   A    
Cu1   N2    S    
C138  H120  S    
C125  H91   S    
Cu3   N4    S    
C168  H192  S    
C36   C75   A    
N20   N26   A    
C22   O18   S    
C141  H128  S    
C164  H181  S    
C105  C106  S    
C134  C135  S    
Cu4   O15   S    
C104  H52   S    
C158  C159  S    
C119  O38   S    
C100  H42   S    
C140  H126  S    
C155  H161  S    
C17   C117  S    
Cu3   O9    S    
C156  H164  S    
C1    O1    A    
C163  H179  S    
C141  H129  S    
C50   O46   S    
C30   C46   A    
C159  H171  S    
C83   N19   A    
O46   C136  S    
C152  H154  S    
C21   N1    A    
O38   H79   S    
C108  H62   S    
C54   C66   A    
C143  H133  S    
C130  C131  S    
C96   C97   S    
C161  H175  S    
O20   C98   S    
C37   H9    S    
C6    O11   A    
C57   C67   A    
C59   O55   S    
C127  H96   S    
C102  C103  S    
C121  H82   S    
O21   C101  S    
C3    C73   S    
C128  C129  S    
C97   H36   S    
C25   N3    A    
C103  H49   S    
C135  H114  S    
C109  H63   S    
C112  H72   S    
C68   C87   S    
Cu2   N1    S    
C167  H188  S    
C131  C132  S    
C107  C108  S    
O32   H76   S    
C34   C76   A    
C27   O23   S    
Cu4   O12   S    
C121  C122  S    
C56   O52   S    
C18   C26   A    
C123  H87   S    
C140  H125  S    
C147  H142  S    
C165  H183  S    
C65   C86   S    
C162  H177  S    
C28   N4    A    
C11   C19   A    
C67   C88   S    
C2    O3    A    
O18   C92   S    
C139  H124  S    
C148  H145  S    
Cu3   O16   S    
C154  C155  S    
C23   O19   S    
C33   C49   A    
O26   H73   S    
C51   O47   S    
C104  C105  S    
C24   O20   S    
C136  H116  S    
O56   C166  S    
C98   C99   S    
C99   C100  S    
C39   C55   A    
O22   C104  S    
C22   N2    A    
C89   H18   S    
C163  C164  S    
C19   C119  S    
C14   C114  S    
C93   H27   S    
C90   H20   S    
C31   C47   A    
C120  O39   D    
C32   C48   A    
C4    O7    A    
C23   N1    A    
C94   H30   S    
C130  H102  S    
C87   N27   A    
C88   N28   A    
C89   C90   S    
N9    N12   A    
O43   C127  S    
C37   C77   A    
C128  H97   S    
C91   H23   S    
C64   C83   S    
C124  H88   S    
C85   N22   A    
O47   C139  S    
C38   C54   A    
C103  H51   S    
C36   H8    S    
C43   H15   S    
C139  H123  S    
C18   C118  S    
C58   C68   A    
C105  H55   S    
Cu1   O1    S    
C114  O28   S    
C111  H68   S    
C109  H65   S    
C26   N4    A    
O23   C107  S    
C55   C66   A    
C2    C76   S    
C84   N17   A    
C131  H104  S    
C11   C17   A    
C99   H41   S    
C3    O8    A    
N19   N25   A    
C123  H86   S    
C54   O50   S    
C138  H122  S    
C154  H158  S    
C142  H131  S    
C39   H11   S    
C153  H155  S    
Cu1   O8    S    
C20   C28   A    
C81   N14   A    
C48   O44   S    
C41   C57   A    
C98   H38   S    
C91   H21   S    
C29   H1    S    
C14   C22   A    
C132  H106  S    
C116  O31   D    
C145  H138  S    
C44   C60   A    
C31   H3    S    
C45   C61   A    
C34   H6    S    
O24   C110  S    
C106  H57   S    
C96   H33   S    
C157  H165  S    
Cu1   Cu2   S    
C111  C112  S    
C145  C146  S    
C94   H28   S    
C42   C80   A    
C92   H24   S    
C49   C63   A    
C50   C64   A    
C102  H47   S    
C166  H186  S    
C151  H151  S    
C153  H157  S    
C107  H60   S    
C160  H172  S    
C141  H127  S    
C129  H101  S    
C71   N12   A    
C137  H119  S    
C117  O33   D    
C124  C125  S    
C146  H140  S    
C45   O41   S    
C150  H149  S    
C29   C73   A    
C56   C65   A    
C112  H71   S    
C168  H191  S    
N10   N11   A    
C7    O13   A    
C13   C113  S    
Cu1   O3    S    
C157  C158  S    
C72   N9    A    
C101  H45   S    
C158  H168  S    
C19   C27   A    
C119  O37   D    
C82   N13   A    
C4    C74   S    
N5    N8    A    
C15   C23   A    
C16   C24   A    
N15   N21   A    
C8    C78   S    
C155  C156  S    
N13   N23   A    
C35   H7    S    
N14   N24   A    
C156  H163  S    
C163  H180  S    
C164  C165  S    
C44   H16   S    
C69   N6    A    
C34   C50   A    
C13   C21   A    
C1    C75   S    
C53   O49   S    
C8    O15   A    
C110  H67   S    
C166  C167  S    
C32   C73   A    
C118  O36   S    
C132  H108  S    
C127  C128  S    
C134  H112  S    
C117  O34   S    
C144  H135  S    
C133  H109  S    
C59   C68   A    
C40   H12   S    
C101  C102  S    
C100  H43   S    
O41   C121  S    
C128  H98   S    
C95   H31   S    
C32   H4    S    
C103  H50   S    
C143  H132  S    
C92   C93   S    
C109  H64   S    
C122  H84   S    
C136  C137  S    
C122  C123  S    
C167  H189  S    
O34   H77   S    
C151  C152  S    
C160  C161  S    
C47   O43   S    
C149  H146  S    
C129  H99   S    
C127  H95   S    
C71   N10   A    
C12   C71   S    
C26   O22   S    
C57   O53   S    
C41   C79   A    
C165  H184  S    
O28   H74   S    
C86   N21   A    
C144  H136  S    
C143  C144  S    
O49   C145  S    
C125  H90   S    
C167  C168  S    
O36   H78   S    
C130  H103  S    
C38   H10   S    
C148  H144  S    
C154  H159  S    
C48   C61   A    
C72   N11   A    
C104  H53   S    
O45   C133  S    
C98   H39   S    
C165  H185  S    
C25   O21   S    
C140  C141  S    
C12   C18   A    
C110  H66   S    
C155  H160  S    
O17   C89   S    
C112  H70   S    
O51   C151  S    
C96   H34   S    
