data_mof_unit_41528.cif
_audit_creation_date              2012-12-10T17:51:24-0500
_audit_creation_method            fapswitch 2.2
_symmetry_space_group_name_H-M    P1
_symmetry_Int_Tables_number       1
_space_group_crystal_system       triclinic
_cell_length_a                    9.914725
_cell_length_b                    10.647384
_cell_length_c                    16.705624
_cell_angle_alpha                 92.010274
_cell_angle_beta                  85.572158
_cell_angle_gamma                 90.106832
_cell_volume                      1757.19765818

loop_
_atom_site_label
_atom_site_type_symbol
_atom_type_description
_atom_site_fract_x
_atom_site_fract_y
_atom_site_fract_z
_atom_type_partial_charge
C1    C     C_R   0.500382 0.739260 0.497675 0.852895
C2    C     C_R   0.527285 0.452315 0.262393 -0.057739
C3    C     C_R   0.378312 0.861028 0.367941 -0.228845
C4    C     C_R   0.481520 0.497985 0.653402 0.860392
C5    C     C_R   0.315720 0.922506 0.308539 -0.255174
C6    C     C_R   0.313020 0.054105 0.308746 0.511012
C7    C     C_R   0.374711 0.122602 0.368696 -0.199468
C8    C     C_R   0.436491 0.061461 0.430290 0.006754
C9    C     C_R   0.437594 0.929824 0.430140 0.099266
C10   C     C_R   0.501737 0.871169 0.491503 -0.069942
C11   C     C_R   0.568950 0.938791 0.548992 -0.219949
C12   C     C_R   0.351372 0.414861 0.771626 -0.243049
C13   C     C_R   0.568705 0.067069 0.548858 -0.194638
C14   C     C_R   0.500904 0.127696 0.491394 -0.075076
C15   C     C_R   0.847214 0.668835 0.603194 -0.131335
C16   C     C_R   0.500234 0.260433 0.497119 0.866475
C17   C     C_R   0.911031 0.752055 0.654017 -0.203526
C18   C     C_R   0.050501 0.750850 0.654796 -0.194589
C19   C     C_R   0.127019 0.666928 0.604409 -0.148694
C20   C     C_R   0.065907 0.582596 0.551230 0.163133
C21   C     C_R   0.921393 0.583020 0.550928 0.164569
C22   C     C_R   0.934722 0.420789 0.451038 -0.110664
C23   C     C_R   0.424457 0.339972 0.154676 -0.103873
C24   C     C_R   0.077847 0.420939 0.450968 -0.112061
C25   C     C_R   0.518234 0.493200 0.346782 0.835931
C26   C     C_R   0.469819 0.472689 0.739059 -0.037008
C27   C     C_R   0.579476 0.492343 0.786846 0.083227
C28   C     C_R   0.571140 0.449118 0.864713 -0.201270
C29   C     C_R   0.454922 0.386300 0.895466 0.184134
C30   C     C_R   0.343962 0.372450 0.849427 -0.187585
C31   C     C_R   0.414685 0.393568 0.231482 -0.184186
C32   C     C_R   0.650813 0.454919 0.215628 -0.190649
C33   C     C_R   0.659468 0.404190 0.137424 -0.172857
C34   C     C_R   0.545256 0.349588 0.105941 0.182731
C35   C     C_2   0.440898 0.350707 0.979274 -0.222962
C36   C     C_2   0.548636 0.323283 0.019254 -0.240349
H1    H     H_    0.753529 0.412378 0.100413 0.124274
H2    H     H_    0.319259 0.386257 0.267210 0.176402
H3    H     H_    0.099847 0.814957 0.694942 0.149171
H4    H     H_    0.233375 0.670640 0.609132 0.203050
H5    H     H_    0.136706 0.356330 0.410903 0.153472
H6    H     H_    0.739772 0.497057 0.239148 0.155180
H7    H     H_    0.646754 0.307870 0.986761 0.148556
H8    H     H_    0.251984 0.327863 0.873540 0.133823
H9    H     H_    0.336216 0.294066 0.132962 0.154274
H10   H     H_    0.265582 0.398727 0.736189 0.171884
H11   H     H_    0.341967 0.366305 0.010487 0.144195
H12   H     H_    0.618857 0.892043 0.595243 0.139114
H13   H     H_    0.654570 0.468349 0.901475 0.127443
H14   H     H_    0.781589 0.497990 0.760284 0.193792
H15   H     H_    0.711691 0.635882 0.795374 0.172928
H16   H     H_    0.214120 0.056788 0.212938 0.325074
H17   H     H_    0.381190 0.759583 0.363654 0.177252
H18   H     H_    0.270416 0.867312 0.261988 0.138049
H19   H     H_    0.374825 0.223696 0.365634 0.157358
H20   H     H_    0.618646 0.119484 0.594938 0.153822
H21   H     H_    0.886076 0.356071 0.411033 0.153009
H22   H     H_    0.739752 0.673460 0.607465 0.205414
H23   H     H_    0.851580 0.816982 0.693631 0.144304
N1    N     N_R   0.857140 0.501200 0.500750 -0.122741
N2    N     N_R   0.142740 0.501280 0.500770 -0.122020
N3    N     N_3   0.698506 0.557527 0.757278 -0.458941
O1    O     O_R   0.385310 0.683220 0.500000 -0.636061
O2    O     O_R   0.614640 0.683250 0.500010 -0.629865
O3    O     O_R   0.371780 0.500010 0.615800 -0.642849
O4    O     O_R   0.601110 0.500030 0.615800 -0.606804
O5    O     O_R   0.385360 0.316750 0.499990 -0.618137
O6    O     O_R   0.614690 0.316780 0.500000 -0.611097
O7    O     O_R   0.398890 0.499970 0.384200 -0.631612
O8    O     O_R   0.628220 0.499990 0.384200 -0.608316
O9    O     O_3   0.252120 0.118397 0.251010 -0.809539
Zn1   Zn    Zn3+2 0.346870 0.499980 0.499990 0.926608
Zn2   Zn    Zn3+2 0.653130 0.500020 0.500010 0.944503

loop_
_geom_bond_atom_site_label_1
_geom_bond_atom_site_label_2
_ccdc_geom_bond_type
C8    C9    A    
O7    Zn1   S    
C4    C26   S    
C18   H3    S    
C6    C7    A    
C3    C9    A    
C27   N3    S    
O3    Zn1   S    
C11   C13   A    
C9    C10   A    
N1    Zn2   S    
C35   C36   D    
C31   H2    S    
C7    H19   S    
O2    Zn2   S    
C13   H20   S    
C35   H11   S    
C32   C33   A    
C23   C34   A    
O8    Zn2   S    
C17   C18   A    
C26   C27   A    
C7    C8    A    
C16   O5    A    
H16   O9    S    
C13   C14   A    
O1    Zn1   S    
C4    O4    A    
C24   H5    S    
C3    H17   S    
C30   H8    S    
C11   H12   S    
C29   C30   A    
H15   N3    S    
C22   H21   S    
C24   N2    A    
C23   H9    S    
C1    O1    A    
N2    Zn1   S    
C12   H10   S    
C28   C29   A    
C17   H23   S    
C33   C34   A    
C2    C25   S    
C34   C36   S    
C16   O6    A    
C22   N1    A    
C5    C6    A    
H14   N3    S    
C15   H22   S    
C14   C16   S    
C25   O7    A    
C19   H4    S    
C20   N2    A    
C1    O2    A    
C5    H18   S    
C15   C21   A    
O5    Zn1   S    
C20   C21   A    
C21   N1    A    
C2    C32   A    
C18   C19   A    
C10   C11   A    
C22   C24   A    
C27   C28   A    
C15   C17   A    
C29   C35   S    
C4    O3    A    
C2    C31   A    
C36   H7    S    
C32   H6    S    
C25   O8    A    
C8    C14   A    
C12   C30   A    
O6    Zn2   S    
O4    Zn2   S    
C33   H1    S    
C1    C10   S    
C19   C20   A    
C12   C26   A    
C6    O9    S    
C3    C5    A    
C28   H13   S    
C23   C31   A    
