data_mof_unit_44260.cif
_audit_creation_date              2012-12-11T15:52:14-0500
_audit_creation_method            fapswitch 2.2
_symmetry_space_group_name_H-M    P1
_symmetry_Int_Tables_number       1
_space_group_crystal_system       triclinic
_cell_length_a                    10.976335
_cell_length_b                    10.988091
_cell_length_c                    18.740616
_cell_angle_alpha                 89.983097
_cell_angle_beta                  89.872232
_cell_angle_gamma                 119.953546
_cell_volume                      1958.37359272

loop_
_atom_site_label
_atom_site_type_symbol
_atom_type_description
_atom_site_fract_x
_atom_site_fract_y
_atom_site_fract_z
_atom_type_partial_charge
C1    C     C_R   0.547671 0.420678 0.139783 0.547642
C2    C     C_3   0.030306 0.744046 0.459572 -0.278561
C3    C     C_3   0.714375 0.970210 0.459589 -0.278958
C4    C     C_3   0.255990 0.285604 0.460191 -0.279126
C5    C     C_R   0.521892 0.454020 0.355825 0.548798
C6    C     C_R   0.545732 0.067747 0.355844 0.544925
C7    C     C_R   0.931961 0.477880 0.355851 0.553862
C8    C     C_R   0.458654 0.517173 0.647234 0.534486
C9    C     C_R   0.058678 0.541562 0.647234 0.535143
C10   C     C_R   0.483013 0.941592 0.647274 0.537587
C11   C     C_R   0.496380 0.002222 0.922395 -0.012294
C12   C     C_R   0.543379 0.063045 0.146704 0.546422
C13   C     C_R   0.973589 0.487235 0.917436 0.026564
C14   C     C_R   0.516132 0.496001 0.918093 0.015338
C15   C     C_R   0.900691 0.458588 0.063303 -0.023729
C16   C     C_R   0.516725 0.016394 0.073071 -0.002189
C17   C     C_R   0.544238 0.446637 0.063301 -0.017554
C18   C     C_R   0.376671 0.951816 0.966437 0.070962
C19   C     C_R   0.971308 0.379430 0.958855 0.003561
C20   C     C_R   0.584479 0.607056 0.966350 0.018752
C21   C     C_R   0.934135 0.364749 0.030444 0.005956
C22   C     C_R   0.385626 0.956921 0.039866 -0.014790
C23   C     C_R   0.874838 0.453564 0.139985 0.537762
C24   C     C_R   0.596550 0.582520 0.037370 0.016337
C25   C     C_R   0.635765 0.057631 0.029320 -0.143074
C26   C     C_R   0.880686 0.550962 0.019716 -0.141769
C27   C     C_R   0.507482 0.339669 0.012415 -0.154668
C28   C     C_R   0.910552 0.560444 0.946655 -0.113099
C29   C     C_R   0.626956 0.055725 0.955436 -0.181045
C30   C     C_R   0.489783 0.362880 0.940073 -0.186331
C31   C     C_3   0.250219 0.970153 0.967627 0.117390
C32   C     C_3   0.078634 0.335894 0.972087 0.155440
C33   C     C_3   0.565092 0.728862 0.983822 0.163855
C34   C     C_R   0.460765 0.518554 0.851510 0.613848
C35   C     C_3   0.041217 0.324647 0.050831 0.111655
C36   C     C_3   0.251532 0.959793 0.048966 0.139406
C37   C     C_3   0.578536 0.700882 0.062665 0.099331
C38   C     C_R   0.514135 0.015660 0.579898 0.017297
C39   C     C_R   0.984905 0.498807 0.579858 0.018335
C40   C     C_R   0.501644 0.486140 0.579807 0.018085
C41   C     C_R   0.960771 0.485476 0.431373 0.014959
C42   C     C_R   0.524541 0.039038 0.431404 0.017026
C43   C     C_R   0.514261 0.475219 0.431331 0.015718
C44   C     C_R   0.634106 0.038686 0.542117 0.029409
C45   C     C_R   0.059111 0.540635 0.852358 0.609700
C46   C     C_R   0.961993 0.595714 0.542202 0.030025
C47   C     C_R   0.404841 0.366115 0.542383 0.030189
C48   C     C_R   0.951255 0.588824 0.469626 0.041998
C49   C     C_R   0.637683 0.048948 0.469520 0.043611
C50   C     C_R   0.411392 0.362249 0.469782 0.042114
C51   C     C_R   0.416276 0.043883 0.469433 -0.160807
C52   C     C_R   0.955933 0.372516 0.469348 -0.160959
C53   C     C_R   0.627288 0.583574 0.468988 -0.160634
C54   C     C_R   0.966347 0.378404 0.543967 -0.165307
C55   C     C_R   0.411962 0.033891 0.544068 -0.165679
C56   C     C_R   0.480467 0.941323 0.851758 0.582847
C57   C     C_R   0.621776 0.588140 0.543611 -0.165465
C58   C     C_3   0.711173 0.957629 0.539798 -0.270177
C59   C     C_3   0.043450 0.753597 0.539742 -0.270092
C60   C     C_3   0.246706 0.289048 0.540393 -0.269708
Cr1   Cr    Cr6+3 0.769160 0.541570 0.250690 1.010966
Cr2   Cr    Cr6+3 0.458430 0.227590 0.250690 1.042765
Cr3   Cr    Cr6+3 0.772410 0.230840 0.250690 1.004321
Cr4   Cr    Cr6+3 0.541570 0.769160 0.749310 1.019368
Cr5   Cr    Cr6+3 0.227590 0.458430 0.749310 1.027918
Cr6   Cr    Cr6+3 0.230840 0.772410 0.749310 1.016038
H1    H     H_    0.738117 0.097536 0.052109 0.228033
H2    H     H_    0.126483 0.403109 0.085789 0.143138
H3    H     H_    0.165632 0.860192 0.072099 0.170836
H4    H     H_    0.483108 0.667222 0.096403 0.109599
H5    H     H_    0.333390 0.050153 0.441673 0.130097
H6    H     H_    0.949276 0.283245 0.441547 0.130336
H7    H     H_    0.716350 0.666306 0.440950 0.130383
H8    H     H_    0.972234 0.295799 0.572407 0.119433
H9    H     H_    0.323242 0.027753 0.572594 0.119458
H10   H     H_    0.704324 0.676772 0.571840 0.119503
H11   H     H_    0.645168 0.847436 0.557628 0.170029
H12   H     H_    0.850767 0.622226 0.042865 0.168184
H13   H     H_    0.153817 0.797376 0.557165 0.170026
H14   H     H_    0.202257 0.354983 0.558082 0.170379
H15   H     H_    0.964009 0.785562 0.438088 0.135645
H16   H     H_    0.822008 0.036435 0.437722 0.135591
H17   H     H_    0.214750 0.178028 0.438632 0.135430
H18   H     H_    0.817107 0.015950 0.564537 0.123909
H19   H     H_    0.985455 0.801475 0.564822 0.123958
H20   H     H_    0.199351 0.183306 0.565445 0.123580
H21   H     H_    0.132389 0.781401 0.431584 0.137693
H22   H     H_    0.649855 0.868027 0.432022 0.136486
H23   H     H_    0.489920 0.238752 0.028704 0.176861
H24   H     H_    0.218085 0.349970 0.432509 0.137235
H25   H     H_    0.116186 0.887703 0.891530 0.328034
H26   H     H_    0.276183 0.416791 0.984926 0.334461
H27   H     H_    0.386870 0.721127 0.005001 0.329403
H28   H     H_    0.975768 0.189726 0.127739 0.349780
H29   H     H_    0.174436 0.073168 0.081646 0.354969
H30   H     H_    0.695497 0.792083 0.144416 0.345059
H31   H     H_    0.898802 0.636513 0.915161 0.163552
H32   H     H_    0.721522 0.087412 0.924334 0.134233
H33   H     H_    0.450020 0.277035 0.902412 0.108796
H34   H     H_    0.269908 0.073711 0.947537 0.111096
H35   H     H_    0.053439 0.235469 0.945431 0.151841
H36   H     H_    0.652132 0.828316 0.962016 0.183101
O1    O     O_R   0.911480 0.572650 0.170990 -0.509063
O2    O     O_R   0.528970 0.640340 0.824320 -0.485585
O3    O     O_R   0.111370 0.471030 0.824320 -0.466683
O4    O     O_R   0.359660 0.888630 0.824320 -0.482725
O5    O     O_R   0.909980 0.572450 0.331530 -0.512955
O6    O     O_R   0.427550 0.337530 0.331530 -0.515521
O7    O     O_R   0.662470 0.090020 0.331530 -0.518422
O8    O     O_R   0.572450 0.909980 0.668470 -0.530486
O9    O     O_R   0.337530 0.427550 0.668470 -0.533952
O10   O     O_R   0.090020 0.662470 0.668470 -0.533342
O11   O     O_R   0.638950 0.528780 0.324500 -0.506007
O12   O     O_R   0.427350 0.338830 0.170990 -0.463905
O13   O     O_R   0.471220 0.110170 0.324500 -0.506523
O14   O     O_R   0.889830 0.361050 0.324500 -0.502529
O15   O     O_R   0.528780 0.638950 0.675500 -0.518489
O16   O     O_R   0.110170 0.471220 0.675500 -0.519763
O17   O     O_R   0.361050 0.889830 0.675500 -0.518328
O18   O     O_3   0.666667 0.333333 0.250560 -0.295798
O19   O     O_3   0.333333 0.666667 0.749440 -0.233268
O20   O     O_3   0.132607 0.855281 0.938057 -0.700047
O21   O     O_3   0.214911 0.444403 0.959258 -0.650320
O22   O     O_3   0.431113 0.702557 0.963535 -0.654599
O23   O     O_R   0.661170 0.088520 0.170990 -0.522945
O24   O     O_3   0.981552 0.185894 0.075054 -0.727893
O25   O     O_3   0.268143 0.080352 0.082996 -0.701099
O26   O     O_3   0.703117 0.808643 0.092161 -0.693928
O27   O     O_R   0.572650 0.911480 0.829010 -0.512258
O28   O     O_R   0.338830 0.427350 0.829010 -0.488015
O29   O     O_R   0.088520 0.661170 0.829010 -0.504087
O30   O     O_R   0.640340 0.528970 0.175680 -0.521977
O31   O     O_R   0.471030 0.111370 0.175680 -0.461684
O32   O     O_R   0.888630 0.359660 0.175680 -0.509647

loop_
_geom_bond_atom_site_label_1
_geom_bond_atom_site_label_2
_ccdc_geom_bond_type
C44   C49   A    
C28   H31   S    
C40   C47   A    
C11   C18   A    
C46   C59   S    
C44   C58   S    
C25   H1    S    
H27   O22   S    
C1    O30   A    
C59   H19   S    
Cr5   O28   S    
C3    C49   S    
C26   H12   S    
C29   H32   S    
C57   H10   S    
Cr1   O1    S    
Cr6   O4    S    
Cr2   O12   S    
C39   C54   A    
Cr2   O6    S    
Cr4   O19   S    
Cr6   O17   S    
C9    C39   S    
H30   O26   S    
Cr5   O9    S    
C10   O17   A    
Cr1   O30   S    
C47   C60   S    
C54   H8    S    
C43   C53   A    
C23   O1    A    
C38   C55   A    
C20   C24   A    
C52   C54   A    
H25   O20   S    
C32   H35   S    
C33   O22   S    
Cr5   O16   S    
C13   C28   A    
C10   O8    A    
Cr5   O19   S    
C41   C52   A    
Cr2   O18   S    
C56   O27   A    
C58   H11   S    
C42   C51   A    
C37   O26   S    
C55   H9    S    
C9    O10   A    
C15   C23   S    
C5    C43   S    
C37   H4    S    
C27   C30   A    
C9    O16   A    
C32   O21   S    
C51   H5    S    
C14   C30   A    
C12   C16   S    
C19   C32   S    
Cr5   O3    S    
C45   O3    A    
C8    O15   A    
C47   C50   A    
C4    H24   S    
H28   O24   S    
C25   C29   A    
C46   C48   A    
C17   C24   A    
C13   C19   A    
C33   H36   S    
C17   C27   A    
Cr3   O32   S    
C14   C20   A    
H26   O21   S    
C59   H13   S    
C60   H20   S    
C2    C59   S    
C15   C26   A    
C12   O23   A    
C2    C48   S    
C30   H33   S    
C33   C37   S    
Cr4   O15   S    
C4    C50   S    
C7    O14   A    
Cr3   O7    S    
C35   O24   S    
C32   C35   S    
C38   C44   A    
C19   C21   A    
C52   H6    S    
C58   H18   S    
Cr4   O8    S    
C4    C60   S    
C3    H16   S    
C24   C37   S    
Cr6   O19   S    
C2    H21   S    
C31   H34   S    
C56   O4    A    
Cr3   O23   S    
C39   C46   A    
C20   C33   S    
C45   O29   A    
C12   O31   A    
Cr1   O11   S    
C6    O7    A    
C7    O5    A    
C8    O9    A    
C36   O25   S    
C1    O12   A    
Cr3   O14   S    
C36   H3    S    
Cr2   O31   S    
Cr6   O29   S    
C16   C25   A    
Cr4   O2    S    
C60   H14   S    
C16   C22   A    
C40   C57   A    
C23   O32   A    
C5    O11   A    
C3    H22   S    
C18   C22   A    
C26   C28   A    
C53   H7    S    
C31   O20   S    
C53   C57   A    
C14   C34   S    
C43   C50   A    
C21   C35   S    
C22   C36   S    
C1    C17   S    
C10   C38   S    
Cr2   O13   S    
C11   C29   A    
C13   C45   S    
Cr3   O18   S    
C4    H17   S    
C35   H2    S    
C41   C48   A    
C27   H23   S    
C51   C55   A    
C7    C41   S    
Cr1   O5    S    
C34   O2    A    
C6    O13   A    
C42   C49   A    
C3    C58   S    
H29   O25   S    
C15   C21   A    
Cr4   O27   S    
C34   O28   A    
C6    C42   S    
C31   C36   S    
C2    H15   S    
C18   C31   S    
C8    C40   S    
Cr6   O10   S    
C11   C56   S    
Cr1   O18   S    
C5    O6    A    
