data_mof_unit_8635.cif
_audit_creation_date              2012-12-11T16:37:23-0500
_audit_creation_method            fapswitch 2.2
_symmetry_space_group_name_H-M    P1
_symmetry_Int_Tables_number       1
_space_group_crystal_system       triclinic
_cell_length_a                    19.506998
_cell_length_b                    6.943203
_cell_length_c                    17.70371
_cell_angle_alpha                 90.0001
_cell_angle_beta                  109.043789
_cell_angle_gamma                 89.999657
_cell_volume                      2266.5756844

loop_
_atom_site_label
_atom_site_type_symbol
_atom_type_description
_atom_site_fract_x
_atom_site_fract_y
_atom_site_fract_z
_atom_type_partial_charge
O1    O     O_R   0.561710 0.369960 0.440200 -0.538805
O2    O     O_R   0.061710 0.630040 0.940200 -0.538720
O3    O     O_R   0.412630 0.033330 0.406330 -0.540886
O4    O     O_R   0.912630 0.966670 0.906330 -0.541794
O5    O     O_R   0.438290 0.869790 0.559800 -0.540709
O6    O     O_R   0.938290 0.130210 0.059800 -0.540511
C1    C     C_R   0.385018 0.203130 0.382964 0.696424
C2    C     C_R   0.885011 0.796872 0.882974 0.695592
O7    O     O_R   0.559570 0.039810 0.430640 -0.542133
O8    O     O_R   0.059570 0.960190 0.930640 -0.542290
O9    O     O_R   0.586280 0.876320 0.584290 -0.538525
O10   O     O_R   0.086280 0.123680 0.084290 -0.537712
C3    C     C_R   0.580937 0.208994 0.415468 0.690625
C4    C     C_R   0.081114 0.791002 0.915652 0.690534
O11   O     O_R   0.413720 0.363440 0.415710 -0.538418
O12   O     O_R   0.913720 0.636560 0.915710 -0.537576
O13   O     O_3   0.508590 0.205630 0.550380 -0.369589
O14   O     O_3   0.008590 0.794370 0.050380 -0.369112
V1    V     V_3+5 0.498410 0.928130 0.490650 1.391060
V2    V     V_3+5 0.998410 0.071870 0.990650 1.391506
O15   O     O_R   0.587370 0.546990 0.593670 -0.538659
O16   O     O_R   0.087370 0.453010 0.093670 -0.539608
C5    C     C_R   0.614915 0.716842 0.617314 0.698763
C6    C     C_R   0.114922 0.283160 0.117305 0.698049
O17   O     O_R   0.440430 0.540520 0.569360 -0.542583
O18   O     O_R   0.940430 0.459480 0.069360 -0.542825
C7    C     C_R   0.419030 0.709287 0.584576 0.684463
C8    C     C_R   0.918859 0.290710 0.084398 0.684381
V3    V     V_3+5 0.501590 0.428960 0.509350 1.395291
V4    V     V_3+5 0.001590 0.571040 0.009350 1.395602
O19   O     O_3   0.491410 0.701330 0.449620 -0.369564
O20   O     O_3   0.991410 0.298670 0.949620 -0.369048
C9    C     C_R   0.314080 0.906421 0.714920 -0.144795
C10   C     C_R   0.785170 0.096924 0.181198 -0.145416
H1    H     H_    0.309601 0.042773 0.742556 0.101354
H2    H     H_    0.755973 0.963758 0.179886 0.102644
C11   C     C_R   0.360495 0.895061 0.669161 -0.163281
C12   C     C_R   0.832188 0.108089 0.136181 -0.162180
H3    H     H_    0.389341 0.023474 0.662092 0.122821
H4    H     H_    0.838286 0.982564 0.102602 0.120789
C13   C     C_R   0.370296 0.720109 0.633935 -0.052906
C14   C     C_R   0.869728 0.279497 0.133328 -0.053469
C15   C     C_R   0.332172 0.556911 0.645363 -0.164146
C16   C     C_R   0.859320 0.439255 0.177167 -0.165328
H5    H     H_    0.337881 0.420251 0.618512 0.118318
H6    H     H_    0.887599 0.573272 0.176713 0.122362
C17   C     C_R   0.284868 0.568863 0.690131 -0.141768
C18   C     C_R   0.813039 0.427313 0.223176 -0.142483
H7    H     H_    0.255054 0.441034 0.695504 0.098819
H8    H     H_    0.808009 0.552161 0.257586 0.100602
C19   C     C_R   0.275159 0.743779 0.725852 0.090606
C20   C     C_R   0.774961 0.256067 0.225719 0.090164
C21   C     C_R   0.214913 0.597371 0.818961 -0.145412
C22   C     C_R   0.685778 0.406015 0.284982 -0.144728
H9    H     H_    0.244196 0.464316 0.820364 0.102799
H10   H     H_    0.690179 0.542296 0.257253 0.101292
C23   C     C_R   0.167904 0.608527 0.863988 -0.160526
C24   C     C_R   0.639363 0.394663 0.330741 -0.162385
H11   H     H_    0.161907 0.483096 0.897670 0.121534
H12   H     H_    0.610438 0.523021 0.337707 0.123134
C25   C     C_R   0.130249 0.779806 0.866721 -0.054336
C26   C     C_R   0.629663 0.219796 0.366094 -0.053788
C27   C     C_R   0.140541 0.939445 0.822752 -0.164965
C28   C     C_R   0.667883 0.056668 0.354777 -0.162907
H13   H     H_    0.112171 0.073360 0.823102 0.122554
H14   H     H_    0.662254 0.920069 0.381721 0.118797
C29   C     C_R   0.186819 0.927509 0.776739 -0.142302
C30   C     C_R   0.715184 0.068617 0.310008 -0.141682
H15   H     H_    0.191760 0.052253 0.742231 0.100537
H16   H     H_    0.745074 0.940852 0.304728 0.098895
C31   C     C_R   0.225004 0.756390 0.774313 0.089993
C32   C     C_R   0.724799 0.243452 0.274171 0.090480
C33   C     C_R   0.804567 0.621711 0.761667 0.106769
C34   C     C_R   0.304595 0.378241 0.261622 0.106302
C35   C     C_R   0.818227 0.782785 0.812420 -0.110928
C36   C     C_R   0.318242 0.217209 0.312398 -0.111032
C37   C     C_R   0.765281 0.928517 0.794283 -0.182629
C38   C     C_R   0.265293 0.071486 0.294266 -0.181899
H17   H     H_    0.772968 0.054602 0.831862 0.131623
H18   H     H_    0.272976 0.945403 0.331845 0.132019
C39   C     C_R   0.699277 0.905780 0.731191 -0.175063
C40   C     C_R   0.199288 0.094229 0.231178 -0.174693
C41   C     C_R   0.683896 0.735752 0.684777 -0.109633
C42   C     C_R   0.183911 0.264246 0.184756 -0.109294
C43   C     C_R   0.739313 0.599088 0.699336 0.099799
C44   C     C_R   0.239343 0.400863 0.199289 0.098611
C45   C     C_3   0.737130 0.388502 0.714141 -0.425692
C46   C     C_3   0.237190 0.611477 0.214047 -0.425826
C47   C     C_3   0.808501 0.412686 0.781690 -0.386570
C48   C     C_3   0.308561 0.587292 0.281601 -0.386430
H19   H     H_    0.742141 0.301272 0.663553 0.176926
H20   H     H_    0.242210 0.698603 0.163437 0.176590
H21   H     H_    0.691209 0.348929 0.735206 0.171224
H22   H     H_    0.191275 0.651160 0.235103 0.171280
H23   H     H_    0.854809 0.340227 0.769904 0.174028
H24   H     H_    0.354879 0.659649 0.269798 0.173818
H25   H     H_    0.804078 0.385583 0.841824 0.168664
H26   H     H_    0.304144 0.614497 0.341731 0.168724
H27   H     H_    0.658724 0.017830 0.720957 0.130107
H28   H     H_    0.158731 0.982194 0.220954 0.130293

loop_
_geom_bond_atom_site_label_1
_geom_bond_atom_site_label_2
_ccdc_geom_bond_type
C24   C26   A    
V4    O20   S    
C27   H13   S    
C45   H19   S    
O13   V3    S    
C21   H9    S    
O4    C2    A    
V1    O19   S    
C17   H7    S    
O9    V1    S    
C5    C41   S    
C28   C30   A    
C36   C38   A    
C12   C14   A    
O3    C1    A    
C22   C24   A    
C38   H18   S    
C23   H11   S    
O12   V4    S    
C44   C46   S    
C8    C14   S    
C25   C27   A    
C38   C40   A    
O7    C3    A    
O13   V1    S    
O5    C7    A    
O7    V1    S    
O6    C8    A    
C3    C26   S    
C46   H20   S    
O8    V2    S    
C26   C28   A    
O3    V1    S    
O14   V4    S    
C13   C15   A    
C29   C31   A    
C18   H8    S    
C2    O12   A    
C33   C35   A    
C14   C16   A    
C39   C41   A    
C16   H6    S    
O11   V3    S    
C24   H12   S    
C46   H22   S    
C37   H17   S    
O17   V3    S    
C27   C29   A    
C43   C45   S    
O8    C4    A    
C21   C23   A    
C17   C19   A    
C1    O11   A    
C39   H27   S    
C4    C25   S    
O15   V3    S    
C2    C35   S    
C9    C11   A    
C9    C19   A    
C47   H25   S    
C29   H15   S    
C28   H14   S    
C47   H23   S    
C20   C32   S    
C15   H5    S    
C7    C13   S    
C40   H28   S    
C37   C39   A    
C30   C32   A    
O10   V2    S    
O1    V3    S    
C34   C44   A    
C23   C25   A    
C35   C37   A    
C33   C43   A    
C34   C36   A    
C30   H16   S    
C41   C43   A    
C46   C48   S    
O18   V4    S    
C40   C42   A    
O15   C5    A    
O16   C6    A    
O1    C3    A    
C21   C31   A    
V2    O20   S    
O16   V4    S    
C10   C12   A    
O18   C8    A    
C42   C44   A    
C19   C31   S    
C22   H10   S    
C48   H24   S    
C1    C36   S    
O5    V1    S    
O17   C7    A    
O6    V2    S    
O10   C6    A    
C10   C20   A    
O2    V4    S    
C34   C48   S    
C45   C47   S    
C6    C42   S    
C33   C47   S    
C11   H3    S    
C12   H4    S    
C45   H21   S    
O9    C5    A    
C9    H1    S    
C10   H2    S    
O14   V2    S    
C11   C13   A    
O2    C4    A    
O4    V2    S    
C18   C20   A    
C22   C32   A    
V3    O19   S    
C15   C17   A    
C48   H26   S    
C16   C18   A    
