data_mof_unit_31294.cif
_audit_creation_date              2012-12-10T16:58:27-0500
_audit_creation_method            fapswitch 2.2
_symmetry_space_group_name_H-M    P1
_symmetry_Int_Tables_number       1
_space_group_crystal_system       triclinic
_cell_length_a                    15.860743
_cell_length_b                    10.880215
_cell_length_c                    9.802135
_cell_angle_alpha                 90.257835
_cell_angle_beta                  88.958177
_cell_angle_gamma                 90.737478
_cell_volume                      1691.10259206

loop_
_atom_site_label
_atom_site_type_symbol
_atom_type_description
_atom_site_fract_x
_atom_site_fract_y
_atom_site_fract_z
_atom_type_partial_charge
C1    C     C_R   0.503282 0.265721 0.499197 0.818421
C2    C     C_3   0.083204 0.497825 0.501961 0.069591
C3    C     C_3   0.972637 0.611050 0.525166 0.193623
C4    C     C_3   0.916649 0.497688 0.497976 0.107103
C5    C     C_3   0.030860 0.575183 0.403426 -0.213467
C6    C     C_3   0.973888 0.460498 0.375677 -0.249090
C7    C     C_1   0.174915 0.498638 0.503259 -0.050258
C8    C     C_1   0.825005 0.498154 0.496306 -0.039158
C9    C     C_2   0.534279 0.932782 0.396142 -0.187356
C10   C     C_2   0.512474 0.866788 0.506142 -0.358529
C11   C     C_2   0.550154 0.066153 0.406308 0.127279
C12   C     C_R   0.340138 0.499771 0.501034 0.823090
C13   C     C_2   0.503456 0.132852 0.496205 -0.335130
C14   C     C_2   0.442713 0.445151 0.925892 0.231623
C15   C     C_2   0.454748 0.427283 0.076175 0.020967
C16   C     C_R   0.502574 0.734521 0.500706 0.857807
C17   C     C_R   0.659850 0.499763 0.498925 0.810391
C18   C     C_3   0.969381 0.421065 0.595804 0.161300
C19   C     C_3   0.027252 0.384032 0.474614 0.098258
C20   C     C_1   0.250448 0.499211 0.503131 -0.186264
C21   C     C_1   0.749499 0.498850 0.496642 -0.180713
C22   C     C_3   0.025801 0.534750 0.622782 0.185009
Cu1   Cu    Cu3+1 0.500020 0.500020 0.638630 0.930308
Cu2   Cu    Cu3+1 0.499980 0.499980 0.361370 0.934496
H1    H     H_    0.457679 0.089293 0.564509 0.126049
H2    H     H_    0.559978 0.495153 0.878744 0.198272
H3    H     H_    0.415526 0.358445 0.127159 0.123387
H4    H     H_    0.951386 0.430243 0.274196 0.146278
H5    H     H_    0.057024 0.639212 0.325118 0.153432
H6    H     H_    0.545896 0.887704 0.298544 0.159878
H7    H     H_    0.508665 0.909086 0.606556 0.155284
N1    N     N_2   0.499090 0.498660 0.846910 -0.288152
N2    N     N_2   0.499070 0.498630 0.153040 -0.145218
O1    O     O_R   0.500010 0.321960 0.617040 -0.577764
O2    O     O_R   0.499990 0.321920 0.382900 -0.581828
O3    O     O_R   0.379090 0.500010 0.617050 -0.575089
O4    O     O_R   0.379060 0.499970 0.382910 -0.565486
O5    O     O_R   0.500010 0.678080 0.617100 -0.570635
O6    O     O_R   0.499990 0.678040 0.382960 -0.582840
O7    O     O_R   0.620940 0.500030 0.617090 -0.579647
O8    O     O_R   0.620910 0.499990 0.382950 -0.580932
C23   C     C_3   0.062643 0.256247 0.445420 -0.388265
C24   C     C_3   0.994312 0.166297 0.396770 -0.343974
C25   C     C_3   0.030392 0.038737 0.371336 -0.858217
H8    H     H_    0.080395 0.042710 0.290591 0.255020
H9    H     H_    0.057362 0.002186 0.466506 0.254169
H10   H     H_    0.979543 0.975147 0.337433 0.241119
H11   H     H_    0.942757 0.158808 0.474416 0.229306
H12   H     H_    0.967337 0.200235 0.300348 0.217205
H13   H     H_    0.112800 0.264665 0.365225 0.197175
H14   H     H_    0.091495 0.221306 0.539912 0.196840
C26   C     C_3   0.360300 0.398144 0.871420 -0.759231
H15   H     H_    0.323339 0.346669 0.950237 0.168502
H16   H     H_    0.320736 0.476523 0.841512 0.241965
H17   H     H_    0.371348 0.333333 0.785585 0.249144
C27   C     C_3   0.552857 0.597319 0.099650 -0.516822
H18   H     H_    0.574650 0.657553 0.182553 0.224051
H19   H     H_    0.612712 0.559945 0.057727 0.149971
H20   H     H_    0.518719 0.657353 0.028466 0.173551
C28   C     C_3   0.933457 0.336644 0.706461 -0.886218
H21   H     H_    0.985449 0.286678 0.755109 0.234875
H22   H     H_    0.899677 0.392121 0.784880 0.239410
H23   H     H_    0.888394 0.269696 0.661711 0.229547
C29   C     C_3   0.940879 0.740141 0.553390 -0.879997
H24   H     H_    0.995220 0.803070 0.570955 0.236193
H25   H     H_    0.905026 0.772864 0.464714 0.232715
H26   H     H_    0.899094 0.739426 0.645430 0.237148
C30   C     C_3   0.056209 0.577088 0.761842 -0.874564
H27   H     H_    0.001168 0.598268 0.828986 0.235788
H28   H     H_    0.093508 0.503309 0.808797 0.234514
H29   H     H_    0.096328 0.660801 0.749946 0.236717
C31   C     C_3   0.618704 0.120931 0.313314 -0.367499
C32   C     C_3   0.703934 0.059696 0.336614 -0.360945
C33   C     C_3   0.773993 0.119629 0.250214 -0.873573
H30   H     H_    0.758092 0.115606 0.140378 0.258710
H31   H     H_    0.783524 0.217059 0.281446 0.254461
H32   H     H_    0.833691 0.069674 0.264797 0.245488
H33   H     H_    0.720574 0.067725 0.446054 0.224194
H34   H     H_    0.700019 0.960536 0.309362 0.219588
H35   H     H_    0.600075 0.107343 0.205463 0.188093
H36   H     H_    0.628092 0.220796 0.330470 0.219554

loop_
_geom_bond_atom_site_label_1
_geom_bond_atom_site_label_2
_ccdc_geom_bond_type
H2    N1    S    
C32   C33   S    
C2    C7    S    
C4    C8    S    
C3    C29   S    
C26   H15   S    
C6    C19   S    
C33   H31   S    
C28   H23   S    
C26   H17   S    
C5    C6    S    
Cu1   O7    S    
Cu2   O6    S    
C27   H18   S    
C28   H22   S    
C18   C19   S    
C12   O4    A    
C10   H7    S    
C6    H4    S    
C26   H16   S    
C30   H27   S    
C33   H32   S    
C2    C22   S    
Cu1   Cu2   S    
C12   O3    A    
C9    C10   D    
C31   H36   S    
C19   C23   S    
C23   H14   S    
C4    C18   S    
N2    C27   S    
Cu2   O8    S    
C13   H1    S    
C25   H9    S    
C1    O1    A    
C8    C21   T    
C5    H5    S    
C14   C26   S    
Cu2   O2    S    
C33   H30   S    
C29   H26   S    
C4    C6    S    
C11   C31   S    
C24   H12   S    
C17   C21   S    
C28   H21   S    
C17   O7    A    
C29   H25   S    
C24   C25   S    
C15   H3    S    
C32   H33   S    
Cu1   O1    S    
C12   C20   S    
Cu2   O4    S    
C32   H34   S    
C9    C11   S    
C22   C30   S    
C9    H6    S    
C23   H13   S    
C18   C28   S    
Cu1   O3    S    
C2    C5    S    
C1    C13   S    
C23   C24   S    
C3    C4    S    
C25   H8    S    
C1    O2    A    
C24   H11   S    
C2    C19   S    
C18   C22   S    
C14   N1    D    
C31   C32   S    
C3    C5    S    
C25   H10   S    
Cu1   O5    S    
Cu2   N2    S    
C27   H20   S    
C29   H24   S    
C31   H35   S    
C10   C16   S    
Cu1   N1    S    
C11   C13   D    
C30   H29   S    
C27   H19   S    
C17   O8    A    
C16   O6    A    
C30   H28   S    
C7    C20   T    
C14   C15   S    
C3    C22   S    
C15   N2    D    
C16   O5    A    
