data_mof_unit_19535.cif
_audit_creation_date              2012-12-11T15:43:18-0500
_audit_creation_method            fapswitch 2.2
_symmetry_space_group_name_H-M    P1
_symmetry_Int_Tables_number       1
_space_group_crystal_system       triclinic
_cell_length_a                    19.312665
_cell_length_b                    11.06631
_cell_length_c                    18.764639
_cell_angle_alpha                 90.271834
_cell_angle_beta                  89.394283
_cell_angle_gamma                 90.652252
_cell_volume                      4009.85065506

loop_
_atom_site_label
_atom_site_type_symbol
_atom_type_description
_atom_site_fract_x
_atom_site_fract_y
_atom_site_fract_z
_atom_type_partial_charge
C1    C     C_R   0.729556 0.374061 0.145501 0.547734
C2    C     C_R   0.288306 0.328905 0.860800 0.568693
C3    C     C_R   0.229601 0.874255 0.145600 0.548827
C4    C     C_R   0.788508 0.828549 0.860711 0.568495
C5    C     C_R   0.529940 0.387172 0.928883 0.035451
C6    C     C_R   0.493164 0.397688 0.076481 0.043616
C7    C     C_R   0.031373 0.883692 0.928070 0.036522
C8    C     C_R   0.994748 0.898566 0.075577 0.043868
C9    C     C_R   0.031848 0.993898 0.965026 -0.132833
C10   C     C_R   0.012229 0.001491 0.035987 -0.142322
C11   C     C_R   0.530044 0.496349 0.967013 -0.133195
C12   C     C_R   0.510218 0.501830 0.037933 -0.142516
C13   C     C_R   0.778904 0.840774 0.937499 0.007859
C14   C     C_R   0.246556 0.904672 0.072898 0.018137
C15   C     C_R   0.278615 0.341380 0.937602 0.008293
C16   C     C_R   0.746463 0.404081 0.072682 0.018823
C17   C     C_R   0.715513 0.816696 0.971784 0.012866
C18   C     C_R   0.271350 0.813871 0.026912 0.043679
C19   C     C_R   0.216011 0.313539 0.972752 0.013636
C20   C     C_R   0.769485 0.312264 0.026351 0.043387
C21   C     C_R   0.705477 0.842309 0.043579 -0.008605
C22   C     C_R   0.270703 0.827817 0.953985 -0.029070
C23   C     C_R   0.206277 0.339369 0.044553 -0.008455
C24   C     C_R   0.768083 0.325985 0.953428 -0.030784
C25   C     C_R   0.822602 0.914313 0.049532 -0.178113
C26   C     C_R   0.209722 0.013878 0.969732 -0.137788
C27   C     C_R   0.322280 0.417048 0.049080 -0.176287
C28   C     C_R   0.710591 0.515330 0.969865 -0.136884
C29   C     C_R   0.833957 0.882125 0.978783 -0.163901
C30   C     C_R   0.212157 0.002265 0.042903 -0.151850
C31   C     C_R   0.333467 0.385044 0.978363 -0.163814
C32   C     C_R   0.713195 0.503195 0.043041 -0.152028
C33   C     C_3   0.643532 0.853554 0.953423 -0.111639
C34   C     C_3   0.337896 0.744907 0.022323 -0.107830
C35   C     C_3   0.142639 0.344323 0.955760 -0.113058
C36   C     C_3   0.834769 0.239774 0.020795 -0.107591
C37   C     C_3   0.632635 0.879982 0.032450 -0.251071
C38   C     C_3   0.334531 0.757344 0.941248 -0.275983
C39   C     C_3   0.132279 0.371169 0.034807 -0.250682
C40   C     C_3   0.830064 0.251190 0.939754 -0.276096
C41   C     C_R   0.757316 0.900999 0.082217 0.004813
C42   C     C_R   0.245223 0.932978 0.924651 0.024577
C43   C     C_R   0.257479 0.401191 0.082368 0.005922
C44   C     C_R   0.744640 0.432875 0.924481 0.025696
C45   C     C_R   0.532338 0.155927 0.147059 0.539640
C46   C     C_R   0.466111 0.156322 0.854545 0.536917
C47   C     C_R   0.032159 0.655995 0.147189 0.539120
C48   C     C_R   0.965792 0.656081 0.854716 0.535242
C49   C     C_R   0.499811 0.161181 0.577340 -0.025410
C50   C     C_R   0.545792 0.154827 0.435121 -0.012853
C51   C     C_R   0.992285 0.661828 0.574525 -0.020949
C52   C     C_R   0.041482 0.656317 0.433608 -0.011146
C53   C     C_R   0.508665 0.053428 0.540865 -0.037305
C54   C     C_R   0.536288 0.046996 0.473731 -0.039789
C55   C     C_R   0.993354 0.557617 0.534173 -0.029780
C56   C     C_R   0.024751 0.549760 0.469903 -0.042690
C57   C     C_R   0.537149 0.265561 0.470835 -0.140609
C58   C     C_R   0.516224 0.268461 0.542241 -0.168337
C59   C     C_R   0.035732 0.766710 0.470480 -0.135925
C60   C     C_R   0.014003 0.768668 0.541844 -0.171928
C61   C     C_3   0.461972 0.944970 0.533102 0.173405
C62   C     C_3   0.500366 0.924032 0.462859 0.170179
C63   C     C_3   0.953365 0.441841 0.528708 0.168052
C64   C     C_3   0.993804 0.423379 0.458283 0.164596
C65   C     C_R   0.750828 0.934427 0.581287 0.013159
C66   C     C_R   0.223495 0.860047 0.435706 -0.013015
C67   C     C_R   0.251501 0.433266 0.580806 0.015029
C68   C     C_R   0.723188 0.359497 0.435765 -0.014297
C69   C     C_R   0.798535 0.009586 0.545481 -0.029755
C70   C     C_R   0.171789 0.916484 0.475165 -0.014098
C71   C     C_R   0.297801 0.511984 0.545769 -0.029655
C72   C     C_R   0.671922 0.417759 0.474887 -0.012428
C73   C     C_R   0.790881 0.032824 0.473860 0.008760
C74   C     C_R   0.176270 0.930714 0.547835 0.054332
C75   C     C_R   0.290041 0.535185 0.474042 0.009149
C76   C     C_R   0.676539 0.433202 0.547332 0.053019
C77   C     C_R   0.684007 0.921091 0.472455 -0.177171
C78   C     C_R   0.286816 0.831435 0.545974 -0.172906
C79   C     C_R   0.184885 0.418209 0.471817 -0.182073
C80   C     C_R   0.785155 0.328247 0.546739 -0.172736
C81   C     C_R   0.692354 0.893424 0.544414 -0.183247
C82   C     C_R   0.279184 0.810307 0.472723 -0.179800
C83   C     C_R   0.195214 0.387239 0.542891 -0.191829
C84   C     C_R   0.778062 0.307857 0.473267 -0.180887
C85   C     C_3   0.875485 0.994038 0.537077 -0.233586
C86   C     C_3   0.138254 0.036206 0.464723 -0.212112
C87   C     C_3   0.374936 0.499859 0.537398 -0.233460
C88   C     C_3   0.638319 0.537218 0.463842 -0.207687
C89   C     C_R   0.741694 0.968556 0.147685 0.542395
C90   C     C_R   0.258202 0.971648 0.852399 0.535558
C91   C     C_R   0.241701 0.468578 0.147740 0.543335
C92   C     C_R   0.758041 0.471371 0.852266 0.532999
C93   C     C_3   0.866471 0.014417 0.458196 0.167989
C94   C     C_3   0.136985 0.047540 0.545160 0.128868
C95   C     C_3   0.365862 0.519077 0.458493 0.168440
C96   C     C_3   0.637415 0.550322 0.544302 0.133407
C97   C     C_R   0.733941 0.990488 0.436435 0.021912
C98   C     C_R   0.238377 0.902825 0.582561 -0.019970
C99   C     C_R   0.233650 0.490987 0.436342 0.024438
C100  C     C_R   0.737952 0.403054 0.582589 -0.020377
C101  C     C_R   0.713153 0.337977 0.359865 0.528615
C102  C     C_R   0.271311 0.378499 0.647721 0.556282
C103  C     C_R   0.213239 0.838182 0.359884 0.528505
C104  C     C_R   0.770996 0.878990 0.647964 0.553611
C105  C     C_R   0.563188 0.152232 0.360251 0.529727
C106  C     C_R   0.465804 0.156529 0.645847 0.540826
C107  C     C_R   0.062140 0.652619 0.360254 0.528289
C108  C     C_R   0.963497 0.656351 0.644837 0.546545
C109  C     C_R   0.728613 0.018754 0.361477 0.526753
C110  C     C_R   0.257254 0.968733 0.647253 0.530451
C111  C     C_R   0.228481 0.519096 0.361412 0.527543
C112  C     C_R   0.757197 0.468747 0.647256 0.527970
C113  C     C_R   0.491868 0.167130 0.928036 0.006865
C114  C     C_R   0.500565 0.169272 0.077209 0.003904
C115  C     C_R   0.990534 0.666119 0.928586 0.005543
C116  C     C_R   0.999716 0.669622 0.077683 0.003806
C117  C     C_R   0.506297 0.279258 0.964133 0.017377
C118  C     C_R   0.498366 0.282290 0.040694 0.038008
C119  C     C_R   0.006523 0.777707 0.964146 0.016951
C120  C     C_R   0.998697 0.782274 0.040625 0.037892
C121  C     C_R   0.493329 0.062292 0.039523 -0.198059
C122  C     C_R   0.484785 0.061381 0.967737 -0.173066
C123  C     C_R   0.990280 0.562473 0.040616 -0.197166
C124  C     C_R   0.981255 0.561326 0.968789 -0.173609
Cr1   Cr    Cr6+3 0.772010 0.169670 0.250090 0.973252
Cr2   Cr    Cr6+3 0.227990 0.169670 0.749910 0.943706
Cr3   Cr    Cr6+3 0.272010 0.669670 0.250090 0.973161
Cr4   Cr    Cr6+3 0.727990 0.669670 0.749910 0.945074
Cr5   Cr    Cr6+3 0.615000 0.323260 0.249260 0.985639
Cr6   Cr    Cr6+3 0.385000 0.323260 0.750740 0.961093
Cr7   Cr    Cr6+3 0.115000 0.823260 0.249260 0.984990
Cr8   Cr    Cr6+3 0.885000 0.823260 0.750740 0.962575
Cr9   Cr    Cr6+3 0.616710 0.010760 0.250840 1.002318
Cr10  Cr    Cr6+3 0.383290 0.010760 0.749160 0.985909
Cr11  Cr    Cr6+3 0.116710 0.510760 0.250840 1.001638
Cr12  Cr    Cr6+3 0.883290 0.510760 0.749160 1.004613
H1    H     H_    0.498292 0.976204 0.065364 0.144849
H2    H     H_    0.474497 0.974341 0.943370 0.141094
H3    H     H_    0.994046 0.476536 0.066933 0.145174
H4    H     H_    0.969276 0.474801 0.944646 0.140714
H5    H     H_    0.541130 0.349242 0.442133 0.174020
H6    H     H_    0.506367 0.353357 0.567305 0.185661
H7    H     H_    0.043618 0.850529 0.442954 0.173320
H8    H     H_    0.008421 0.852675 0.569233 0.191124
H9    H     H_    0.897831 0.461612 0.522346 0.118630
H10   H     H_    0.033328 0.352616 0.463506 0.124576
H11   H     H_    0.407689 0.974457 0.527531 0.119838
H12   H     H_    0.536776 0.848422 0.469338 0.138810
H13   H     H_    0.642665 0.879379 0.443076 0.132932
H14   H     H_    0.333321 0.801823 0.571929 0.179694
H15   H     H_    0.143348 0.375813 0.442789 0.130882
H16   H     H_    0.830747 0.295980 0.573326 0.176198
H17   H     H_    0.657533 0.829984 0.568818 0.097167
H18   H     H_    0.319721 0.764278 0.443973 0.149456
H19   H     H_    0.163643 0.318294 0.566351 0.100638
H20   H     H_    0.818327 0.260456 0.444848 0.150706
H21   H     H_    0.893282 0.902683 0.551509 0.148728
H22   H     H_    0.086216 0.032214 0.440409 0.167174
H23   H     H_    0.394238 0.409686 0.552201 0.146885
H24   H     H_    0.586157 0.531831 0.439819 0.169739
H25   H     H_    0.904250 0.069628 0.562364 0.136444
H26   H     H_    0.174043 0.102780 0.438983 0.098499
H27   H     H_    0.402265 0.577290 0.562179 0.137754
H28   H     H_    0.673871 0.603338 0.437383 0.097752
H29   H     H_    0.892737 0.098730 0.439945 0.148206
H30   H     H_    0.166068 0.127782 0.563614 0.128299
H31   H     H_    0.391494 0.603757 0.439995 0.149322
H32   H     H_    0.666266 0.631751 0.562248 0.127778
H33   H     H_    0.047807 0.076451 0.938536 0.086174
H34   H     H_    0.011997 0.090027 0.060867 0.098326
H35   H     H_    0.545474 0.580079 0.941404 0.087298
H36   H     H_    0.509174 0.589775 0.063528 0.099500
H37   H     H_    0.862553 0.964633 0.075227 0.147907
H38   H     H_    0.183059 0.090566 0.948752 0.139692
H39   H     H_    0.361982 0.468414 0.074428 0.146446
H40   H     H_    0.684931 0.593369 0.949110 0.140710
H41   H     H_    0.883710 0.902264 0.954516 0.153049
H42   H     H_    0.185706 0.068275 0.075893 0.137444
H43   H     H_    0.382877 0.406800 0.953790 0.152905
H44   H     H_    0.687870 0.570120 0.076330 0.137038
H45   H     H_    0.112425 0.263308 0.938727 0.124580
H46   H     H_    0.827172 0.146538 0.039461 0.161752
H47   H     H_    0.611713 0.774997 0.935308 0.125630
H48   H     H_    0.331474 0.650991 0.040190 0.160061
H49   H     H_    0.625467 0.976679 0.046444 0.160793
H50   H     H_    0.376923 0.812150 0.916481 0.149681
H51   H     H_    0.122650 0.467304 0.048467 0.162404
H52   H     H_    0.873082 0.302743 0.913714 0.149481
H53   H     H_    0.595048 0.816884 0.058428 0.112311
H54   H     H_    0.323312 0.670161 0.913781 0.138742
H55   H     H_    0.096764 0.305606 0.061696 0.112024
H56   H     H_    0.816401 0.164356 0.913059 0.139354
O1    O     O_R   0.787520 0.042810 0.170440 -0.545992
O2    O     O_R   0.212480 0.042810 0.829560 -0.558148
O3    O     O_R   0.287520 0.542810 0.170440 -0.544663
O4    O     O_R   0.712480 0.542810 0.829560 -0.557399
O5    O     O_R   0.556610 0.252880 0.323980 -0.521015
O6    O     O_R   0.443390 0.252880 0.676020 -0.538632
O7    O     O_R   0.056610 0.752880 0.323980 -0.520530
O8    O     O_R   0.943390 0.752880 0.676020 -0.541181
O9    O     O_R   0.545950 0.051210 0.330860 -0.480507
O10   O     O_R   0.454050 0.051210 0.669140 -0.493297
O11   O     O_R   0.045950 0.551210 0.330860 -0.484191
O12   O     O_R   0.954050 0.551210 0.669140 -0.475410
O13   O     O_R   0.681390 0.959480 0.325510 -0.526806
O14   O     O_R   0.318610 0.959480 0.674490 -0.482656
O15   O     O_R   0.181390 0.459480 0.325510 -0.526135
O16   O     O_R   0.818610 0.459480 0.674490 -0.477088
O17   O     O_3   0.667900 0.167900 0.250060 -0.297669
O18   O     O_3   0.332100 0.167900 0.749940 -0.258385
O19   O     O_3   0.167900 0.667900 0.250060 -0.296735
O20   O     O_3   0.832100 0.667900 0.749940 -0.262467
O21   O     O_R   0.765640 0.292100 0.175020 -0.508510
O22   O     O_R   0.234360 0.292100 0.824980 -0.510487
O23   O     O_R   0.265640 0.792100 0.175020 -0.506636
O24   O     O_R   0.734360 0.792100 0.824980 -0.511256
O25   O     O_R   0.670190 0.408840 0.168540 -0.517603
O26   O     O_R   0.329810 0.408840 0.831460 -0.530606
O27   O     O_R   0.170190 0.908840 0.168540 -0.519026
O28   O     O_R   0.829810 0.908840 0.831460 -0.530031
O29   O     O_R   0.556620 0.251410 0.175160 -0.498951
O30   O     O_R   0.443380 0.251410 0.824840 -0.522686
O31   O     O_R   0.056620 0.751410 0.175160 -0.498930
O32   O     O_R   0.943380 0.751410 0.824840 -0.523603
O33   O     O_R   0.545960 0.049620 0.170320 -0.538713
O34   O     O_R   0.454040 0.049620 0.829680 -0.553109
O35   O     O_R   0.045960 0.549620 0.170320 -0.539247
O36   O     O_R   0.954040 0.549620 0.829680 -0.545437
O37   O     O_R   0.681390 0.958010 0.176690 -0.491767
O38   O     O_R   0.318610 0.958010 0.823310 -0.503129
O39   O     O_R   0.181390 0.458010 0.176690 -0.492305
O40   O     O_R   0.818610 0.458010 0.823310 -0.502241
O41   O     O_R   0.787510 0.044390 0.330970 -0.484932
O42   O     O_R   0.212490 0.044390 0.669030 -0.563026
O43   O     O_R   0.287510 0.544390 0.330970 -0.484769
O44   O     O_R   0.712490 0.544390 0.669030 -0.563672
O45   O     O_R   0.765630 0.293570 0.323840 -0.529639
O46   O     O_R   0.234370 0.293570 0.676160 -0.517420
O47   O     O_R   0.265630 0.793570 0.323840 -0.531751
O48   O     O_R   0.734370 0.793570 0.676160 -0.517657
O49   O     O_R   0.670190 0.410420 0.329080 -0.521730
O50   O     O_R   0.329810 0.410420 0.670920 -0.530855
O51   O     O_R   0.170190 0.910420 0.329080 -0.521265
O52   O     O_R   0.829810 0.910420 0.670920 -0.530065
O53   O     O_3   0.465862 0.848953 0.583387 -0.572836
C125  C     C_3   0.528039 0.840360 0.622440 0.009357
H57   H     H_    0.564653 0.917477 0.617985 0.124420
H58   H     H_    0.555207 0.760301 0.602235 0.164537
C126  C     C_3   0.511535 0.823930 0.701794 -0.331599
H59   H     H_    0.457575 0.791470 0.710928 0.167698
H60   H     H_    0.548221 0.761183 0.726633 0.043396
H61   H     H_    0.517519 0.910396 0.730186 0.169686
O54   O     O_3   0.460815 0.901235 0.400495 -0.551652
C127  C     C_3   0.408969 0.985638 0.385412 0.008205
H62   H     H_    0.426371 0.079466 0.393739 0.136195
H63   H     H_    0.362693 0.969027 0.418933 0.120986
C128  C     C_3   0.388792 0.970457 0.307455 -0.328387
H64   H     H_    0.385958 0.873055 0.293372 0.187795
H65   H     H_    0.337618 0.011236 0.297536 0.106735
H66   H     H_    0.427747 0.014635 0.272040 0.159514
O55   O     O_3   0.963922 0.357101 0.584524 -0.558408
C129  C     C_3   0.034086 0.340934 0.602661 -0.009932
H67   H     H_    0.069308 0.411378 0.581866 0.122089
H68   H     H_    0.050672 0.253556 0.580543 0.175220
C130  C     C_3   0.043667 0.343376 0.682890 -0.344458
H69   H     H_    0.999015 0.302253 0.711837 0.154720
H70   H     H_    0.092041 0.296807 0.696432 0.080620
H71   H     H_    0.050900 0.437644 0.700963 0.163093
O56   O     O_3   0.954808 0.398095 0.395859 -0.554071
C131  C     C_3   0.904632 0.484075 0.378158 0.009036
H72   H     H_    0.922675 0.577592 0.386364 0.138523
H73   H     H_    0.856979 0.469162 0.409982 0.123445
C132  C     C_3   0.887477 0.469073 0.299498 -0.328349
H74   H     H_    0.883077 0.371709 0.285804 0.189199
H75   H     H_    0.837814 0.513486 0.287207 0.103994
H76   H     H_    0.928953 0.509986 0.265764 0.160682
O57   O     O_3   0.883094 0.915485 0.411995 -0.526374
C133  C     C_3   0.853721 0.801551 0.430885 0.006790
H77   H     H_    0.813915 0.803205 0.473563 0.127281
H78   H     H_    0.895291 0.743191 0.450650 0.128958
C134  C     C_3   0.821411 0.742928 0.365512 -0.368926
H79   H     H_    0.861503 0.728995 0.323695 0.143703
H80   H     H_    0.797128 0.655217 0.380426 0.078264
H81   H     H_    0.780541 0.799952 0.343267 0.195297
O58   O     O_3   0.068234 0.037456 0.572111 -0.599920
C135  C     C_3   0.067748 0.031325 0.647456 -0.028926
H82   H     H_    0.098186 0.106115 0.670879 0.166190
H83   H     H_    0.088232 0.943125 0.665473 0.157260
C136  C     C_3   0.994478 0.044578 0.676698 -0.390558
H84   H     H_    0.970249 0.126732 0.655574 0.172106
H85   H     H_    0.962196 0.966443 0.661423 0.192743
H86   H     H_    0.995346 0.051338 0.735695 0.071529
O59   O     O_3   0.383570 0.420211 0.412682 -0.526797
C137  C     C_3   0.355814 0.305484 0.432306 0.007024
H87   H     H_    0.316010 0.306221 0.474903 0.129489
H88   H     H_    0.398134 0.249306 0.452482 0.126995
C138  C     C_3   0.324227 0.244339 0.367428 -0.368544
H89   H     H_    0.364814 0.228856 0.326330 0.143862
H90   H     H_    0.299924 0.157175 0.383430 0.078986
H91   H     H_    0.283520 0.300476 0.343994 0.195432
O60   O     O_3   0.568700 0.540274 0.571267 -0.591927
C139  C     C_3   0.568432 0.530371 0.646432 -0.024994
H92   H     H_    0.597907 0.605848 0.670929 0.164562
H93   H     H_    0.590093 0.442307 0.663155 0.157603
C140  C     C_3   0.494864 0.538411 0.675398 -0.388070
H94   H     H_    0.468460 0.616154 0.652276 0.173453
H95   H     H_    0.464453 0.458112 0.661141 0.191362
H96   H     H_    0.495005 0.548763 0.734170 0.070934
C141  C     C_3   0.563194 0.393147 0.854679 -0.254142
C142  C     C_3   0.614585 0.292518 0.838201 -0.419540
H97   H     H_    0.654649 0.324994 0.799860 0.147883
H98   H     H_    0.640018 0.260222 0.887190 0.152430
H99   H     H_    0.588101 0.216846 0.811306 0.137716
H100  H     H_    0.524403 0.399590 0.812357 0.163144
H101  H     H_    0.592195 0.479588 0.849133 0.151090
C143  C     C_3   0.465530 0.422253 0.152747 -0.230122
C144  C     C_3   0.412784 0.330506 0.183732 -0.409649
H102  H     H_    0.371909 0.378595 0.214197 0.173999
H103  H     H_    0.387594 0.275211 0.141765 0.140323
H104  H     H_    0.437400 0.269781 0.222470 0.162241
H105  H     H_    0.508614 0.439449 0.190217 0.182127
H106  H     H_    0.439453 0.510931 0.153764 0.102749
C145  C     C_3   0.066613 0.885088 0.854719 -0.255752
C146  C     C_3   0.118374 0.783186 0.842614 -0.421624
H107  H     H_    0.158434 0.811559 0.803124 0.145955
H108  H     H_    0.143732 0.757506 0.893004 0.154253
H109  H     H_    0.092424 0.703280 0.819551 0.136713
H110  H     H_    0.029554 0.889173 0.810610 0.163408
H111  H     H_    0.095751 0.971039 0.848388 0.153363
C147  C     C_3   0.968051 0.925670 0.151879 -0.231117
C148  C     C_3   0.915267 0.835725 0.184704 -0.410075
H112  H     H_    0.874606 0.885503 0.214479 0.175483
H113  H     H_    0.889774 0.778379 0.143899 0.139010
H114  H     H_    0.939882 0.776956 0.224493 0.166376
H115  H     H_    0.011758 0.943253 0.188546 0.182193
H116  H     H_    0.942279 0.014622 0.152086 0.101563
C149  C     C_3   0.640194 0.966695 0.905386 -0.254532
C150  C     C_3   0.599026 0.938110 0.838755 -0.426996
H117  H     H_    0.624493 0.869219 0.805304 0.182695
H118  H     H_    0.547195 0.902024 0.853694 0.148268
H119  H     H_    0.593850 0.019917 0.805930 0.135615
H120  H     H_    0.615490 0.042928 0.933671 0.148703
H121  H     H_    0.692110 0.001404 0.889306 0.170564
C151  C     C_3   0.401087 0.811297 0.052363 -0.295382
C152  C     C_3   0.412761 0.790504 0.131667 -0.413561
H122  H     H_    0.387022 0.862300 0.163198 0.159247
H123  H     H_    0.393124 0.700742 0.148723 0.176497
H124  H     H_    0.468981 0.796145 0.143272 0.121642
H125  H     H_    0.447979 0.781187 0.022589 0.127025
H126  H     H_    0.393545 0.908894 0.043223 0.167049
C153  C     C_3   0.135273 0.455769 0.907250 -0.258325
C154  C     C_3   0.092194 0.422706 0.842684 -0.425238
H127  H     H_    0.117006 0.349949 0.811641 0.175115
H128  H     H_    0.040295 0.388986 0.859261 0.150559
H129  H     H_    0.087242 0.502646 0.808223 0.141351
H130  H     H_    0.110557 0.531587 0.935842 0.149922
H131  H     H_    0.185972 0.492383 0.888631 0.171929
C155  C     C_3   0.899700 0.303662 0.048720 -0.296183
C156  C     C_3   0.911684 0.287098 0.128264 -0.416099
H132  H     H_    0.887077 0.361862 0.158245 0.157664
H133  H     H_    0.890883 0.199319 0.147309 0.180890
H134  H     H_    0.968031 0.291066 0.139406 0.119259
H135  H     H_    0.945660 0.269380 0.019042 0.129550
H136  H     H_    0.893852 0.400872 0.037558 0.164965

loop_
_geom_bond_atom_site_label_1
_geom_bond_atom_site_label_2
_ccdc_geom_bond_type
Cr4   O44   S    
C11   H35   S    
Cr10  O18   S    
C9    H33   S    
C73   C93   S    
C149  C150  S    
C75   C95   S    
C12   H36   S    
C34   C151  S    
O60   C139  S    
C134  H81   S    
Cr4   O48   S    
C79   C99   A    
Cr9   O33   S    
C92   O40   A    
C3    O23   A    
C22   C38   S    
C132  H76   S    
C23   C43   A    
C127  H63   S    
Cr1   O21   S    
C37   H49   S    
C113  C122  A    
C146  H107  S    
C38   H54   S    
C70   C74   A    
C96   H32   S    
C145  H111  S    
C35   C153  S    
C93   O57   S    
C44   C92   S    
C105  O5    A    
Cr12  O36   S    
C143  H106  S    
C59   C60   A    
C29   H41   S    
O53   C125  S    
Cr9   O9    S    
C47   C116  S    
C142  H98   S    
C126  H60   S    
C147  C148  S    
C7    C145  S    
C145  C146  S    
C7    C119  A    
C28   C32   A    
C68   C101  S    
C25   C41   A    
C153  H130  S    
Cr11  O11   S    
C28   C44   A    
C17   C21   A    
C143  C144  S    
C144  H104  S    
C19   C23   A    
Cr3   O3    S    
C66   C82   A    
C39   H55   S    
C78   C82   A    
C40   H56   S    
Cr1   O1    S    
C68   C72   A    
C89   O1    A    
C154  H127  S    
C45   O33   A    
C152  H124  S    
C2    O22   A    
C131  H73   S    
C35   H45   S    
Cr5   O17   S    
Cr2   O46   S    
C36   C155  S    
C104  O48   A    
C47   O31   A    
C151  H125  S    
C135  C136  S    
C64   H10   S    
C50   C57   A    
C66   C103  S    
C92   O4    A    
C49   C106  S    
C76   C100  A    
Cr3   O43   S    
C46   O30   A    
C88   H28   S    
C76   C96   S    
C135  H83   S    
C84   H20   S    
Cr3   O23   S    
C66   C70   A    
C146  H109  S    
C49   C53   A    
C87   H23   S    
C51   C55   A    
C88   H24   S    
C25   H37   S    
C8    C10   A    
C5    C117  A    
C156  H132  S    
C2    O26   A    
C32   H44   S    
C19   C35   S    
Cr8   O28   S    
Cr4   O20   S    
C109  O41   A    
C41   C89   S    
C67   C83   A    
C4    O24   A    
C116  C123  A    
Cr9   O17   S    
C153  C154  S    
C141  H101  S    
C123  C124  A    
C74   C98   A    
C53   C54   A    
C126  H59   S    
Cr11  O35   S    
O55   C129  S    
C48   O36   A    
C83   H19   S    
C154  H129  S    
C123  H3    S    
Cr8   O8    S    
C81   H17   S    
C128  H64   S    
C121  H1    S    
Cr6   O26   S    
Cr12  O20   S    
C85   C93   S    
C45   C114  S    
Cr8   O52   S    
C140  H95   S    
C87   C95   S    
C50   C105  S    
C56   C64   S    
C155  H136  S    
C102  O50   A    
C9    C10   A    
C149  H120  S    
C59   H7    S    
C62   H12   S    
O57   C133  S    
C138  H90   S    
C94   O58   S    
C18   C34   S    
C139  H93   S    
C71   C75   A    
C101  O45   A    
C156  H133  S    
Cr1   O17   S    
C48   O32   A    
C127  C128  S    
C38   H50   S    
C33   C149  S    
C116  C120  A    
C91   O39   A    
C42   C90   S    
C107  O11   A    
O59   C137  S    
C86   H22   S    
C105  O9    A    
C99   C111  S    
C75   C99   A    
C136  H84   S    
C30   H42   S    
C114  C118  A    
C109  O13   A    
C130  H70   S    
Cr4   O24   S    
C113  C117  A    
C3    O27   A    
C26   C30   A    
C150  H118  S    
C147  H115  S    
Cr7   O19   S    
C111  O15   A    
C69   C85   S    
C26   C42   A    
Cr11  O15   S    
C5    C141  S    
C125  H57   S    
C126  H61   S    
C46   C113  S    
C18   C22   A    
C95   H31   S    
C15   C31   A    
C129  H67   S    
C40   H52   S    
C16   C32   A    
C150  H119  S    
C115  C119  A    
C13   C17   A    
C128  H66   S    
C45   O29   A    
C97   C109  S    
C117  C118  A    
C107  O7    A    
Cr6   O50   S    
C57   C58   A    
C132  H75   S    
C156  H134  S    
C133  H78   S    
Cr10  O38   S    
C61   C62   S    
Cr2   O42   S    
C148  H114  S    
Cr5   O5    S    
C63   C64   S    
C6    C143  S    
C47   O35   A    
C151  C152  S    
C146  H108  S    
C133  H77   S    
C90   O38   A    
Cr7   O31   S    
C51   C60   A    
C63   H9    S    
C125  C126  S    
C62   O54   S    
Cr11  O19   S    
C55   C56   A    
C88   C96   S    
Cr3   O47   S    
C98   C110  S    
C85   H25   S    
C74   C94   S    
C37   H53   S    
C80   C84   A    
C94   H30   S    
C129  C130  S    
C8    C147  S    
C15   C19   A    
C8    C120  A    
C50   C54   A    
C17   C33   S    
C13   C29   A    
C5    C11   A    
C6    C12   A    
C137  H87   S    
Cr10  O14   S    
C26   H38   S    
C136  H86   S    
C80   H16   S    
C144  H103  S    
Cr5   O25   S    
Cr2   O22   S    
C114  C121  A    
C52   C107  S    
C4    O28   A    
C133  C134  S    
C154  H128  S    
C111  O43   A    
C69   C73   A    
C152  H123  S    
C106  O6    A    
Cr11  O39   S    
O56   C131  S    
C25   C29   A    
C131  C132  S    
C85   H21   S    
C151  H126  S    
C68   C84   A    
Cr6   O30   S    
C122  H2    S    
C137  C138  S    
C77   H13   S    
Cr12  O16   S    
C28   H40   S    
C54   C62   S    
C112  O44   A    
C27   C31   A    
C33   C37   S    
C31   H43   S    
C35   C39   S    
C148  H112  S    
O58   C135  S    
Cr2   O2    S    
C65   C81   A    
C90   O2    A    
C77   C81   A    
C1    C16   S    
C2    C15   S    
C121  C122  A    
C3    C14   S    
C71   C87   S    
C143  H105  S    
C100  C112  S    
C1    O21   A    
C24   C44   A    
C134  H80   S    
C27   H39   S    
C95   O59   S    
Cr1   O45   S    
C142  H97   S    
C115  C124  A    
Cr8   O32   S    
C124  H4    S    
C119  C120  A    
C10   H34   S    
C57   H5    S    
C61   H11   S    
C60   H8    S    
C79   C83   A    
O54   C127  S    
Cr5   O49   S    
C65   C69   A    
C67   C71   A    
Cr9   O37   S    
C64   O56   S    
C20   C36   S    
C27   C43   A    
C21   C37   S    
C103  O47   A    
C140  H94   S    
C131  H72   S    
C1    O25   A    
C61   O53   S    
C110  O42   A    
C142  H99   S    
C87   H27   S    
C138  H89   S    
C14   C18   A    
Cr8   O20   S    
C72   C76   A    
C141  C142  S    
C73   C97   A    
Cr12  O40   S    
C139  C140  S    
C127  H62   S    
Cr10  O34   S    
C135  H82   S    
Cr9   O13   S    
C91   O3    A    
Cr7   O27   S    
C145  H110  S    
C4    C13   S    
C58   H6    S    
C86   C94   S    
C24   C40   S    
C20   C24   A    
C51   C108  S    
C78   C98   A    
C103  O51   A    
C34   H48   S    
C86   H26   S    
C101  O49   A    
C130  H69   S    
C16   C20   A    
C39   H51   S    
C93   H29   S    
C147  H116  S    
C80   C100  A    
C155  C156  S    
C53   C61   S    
C14   C30   A    
C63   O55   S    
C72   C88   S    
Cr10  O10   S    
C125  H58   S    
C102  O46   A    
C36   C40   S    
C112  O16   A    
Cr5   O29   S    
Cr2   O18   S    
C129  H68   S    
C134  H79   S    
C104  O52   A    
C43   C91   S    
C49   C58   A    
C55   C63   S    
C128  H65   S    
C108  O8    A    
Cr7   O7    S    
C33   H47   S    
C52   C59   A    
C106  O10   A    
C140  H96   S    
C132  H74   S    
C46   O34   A    
C155  H135  S    
C110  O14   A    
C77   C97   A    
C148  H113  S    
C149  H121  S    
C48   C115  S    
Cr3   O19   S    
C138  H91   S    
C21   C41   A    
Cr6   O18   S    
C96   O60   S    
C70   C86   S    
Cr12  O12   S    
C78   H14   S    
C79   H15   S    
C7    C9    A    
C139  H92   S    
C34   C38   S    
Cr4   O4    S    
C11   C12   A    
C108  O12   A    
Cr7   O51   S    
C141  H100  S    
C137  H88   S    
C22   C42   A    
C23   C39   S    
C136  H85   S    
C144  H102  S    
C130  H71   S    
Cr1   O41   S    
C82   H18   S    
C52   C56   A    
C36   H46   S    
C150  H117  S    
C65   C104  S    
C89   O37   A    
C152  H122  S    
Cr6   O6    S    
C6    C118  A    
C153  H131  S    
C67   C102  S    
