data_mof_unit_5409.cif
_audit_creation_date              2012-10-26T20:03:17-0400
_audit_creation_method            fapswitch 2.2
_symmetry_space_group_name_H-M    P1
_symmetry_Int_Tables_number       1
_space_group_crystal_system       triclinic
_cell_length_a                    10.60762
_cell_length_b                    12.358638
_cell_length_c                    13.179091
_cell_angle_alpha                 116.808216
_cell_angle_beta                  77.167785
_cell_angle_gamma                 100.478959
_cell_volume                      1496.87431878

loop_
_atom_site_label
_atom_site_type_symbol
_atom_type_description
_atom_site_fract_x
_atom_site_fract_y
_atom_site_fract_z
_atom_type_partial_charge
C1    C     C_R   0.514374 0.854447 0.285984 0.554270
C2    C     C_R   0.549128 0.555960 0.021784 -0.010553
C3    C     C_R   0.488755 0.644658 0.126205 -0.047236
C4    C     C_R   0.740007 0.999495 0.499872 0.552144
C5    C     C_R   0.493352 0.433326 0.985445 0.036097
C6    C     C_R   0.403357 0.396623 0.063645 0.053757
C7    C     C_R   0.349049 0.484513 0.167858 -0.127466
C8    C     C_R   0.382848 0.606778 0.193495 -0.107141
C9    C     C_R   0.512148 0.349638 0.870093 -0.138114
C10   C     C_R   0.393613 0.188046 0.918675 -0.136471
C11   C     C_R   0.536489 0.768947 0.162335 -0.007394
C12   C     C_3   0.011926 0.919286 0.538085 0.022869
C13   C     C_R   0.736333 0.360670 0.357520 -0.116924
C14   C     C_R   0.326689 0.761115 0.648578 0.049632
C15   C     C_R   0.296193 0.668193 0.684669 -0.155669
C16   C     C_R   0.481686 0.144996 0.713552 0.541053
C17   C     C_R   0.366245 0.566268 0.629357 -0.130083
C18   C     C_R   0.465825 0.554888 0.535373 -0.021990
C19   C     C_R   0.498689 0.654793 0.505876 0.150108
C20   C     C_R   0.537488 0.449645 0.474040 -0.041862
C21   C     C_R   0.656252 0.456181 0.402726 0.065445
C22   C     C_R   0.688791 0.553774 0.372073 0.185082
C23   C     C_3   0.954721 0.889518 0.429626 -0.149864
C24   C     C_R   0.607876 0.649303 0.420681 -0.102592
C25   C     C_R   0.489315 0.333097 0.470336 0.143922
C26   C     C_R   0.696400 0.259654 0.381656 0.046507
C27   C     C_R   0.259667 0.001731 0.502175 0.537860
C28   C     C_3   0.986903 0.082129 0.467800 0.251399
C29   C     C_3   0.066907 0.972752 0.395203 -0.148901
C30   C     C_3   0.122477 0.001967 0.503881 0.011250
C31   C     C_3   0.044487 0.113337 0.575693 -0.091240
C32   C     C_3   0.932187 0.029971 0.609888 -0.140485
C33   C     C_3   0.774120 0.508563 0.890965 -0.251508
C34   C     C_3   0.876436 0.000494 0.501243 0.045111
C35   C     C_3   0.815485 0.452748 0.959718 -0.434800
C36   C     C_3   0.346815 0.294766 0.457887 -0.220840
C37   C     C_3   0.332010 0.198888 0.335510 -0.386686
C38   C     C_3   0.024677 0.825742 0.580500 -0.258018
C39   C     C_3   0.892639 0.764470 0.610136 -0.415864
C40   C     C_R   0.359546 0.273272 0.031635 -0.133877
C41   C     C_R   0.464844 0.227309 0.836248 -0.007355
C42   C     C_R   0.624450 0.805823 0.084217 0.209259
C43   C     C_R   0.694944 0.717762 0.986563 0.235993
C44   C     C_R   0.666104 0.593106 0.962083 0.032361
Cu1   Cu    Cu3+1 0.529830 0.098270 0.475420 0.955646
Cu2   Cu    Cu3+1 0.470170 0.901730 0.524580 0.899809
H1    H     H_    0.123982 0.951038 0.307945 0.098243
H2    H     H_    0.083169 0.205196 0.634081 0.105346
H3    H     H_    0.874578 0.052712 0.697107 0.110819
H4    H     H_    0.916233 0.798354 0.370602 0.117971
H5    H     H_    0.355665 0.093689 0.894072 0.125719
H6    H     H_    0.272925 0.459008 0.225291 0.111022
H7    H     H_    0.294241 0.243815 0.092217 0.103791
H8    H     H_    0.671233 0.936638 0.035986 0.326799
H9    H     H_    0.842893 0.525629 0.041912 0.170093
H10   H     H_    0.736618 0.388949 0.978682 0.175079
H11   H     H_    0.900934 0.400995 0.908971 0.135350
H12   H     H_    0.553524 0.381672 0.805006 0.135098
H13   H     H_    0.749960 0.436485 0.808131 0.140561
H14   H     H_    0.863123 0.559023 0.865116 0.201871
H15   H     H_    0.837432 0.833624 0.965492 0.328851
H16   H     H_    0.798264 0.618386 0.268350 0.306700
H17   H     H_    0.368205 0.240204 0.273755 0.126007
H18   H     H_    0.387576 0.119864 0.307786 0.210815
H19   H     H_    0.228076 0.166235 0.330647 0.152672
H20   H     H_    0.292391 0.270323 0.527441 0.164712
H21   H     H_    0.295549 0.370343 0.467962 0.127963
H22   H     H_    0.962423 0.123414 0.350045 0.308267
H23   H     H_    0.324569 0.670947 0.266981 0.149044
H24   H     H_    0.830299 0.832789 0.680365 0.167689
H25   H     H_    0.843554 0.717215 0.533323 0.178770
H26   H     H_    0.905862 0.696352 0.639209 0.166245
H27   H     H_    0.086348 0.755152 0.512514 0.169197
H28   H     H_    0.071734 0.872577 0.658686 0.143187
H29   H     H_    0.760495 0.188797 0.349825 0.159436
H30   H     H_    0.830073 0.364360 0.305241 0.160787
H31   H     H_    0.273742 0.841031 0.692922 0.115053
H32   H     H_    0.343152 0.497075 0.661332 0.110730
H33   H     H_    0.219199 0.675745 0.756250 0.108846
H34   H     H_    0.635886 0.719035 0.391627 0.171720
N1    N     N_R   0.575030 0.246270 0.438190 -0.225923
N2    N     N_R   0.425760 0.754330 0.561190 -0.230928
O1    O     O_R   0.537510 0.972500 0.318130 -0.442171
O2    O     O_3   0.798396 0.751391 0.918586 -0.743219
O3    O     O_3   0.797403 0.551834 0.290905 -0.732843
O4    O     O_3   0.971914 0.169372 0.432391 -0.706012
O5    O     O_R   0.487140 0.806530 0.359650 -0.540733
O6    O     O_R   0.708330 0.082950 0.479220 -0.475916
O7    O     O_R   0.657960 0.916980 0.520740 -0.527712
O8    O     O_R   0.512860 0.193470 0.640350 -0.501972
O9    O     O_R   0.462490 0.027500 0.681870 -0.504779
O10   O     O_R   0.342040 0.083020 0.479260 -0.524224
O11   O     O_R   0.291670 0.917050 0.520780 -0.517851
O12   O     O_3   0.647015 0.928228 0.109325 -0.706813

loop_
_geom_bond_atom_site_label_1
_geom_bond_atom_site_label_2
_ccdc_geom_bond_type
C1    O5    A    
C16   O8    A    
H22   O4    S    
C1    C11   S    
C36   H21   S    
C7    C8    A    
Cu2   O7    S    
Cu1   Cu2   S    
C12   C23   S    
C8    H23   S    
C29   H1    S    
C23   C29   S    
C36   C37   S    
C7    H6    S    
C4    O7    A    
C5    C6    A    
C36   H20   S    
C22   O3    S    
C20   C25   A    
C11   C42   A    
C10   C40   A    
C9    H12   S    
C14   H31   S    
Cu1   O10   S    
Cu2   N2    S    
C24   H34   S    
C15   H33   S    
C2    C44   A    
C37   H19   S    
C39   H26   S    
C19   N2    A    
C18   C20   A    
C28   C34   S    
C33   H13   S    
C21   C22   A    
C12   C32   S    
C27   C30   S    
C25   N1    A    
C43   O2    S    
Cu1   O1    S    
C10   H5    S    
C37   H17   S    
C17   C18   A    
H16   O3    S    
C4    C34   S    
C35   H9    S    
Cu1   O6    S    
C3    C8    A    
C18   C19   A    
C23   H4    S    
Cu2   O9    S    
C32   C34   S    
C43   C44   A    
C5    C9    A    
C29   C30   S    
C31   C32   S    
C13   H30   S    
C30   C31   S    
C23   C34   S    
C26   H29   S    
C13   C21   A    
C27   O10   A    
Cu1   O8    S    
C33   H14   S    
C31   H2    S    
C28   O4    S    
C22   C24   A    
C13   C26   A    
C27   O11   A    
C2    C5    A    
C1    O1    A    
C42   C43   A    
C14   N2    A    
C37   H18   S    
Cu2   O5    S    
C38   H28   S    
C15   C17   A    
C28   C29   S    
C12   C30   S    
C35   H10   S    
C42   O12   S    
C33   C44   S    
C28   C31   S    
Cu1   N1    S    
H15   O2    S    
C6    C7    A    
C4    O6    A    
C26   N1    A    
C9    C41   A    
C35   H11   S    
C2    C3    A    
C38   C39   S    
Cu2   O11   S    
C17   H32   S    
C33   C35   S    
C39   H24   S    
C19   C24   A    
C6    C40   A    
C12   C38   S    
C32   H3    S    
H8    O12   S    
C3    C11   A    
C25   C36   S    
C20   C21   A    
C16   O9    A    
C40   H7    S    
C39   H25   S    
C14   C15   A    
C16   C41   S    
C10   C41   A    
C38   H27   S    
