data_mof_unit_36562.cif
_audit_creation_date              2012-12-11T17:41:28-0500
_audit_creation_method            fapswitch 2.2
_symmetry_space_group_name_H-M    P1
_symmetry_Int_Tables_number       1
_space_group_crystal_system       triclinic
_cell_length_a                    15.521257
_cell_length_b                    15.16138
_cell_length_c                    15.141869
_cell_angle_alpha                 109.737794
_cell_angle_beta                  121.183017
_cell_angle_gamma                 58.349838
_cell_volume                      2584.33187541

loop_
_atom_site_label
_atom_site_type_symbol
_atom_type_description
_atom_site_fract_x
_atom_site_fract_y
_atom_site_fract_z
_atom_type_partial_charge
C1    C     C_R   0.757699 0.990782 0.789991 -0.100197
C2    C     C_R   0.305317 0.386364 0.099755 -0.066585
C3    C     C_R   0.611846 0.719106 0.884371 -0.151009
C4    C     C_R   0.379121 0.283653 0.083940 -0.154096
C5    C     C_R   0.652893 0.790722 0.955007 0.114038
C6    C     C_R   0.342322 0.205279 0.039349 0.125780
C7    C     C_R   0.768966 0.758844 0.008417 -0.174065
C8    C     C_R   0.229077 0.231897 0.004988 -0.173487
C9    C     C_R   0.842578 0.657308 0.989203 -0.067812
C10   C     C_R   0.155243 0.334750 0.020547 -0.030438
C11   C     C_R   0.800932 0.586771 0.917605 -0.003037
C12   C     C_R   0.200296 0.056914 0.224161 -0.112266
C13   C     C_R   0.193490 0.411849 0.068391 0.020315
C14   C     C_R   0.581313 0.930517 0.074797 -0.242681
C15   C     C_R   0.412973 0.064778 0.920622 -0.229441
C16   C     C_R   0.203562 0.278957 0.450413 -0.123065
C17   C     C_R   0.766388 0.711031 0.514860 -0.143087
C18   C     C_R   0.504377 0.028957 0.096339 0.053345
C19   C     C_R   0.490317 0.966619 0.899131 0.052221
C20   C     C_R   0.419896 0.097541 0.019298 0.008893
C21   C     C_R   0.574468 0.897753 0.975941 0.020523
C22   C     C_2   0.032020 0.360437 0.484203 0.426120
C23   C     C_R   0.144332 0.281323 0.495870 -0.001154
C24   C     C_2   0.867723 0.603462 0.399427 0.465777
C25   C     C_2   0.963862 0.415372 0.400904 -0.196307
C26   C     C_2   0.869548 0.515002 0.402784 -0.188461
C27   C     C_2   0.851524 0.111647 0.896691 -0.209745
C28   C     C_2   0.021737 0.037282 0.150554 -0.227027
C29   C     C_R   0.295661 0.807477 0.660245 -0.125568
C30   C     C_R   0.714823 0.149868 0.279185 -0.128293
C31   C     C_R   0.371889 0.723889 0.623131 -0.124797
C32   C     C_R   0.634529 0.232832 0.311990 -0.146337
C33   C     C_R   0.334358 0.665902 0.529055 0.094496
C34   C     C_R   0.800501 0.701800 0.442259 -0.021205
C35   C     C_R   0.661592 0.308378 0.390915 0.094995
C36   C     C_R   0.219390 0.691739 0.473832 -0.134214
C37   C     C_R   0.771921 0.297388 0.437778 -0.136616
C38   C     C_R   0.143450 0.775164 0.511346 -0.074449
C39   C     C_R   0.852251 0.213854 0.405351 -0.087790
C40   C     C_R   0.593114 0.217667 0.493056 -0.205203
C41   C     C_R   0.404796 0.771580 0.461835 -0.187128
C42   C     C_R   0.181536 0.833156 0.604338 -0.106382
C43   C     C_R   0.823574 0.140416 0.325760 -0.104226
C44   C     C_R   0.415541 0.482318 0.467317 -0.183593
C45   C     C_R   0.500220 0.298947 0.438017 -0.060618
C46   C     C_R   0.571955 0.497197 0.441454 -0.189792
C47   C     C_R   0.494969 0.394512 0.436548 0.108425
C48   C     C_R   0.494647 0.583413 0.475508 0.125587
C49   C     C_R   0.575046 0.400073 0.423023 0.008171
C50   C     C_R   0.414863 0.577404 0.488442 -0.009543
C51   C     C_2   0.866754 0.097967 0.987372 -0.102653
C52   C     C_2   0.961784 0.106724 0.080994 -0.103072
C53   C     C_R   0.404434 0.995634 0.716148 -0.138256
C54   C     C_R   0.593554 0.004153 0.281617 -0.162276
C55   C     C_R   0.408197 0.286954 0.411050 0.435620
C56   C     C_R   0.497135 0.679437 0.492954 -0.072669
C57   C     C_R   0.591073 0.696838 0.552066 0.411733
C58   C     C_R   0.590142 0.922082 0.793560 -0.086307
C59   C     C_R   0.407692 0.074015 0.204260 -0.056709
C60   C     C_R   0.203234 0.188899 0.540923 -0.075343
C61   C     C_R   0.764269 0.801402 0.422615 -0.067320
C62   C     C_R   0.758144 0.082370 0.700289 -0.140313
C63   C     C_R   0.197824 0.967948 0.313814 -0.158790
C64   C     C_R   0.789335 0.065184 0.799439 0.136484
C65   C     C_R   0.137142 0.017968 0.224297 0.143884
C66   C     C_R   0.495162 0.950819 0.803461 0.041000
C67   C     C_R   0.501450 0.046231 0.193141 0.044420
C68   C     C_R   0.685605 0.617562 0.865483 -0.042628
Cl1   Cl    Cl    0.957074 0.602996 0.359839 -0.686689
Cl2   Cl    Cl    0.997119 0.390589 0.588322 -0.669543
Cl3   Cl    Cl    0.277360 0.342841 0.307843 -0.732698
Cl4   Cl    Cl    0.713599 0.620579 0.650571 -0.702099
H1    H     H_    0.772589 0.956543 0.851279 0.088088
H2    H     H_    0.464173 0.265506 0.104067 0.113969
H3    H     H_    0.802159 0.812878 0.063995 0.112948
H4    H     H_    0.198468 0.172858 0.967089 0.107736
H5    H     H_    0.931862 0.633317 0.029883 0.110419
H6    H     H_    0.068388 0.354725 0.995316 0.099758
H7    H     H_    0.643082 0.876039 0.133653 0.144369
H8    H     H_    0.351176 0.119602 0.862101 0.146838
H9    H     H_    0.813255 0.517101 0.426420 0.144385
H10   H     H_    0.987488 0.395850 0.338258 0.160145
H11   H     H_    0.122632 0.897910 0.633130 0.111398
H12   H     H_    0.174173 0.109781 0.172754 0.099098
H13   H     H_    0.885676 0.076083 0.300371 0.102469
H14   H     H_    0.175518 0.334071 0.400685 0.190327
H15   H     H_    0.788863 0.648628 0.552104 0.198495
H16   H     H_    0.324928 0.852474 0.732274 0.112722
H17   H     H_    0.692707 0.092904 0.217489 0.116308
H18   H     H_    0.459983 0.704859 0.666591 0.133557
H19   H     H_    0.551327 0.238050 0.275908 0.135548
H20   H     H_    0.188537 0.647982 0.401238 0.163105
H21   H     H_    0.796111 0.353068 0.500043 0.186903
H22   H     H_    0.055029 0.794986 0.468185 0.141381
H23   H     H_    0.989601 0.986768 0.146930 0.130220
H24   H     H_    0.936766 0.206101 0.441836 0.132377
H25   H     H_    0.358423 0.475820 0.483015 0.164222
H26   H     H_    0.629522 0.506479 0.429009 0.137334
H27   H     H_    0.679768 0.198974 0.519556 0.137886
H28   H     H_    0.317755 0.786647 0.419771 0.134778
H29   H     H_    0.317106 0.021747 0.695169 0.099727
H30   H     H_    0.680081 0.979966 0.301353 0.102952
H31   H     H_    0.676122 0.879963 0.845464 0.112256
H32   H     H_    0.320986 0.110427 0.151224 0.113212
H33   H     H_    0.173829 0.160478 0.571557 0.115193
H34   H     H_    0.895934 0.146828 0.894479 0.132223
H35   H     H_    0.779591 0.822253 0.372323 0.125893
H36   H     H_    0.772108 0.134428 0.680519 0.105912
H37   H     H_    0.165963 0.942053 0.344124 0.096427
H38   H     H_    0.992828 0.157435 0.083374 0.130827
H39   H     H_    0.823395 0.062430 0.990623 0.126225
H40   H     H_    0.857986 0.508208 0.902811 0.108924
H41   H     H_    0.136385 0.491387 0.080511 0.095000
H42   H     H_    0.653370 0.562702 0.810666 0.122191
H43   H     H_    0.334538 0.446337 0.135314 0.111544
H44   H     H_    0.522955 0.741629 0.845877 0.105386
N1    N     N_R   0.705410 0.966550 0.689210 -0.044165
N2    N     N_R   0.556610 0.796750 0.548620 -0.076296
N3    N     N_R   0.556610 0.951620 0.703500 -0.044659
N4    N     N_R   0.443390 0.048380 0.296500 -0.045134
N5    N     N_R   0.294590 0.131500 0.522480 -0.051830
N6    N     N_R   0.705410 0.868500 0.477520 -0.052699
N7    N     N_R   0.705410 0.023370 0.632390 -0.045359
N8    N     N_R   0.294590 0.976630 0.367610 -0.044205
N9    N     N_R   0.294590 0.033450 0.310790 -0.046014
N10   N     N_R   0.294590 0.188320 0.465660 -0.040590
N11   N     N_R   0.705410 0.811680 0.534340 -0.039823
N12   N     N_R   0.556610 0.157790 0.497330 -0.060529
N13   N     N_R   0.443390 0.842210 0.502670 -0.059989
N14   N     N_R   0.443390 0.997080 0.657540 -0.041459
N15   N     N_R   0.556610 0.002920 0.342460 -0.044600
N16   N     N_R   0.443390 0.203250 0.451380 -0.076373
Ni1   Ni    Ni4+2 0.629830 0.882720 0.617850 0.266095
Ni2   Ni    Ni4+2 0.370170 0.117280 0.382150 0.255299
Ni3   Ni    Ni4+2 0.629830 0.013030 0.487540 0.211247
Ni4   Ni    Ni4+2 0.370170 0.986970 0.512460 0.205657

loop_
_geom_bond_atom_site_label_1
_geom_bond_atom_site_label_2
_ccdc_geom_bond_type
N9    Ni2   S    
C41   N13   A    
C63   C65   A    
C59   N4    A    
C29   C42   A    
N4    N15   A    
C14   C18   A    
C3    C68   A    
N1    Ni1   S    
C33   C36   A    
C40   H27   S    
C63   N8    A    
C10   H6    S    
C47   C49   A    
C15   C19   A    
C54   N15   A    
C46   C49   A    
N3    Ni1   S    
C28   H23   S    
C6    C8    A    
C59   H32   S    
C14   C21   A    
C35   C37   A    
C24   C26   D    
C38   C42   A    
N15   Ni3   S    
C3    H44   S    
C32   H19   S    
C62   H36   S    
C40   N12   A    
C8    H4    S    
N3    N14   A    
C56   C57   A    
C12   H12   S    
C19   C66   S    
C7    C9    A    
C2    H43   S    
N6    N11   A    
C2    C13   A    
C29   H16   S    
C62   C64   A    
C59   C67   A    
C58   C66   A    
C53   H29   S    
C22   C25   D    
C35   C49   S    
C31   C33   A    
C4    H2    S    
C44   C47   A    
C36   H20   S    
C48   C50   A    
C46   H26   S    
N5    Ni4   S    
C16   H14   S    
C40   C45   A    
C30   H17   S    
N12   N16   A    
C62   N7    A    
C25   C26   S    
C27   C51   D    
C24   Cl1   S    
C45   C47   S    
C23   C60   A    
C37   C39   A    
C46   C48   A    
N8    Ni4   S    
C51   C52   S    
C43   H13   S    
C32   C35   A    
C58   H31   S    
C4    C6    A    
N12   Ni3   S    
C5    C7    A    
C17   N11   A    
C7    H3    S    
C12   N9    A    
C27   H34   S    
C33   C50   S    
C34   C61   A    
C24   C34   S    
N7    Ni3   S    
C61   N6    A    
C63   H37   S    
C2    C4    A    
C41   C56   A    
N13   Ni4   S    
C44   H25   S    
C15   H8    S    
C52   H38   S    
C15   C20   A    
C31   H18   S    
C38   H22   S    
C41   H28   S    
C37   H21   S    
C9    H5    S    
C14   H7    S    
C53   C66   A    
C9    C11   A    
C45   C55   A    
N2    Ni1   S    
N16   Ni2   S    
N4    Ni2   S    
C26   H9    S    
C25   H10   S    
C30   C43   A    
C17   C34   A    
C1    C64   A    
C11   C68   A    
C44   C50   A    
C48   C56   S    
C51   H39   S    
C19   C21   A    
C11   H40   S    
C17   H15   S    
C54   H30   S    
N14   Ni4   S    
C42   H11   S    
N11   Ni1   S    
C3    C5    A    
C10   C13   A    
C39   C43   A    
C54   C67   A    
C16   C23   A    
C6    C20   S    
C12   C65   A    
C1    H1    S    
C36   C38   A    
C28   C65   S    
C18   C67   S    
N5    N10   A    
C29   C31   A    
N2    N13   A    
C30   C32   A    
C28   C52   D    
C58   N3    A    
C18   C20   A    
C57   Cl4   S    
N1    N7    A    
C60   N5    A    
C61   H35   S    
C13   H41   S    
C39   H24   S    
C27   C64   S    
C5    C21   S    
N6    Ni3   S    
N10   Ni2   S    
C8    C10   A    
C55   N16   A    
C22   C23   S    
N8    N9    A    
C53   N14   A    
C1    N1    A    
C16   N10   A    
C22   Cl2   S    
C55   Cl3   S    
C60   H33   S    
C68   H42   S    
C57   N2    A    
