data_mof_unit_58215.cif
_audit_creation_date              2012-12-10T21:00:39-0500
_audit_creation_method            fapswitch 2.2
_symmetry_space_group_name_H-M    P1
_symmetry_Int_Tables_number       1
_space_group_crystal_system       triclinic
_cell_length_a                    18.203799
_cell_length_b                    18.170457
_cell_length_c                    18.355447
_cell_angle_alpha                 119.830277
_cell_angle_beta                  90.204199
_cell_angle_gamma                 119.910155
_cell_volume                      4302.33251437

loop_
_atom_site_label
_atom_site_type_symbol
_atom_type_description
_atom_site_fract_x
_atom_site_fract_y
_atom_site_fract_z
_atom_type_partial_charge
C1    C     C_R   0.111371 0.220096 0.609795 0.774067
C2    C     C_3   0.449856 0.896721 0.947319 0.020138
C3    C     C_3   0.447577 0.031599 0.012719 0.185643
C4    C     C_3   0.552476 0.968202 0.987460 0.187259
C5    C     C_3   0.415627 0.428006 0.449103 0.181804
C6    C     C_3   0.584423 0.572019 0.550941 0.181996
C7    C     C_3   0.486628 0.406062 0.451552 -0.262368
C8    C     C_3   0.513425 0.593965 0.548503 -0.265070
C9    C     C_3   0.551126 0.500370 0.449213 0.020559
C10   C     C_3   0.448916 0.499650 0.550830 0.020932
C11   C     C_3   0.478767 0.520523 0.444708 -0.205607
C12   C     C_R   0.888498 0.779886 0.390183 0.774146
C13   C     C_3   0.521289 0.479513 0.555353 -0.206427
C14   C     C_R   0.221160 0.186107 0.805550 -0.100299
C15   C     C_R   0.778771 0.816643 0.195105 -0.101685
C16   C     C_R   0.392704 0.780826 0.888243 0.774159
C17   C     C_R   0.607301 0.219139 0.111862 0.772392
C18   C     C_R   0.179424 0.137840 0.715736 0.104220
C19   C     C_R   0.820306 0.863559 0.284643 0.104159
C20   C     C_R   0.088222 0.099063 0.685098 0.090962
C21   C     C_R   0.911145 0.900918 0.314856 0.091083
C22   C     C_R   0.039680 0.107758 0.745275 0.152186
C23   C     C_3   0.922576 0.404824 0.448333 -0.180086
C24   C     C_R   0.959422 0.891730 0.254460 0.152943
C25   C     C_R   0.082918 0.155418 0.835033 -0.163958
C26   C     C_R   0.916334 0.845106 0.164951 -0.162835
C27   C     C_R   0.173184 0.194715 0.864868 -0.190918
C28   C     C_R   0.826520 0.807568 0.135602 -0.192617
C29   C     C_R   0.987736 0.943428 0.534950 -0.232797
C30   C     C_R   0.011855 0.056523 0.464993 -0.232686
C31   C     C_R   0.944164 0.892250 0.444920 -0.069350
C32   C     C_R   0.055493 0.107696 0.555013 -0.069688
C33   C     C_R   0.955972 0.949377 0.409357 0.006687
C34   C     C_3   0.077423 0.595173 0.551662 -0.180576
C35   C     C_R   0.043557 0.050545 0.590570 0.006542
C36   C     C_R   0.660989 0.613348 0.809837 -0.136136
C37   C     C_R   0.340877 0.388998 0.192985 -0.139849
C38   C     C_R   0.609555 0.559719 0.844714 -0.198037
C39   C     C_R   0.392910 0.443274 0.158805 -0.197965
C40   C     C_R   0.109911 0.499546 0.888740 0.822148
C41   C     C_R   0.890056 0.500420 0.111229 0.821879
C42   C     C_R   0.593396 0.610948 0.923188 0.138629
C43   C     C_R   0.407057 0.391741 0.078949 0.146468
C44   C     C_R   0.628866 0.717098 0.966661 0.166161
C45   C     C_3   0.451775 0.966054 0.920671 -0.263641
C46   C     C_R   0.369022 0.284767 0.033407 0.153436
C47   C     C_R   0.681333 0.770312 0.931251 -0.157436
C48   C     C_R   0.316125 0.230925 0.068174 -0.163440
C49   C     C_R   0.697282 0.718596 0.853393 -0.140009
C50   C     C_R   0.302141 0.282913 0.147436 -0.124836
C51   C     C_R   0.592271 0.550971 0.016216 -0.260209
C52   C     C_R   0.408154 0.451877 0.986096 -0.259201
C53   C     C_R   0.550312 0.499545 0.055782 -0.047443
C54   C     C_R   0.449986 0.502574 0.945967 -0.048743
C55   C     C_R   0.457029 0.448945 0.040546 0.007145
C56   C     C_3   0.548282 0.033749 0.079504 -0.217887
C57   C     C_R   0.543446 0.554069 0.961892 0.004729
C58   C     C_R   0.185107 0.832794 0.009432 -0.182982
C59   C     C_R   0.814531 0.167027 0.990405 -0.183473
C60   C     C_R   0.153289 0.756646 0.025658 -0.163968
C61   C     C_R   0.846410 0.243177 0.974167 -0.160642
C62   C     C_R   0.071840 0.659103 0.967248 0.145910
C63   C     C_R   0.927919 0.340673 0.032539 0.145043
C64   C     C_R   0.392198 0.499766 0.607734 0.785009
C65   C     C_R   0.607808 0.500235 0.392273 0.786129
C66   C     C_R   0.022697 0.638290 0.892283 -0.153486
C67   C     C_3   0.556527 0.038205 0.961241 -0.251623
C68   C     C_R   0.977064 0.361421 0.107463 -0.153827
C69   C     C_R   0.055536 0.714156 0.874899 0.176722
C70   C     C_R   0.944167 0.285557 0.124856 0.177355
C71   C     C_R   0.136592 0.811626 0.934307 -0.105329
C72   C     C_R   0.863047 0.188144 0.065494 -0.105874
C73   C     C_R   0.986121 0.579345 0.040815 0.043191
C74   C     C_R   0.013707 0.420488 0.959018 0.043098
C75   C     C_R   0.947405 0.500651 0.055524 -0.098537
C76   C     C_R   0.052462 0.499216 0.944348 -0.098655
C77   C     C_R   0.962610 0.421898 0.015482 -0.089652
C78   C     C_3   0.443580 0.961714 0.038987 -0.203356
C79   C     C_R   0.037197 0.577916 0.984337 -0.089467
C80   C     C_R   0.393941 0.500109 0.888669 0.792309
C81   C     C_R   0.606103 0.500317 0.111705 0.792005
C82   C     C_R   0.108958 0.500144 0.607694 0.767149
C83   C     C_R   0.891042 0.499855 0.392305 0.767598
C84   C     C_3   0.017427 0.430667 0.448171 -0.143330
C85   C     C_3   0.982571 0.569330 0.551825 -0.143444
C86   C     C_3   0.042844 0.525781 0.448453 -0.182705
C87   C     C_3   0.957154 0.474215 0.551543 -0.182490
C88   C     C_3   0.948808 0.499881 0.449360 0.063388
C89   C     C_3   0.550213 0.103170 0.052941 0.016504
C90   C     C_3   0.051191 0.500116 0.550636 0.063586
H1    H     H_    0.077097 0.546690 0.405156 0.123297
H2    H     H_    0.329637 0.428908 0.254270 0.134285
H3    H     H_    0.582943 0.478471 0.811105 0.128918
H4    H     H_    0.421387 0.525190 0.193937 0.128006
H5    H     H_    0.032470 0.373639 0.406212 0.147854
H6    H     H_    0.967525 0.626355 0.593778 0.147682
H7    H     H_    0.710443 0.852024 0.964178 0.127473
H8    H     H_    0.285252 0.148597 0.033717 0.125255
H9    H     H_    0.663726 0.588634 0.026842 0.175631
H10   H     H_    0.336677 0.414142 0.975374 0.174477
H11   H     H_    0.161871 0.870995 0.922112 0.116482
H12   H     H_    0.922901 0.453304 0.594839 0.123338
H13   H     H_    0.837715 0.128776 0.077694 0.116552
H14   H     H_    0.247395 0.908347 0.055239 0.140066
H15   H     H_    0.752196 0.091512 0.944647 0.123552
H16   H     H_    0.191647 0.773624 0.083768 0.117297
H17   H     H_    0.808046 0.226242 0.916088 0.115642
H18   H     H_    0.959846 0.562812 0.847221 0.106322
H19   H     H_    0.039959 0.436858 0.152497 0.106548
H20   H     H_    0.858267 0.326623 0.404979 0.127295
H21   H     H_    0.141731 0.673374 0.595017 0.126412
H22   H     H_    0.410883 0.938334 0.856284 0.135858
H23   H     H_    0.205976 0.232072 0.934265 0.153411
H24   H     H_    0.589146 0.061488 0.143917 0.132908
H25   H     H_    0.474660 0.328671 0.410268 0.140155
H26   H     H_    0.525393 0.671356 0.589789 0.136538
H27   H     H_    0.460815 0.535486 0.398075 0.136889
H28   H     H_    0.539374 0.464727 0.602089 0.137927
H29   H     H_    0.291276 0.217392 0.829294 0.170308
H30   H     H_    0.709037 0.786916 0.171661 0.168940
H31   H     H_    0.197554 0.050382 0.604804 0.182454
H32   H     H_    0.233264 0.168592 0.629853 0.178067
H33   H     H_    0.802984 0.951254 0.396153 0.182737
H34   H     H_    0.793889 0.771256 0.066440 0.153292
H35   H     H_    0.766138 0.832391 0.370174 0.177623
H36   H     H_    0.945424 0.116059 0.699124 0.187079
H37   H     H_    0.919780 0.075945 0.766000 0.166009
H38   H     H_    0.052488 0.881276 0.299566 0.187609
H39   H     H_    0.078925 0.922188 0.233286 0.167007
H40   H     H_    0.046912 0.162910 0.882165 0.129574
H41   H     H_    0.952156 0.837256 0.117669 0.129950
H42   H     H_    0.544136 0.740499 0.029438 0.200159
H43   H     H_    0.648006 0.849210 0.073411 0.181259
H44   H     H_    0.450143 0.255538 0.968081 0.191160
H45   H     H_    0.979561 0.900027 0.562405 0.174447
H46   H     H_    0.342635 0.151514 0.921283 0.161527
H47   H     H_    0.047355 0.695612 0.756960 0.189790
H48   H     H_    0.948046 0.618712 0.760903 0.169126
H49   H     H_    0.952398 0.304144 0.242816 0.190255
H50   H     H_    0.051709 0.380909 0.238786 0.169038
H51   H     H_    0.943165 0.661990 0.036487 0.188529
H52   H     H_    0.037344 0.733143 0.124440 0.170591
H53   H     H_    0.962499 0.266688 0.875388 0.170348
H54   H     H_    0.056673 0.337867 0.963357 0.188484
H55   H     H_    0.603655 0.069568 0.929978 0.135524
H56   H     H_    0.020046 0.099957 0.437569 0.174402
H57   H     H_    0.396420 0.930320 0.070218 0.131947
H58   H     H_    0.408530 0.114397 0.004226 0.185175
H59   H     H_    0.324457 0.002598 0.985583 0.159850
H60   H     H_    0.675289 0.996322 0.015186 0.160974
H61   H     H_    0.609411 0.902852 0.908055 0.183682
H62   H     H_    0.320218 0.310793 0.327262 0.171984
H63   H     H_    0.296433 0.293200 0.407589 0.192127
H64   H     H_    0.679863 0.689143 0.672776 0.169707
H65   H     H_    0.703592 0.706876 0.592507 0.191210
H66   H     H_    0.738387 0.760547 0.827221 0.128008
H67   H     H_    0.260663 0.240557 0.173157 0.129038
H68   H     H_    0.673601 0.573592 0.749537 0.134788
N1    N     N_3   0.230774 0.128887 0.656851 -0.479081
N2    N     N_3   0.025395 0.337646 0.915293 -0.414113
N3    N     N_3   0.389841 0.067534 0.027250 -0.452737
N4    N     N_3   0.609769 0.931686 0.973618 -0.459608
N5    N     N_3   0.321572 0.348332 0.393109 -0.439711
N6    N     N_3   0.678485 0.651684 0.606915 -0.439535
N7    N     N_3   0.769195 0.872799 0.343737 -0.478580
N8    N     N_3   0.947054 0.068754 0.714773 -0.468374
N9    N     N_3   0.051690 0.929390 0.284537 -0.467588
N10   N     N_3   0.612322 0.770135 0.046762 -0.489231
N11   N     N_3   0.383514 0.231665 0.951833 -0.493533
N12   N     N_3   0.007436 0.693802 0.797709 -0.476775
N13   N     N_3   0.992268 0.305862 0.202016 -0.476495
N14   N     N_3   0.974443 0.662197 0.084540 -0.414338
O1    O     O_3   0.251620 0.500000 0.748430 -0.484749
O2    O     O_R   0.570330 0.268390 0.136490 -0.634501
O3    O     O_R   0.134680 0.268390 0.572240 -0.646567
O4    O     O_R   0.865320 0.731610 0.427760 -0.646803
O5    O     O_R   0.306670 0.731630 0.863510 -0.638266
O6    O     O_R   0.693330 0.268370 0.136490 -0.636685
O7    O     O_R   0.135450 0.439270 0.865360 -0.616032
O8    O     O_R   0.864550 0.560730 0.134640 -0.616162
O9    O     O_R   0.429670 0.560710 0.692610 -0.639320
O10   O     O_R   0.570330 0.439290 0.307390 -0.635548
O11   O     O_R   0.308540 0.439240 0.865360 -0.644300
O12   O     O_3   0.748380 0.500000 0.251570 -0.484865
O13   O     O_R   0.691460 0.560760 0.134640 -0.644580
O14   O     O_R   0.133580 0.439310 0.571150 -0.642310
O15   O     O_R   0.866420 0.560690 0.428850 -0.642273
O16   O     O_R   0.430770 0.560690 0.864590 -0.646056
O17   O     O_R   0.569230 0.439310 0.135410 -0.647502
O18   O     O_R   0.133580 0.560760 0.692610 -0.648239
O19   O     O_R   0.866420 0.439240 0.307390 -0.648022
O20   O     O_R   0.134680 0.560740 0.864590 -0.642727
O21   O     O_R   0.865320 0.439260 0.135410 -0.642825
O22   O     O_R   0.306670 0.439270 0.571150 -0.633975
O23   O     O_R   0.693330 0.560730 0.428850 -0.634455
O24   O     O_R   0.135450 0.268370 0.694460 -0.639804
O25   O     O_R   0.864550 0.731630 0.305540 -0.640338
O26   O     O_R   0.429670 0.731610 0.863510 -0.632293
Zn1   Zn    Zn3+2 0.207400 0.586780 0.791530 0.960629
Zn2   Zn    Zn3+2 0.792600 0.413220 0.208470 0.961405
Zn3   Zn    Zn3+2 0.208510 0.413230 0.792630 0.969681
Zn4   Zn    Zn3+2 0.791490 0.586770 0.207370 0.968707
Zn5   Zn    Zn3+2 0.383150 0.586740 0.791530 0.965968
Zn6   Zn    Zn3+2 0.616850 0.413260 0.208470 0.967270
Zn7   Zn    Zn3+2 0.207400 0.413250 0.618010 0.961115
Zn8   Zn    Zn3+2 0.792600 0.586750 0.381990 0.961444

loop_
_geom_bond_atom_site_label_1
_geom_bond_atom_site_label_2
_ccdc_geom_bond_type
C17   O6    A    
O1    Zn7   S    
O12   Zn6   S    
H48   N12   S    
C14   C18   A    
C49   H66   S    
H35   N7    S    
C84   C90   S    
C76   C79   A    
C6    C9    S    
C13   H28   S    
C45   H22   S    
O12   Zn8   S    
H53   N2    S    
C47   C49   A    
C17   O2    A    
C15   C19   A    
C59   H15   S    
C74   C76   A    
C82   O14   A    
O10   Zn6   S    
H58   N3    S    
C5    N5    S    
C60   C62   A    
C19   C21   A    
C84   C86   S    
C38   C42   A    
O8    Zn4   S    
C86   H1    S    
C8    C11   S    
C34   C86   S    
C85   H6    S    
C86   C88   S    
C58   C71   A    
O20   Zn1   S    
C66   C69   A    
O1    Zn1   S    
C7    H25   S    
C87   H12   S    
C67   C89   S    
C56   C78   S    
C15   H30   S    
O15   Zn8   S    
C53   C81   S    
C44   N10   S    
C80   O11   A    
O4    Zn8   S    
C69   C71   A    
C41   O21   A    
C18   N1    S    
C41   O8    A    
C63   C68   A    
C20   C35   S    
C28   H34   S    
O7    Zn3   S    
O12   Zn2   S    
H44   N11   S    
C64   O22   A    
C45   C67   S    
H38   N9    S    
O22   Zn7   S    
H32   N1    S    
C31   C33   A    
H49   N13   S    
C51   C57   A    
C21   C33   S    
C14   C27   A    
H54   N2    S    
C2    C16   S    
C37   H2    S    
C52   C55   A    
C36   H68   S    
C59   C72   A    
C12   O4    A    
C85   C87   S    
C83   C88   S    
C71   H11   S    
C80   O16   A    
O17   Zn6   S    
C23   C87   S    
C82   O18   A    
C34   H21   S    
C73   C75   A    
C83   O15   A    
O9    Zn5   S    
C42   C44   A    
C25   H40   S    
C42   C57   S    
C81   O13   A    
C52   C54   A    
O18   Zn1   S    
C30   H56   S    
C54   C80   S    
C65   O10   A    
C53   C55   A    
C50   H67   S    
C51   H9    S    
H60   N4    S    
C46   C48   A    
C59   C61   A    
O12   Zn4   S    
C23   C84   S    
C62   C66   A    
O11   Zn3   S    
C32   C35   A    
C62   C79   S    
C1    O24   A    
C17   C89   S    
O19   Zn2   S    
H43   N10   S    
C66   H18   S    
C5    C7    S    
H39   N9    S    
O1    Zn3   S    
C39   C43   A    
C8    H26   S    
C22   C25   A    
H51   N14   S    
C40   C76   S    
C51   C53   A    
C34   C85   S    
H33   N7    S    
O13   Zn4   S    
C2    C4    S    
C70   N13   S    
C34   C90   S    
C39   H4    S    
C67   H55   S    
C2    C78   S    
C41   C75   S    
C40   O7    A    
C9    C11   S    
C40   O20   A    
C7    C13   S    
C12   O25   A    
H61   N4    S    
C74   C77   A    
C61   C63   A    
C3    C89   S    
C73   C79   A    
O25   Zn4   S    
O14   Zn7   S    
C73   N14   S    
C75   C77   A    
C69   N12   S    
C81   O17   A    
H47   N12   S    
C78   H57   S    
C64   O9    A    
C27   H23   S    
C43   C55   S    
C56   C89   S    
C29   H45   S    
C20   C22   A    
H50   N13   S    
C23   C88   S    
C2    C45   S    
C12   C31   S    
O5    Zn1   S    
C4    N4    S    
C21   C24   A    
C58   H14   S    
O3    Zn7   S    
C11   H27   S    
C16   O26   A    
C16   O5    A    
H52   N14   S    
C63   C77   S    
C85   C88   S    
C83   O19   A    
C7    C9    S    
C23   H20   S    
O6    Zn2   S    
C24   N9    S    
C1    O3    A    
O2    Zn6   S    
C30   C33   A    
C8    C10   S    
C10   C64   S    
H42   N10   S    
C6    N6    S    
H36   N8    S    
C10   C13   S    
C82   C90   S    
C4    C67   S    
C6    C8    S    
C44   C47   A    
C5    C11   S    
C60   H16   S    
H65   N6    S    
C25   C27   A    
O21   Zn2   S    
C48   H8    S    
C29   C35   A    
O16   Zn5   S    
C26   C28   A    
C47   H7    S    
C46   N11   S    
C74   N2    S    
O1    Zn5   S    
C36   C38   A    
C5    C10   S    
C29   C31   A    
H63   N5    S    
C6    C13   S    
C30   C32   A    
C37   C50   A    
C24   C26   A    
C15   C28   A    
O23   Zn8   S    
C26   H41   S    
H37   N8    S    
C38   H3    S    
C48   C50   A    
C3    C45   S    
C18   C20   A    
C68   H19   S    
C1    C32   S    
C61   H17   S    
C43   C46   A    
C9    C65   S    
H62   N5    S    
H64   N6    S    
C3    N3    S    
C22   N8    S    
C37   C39   A    
H59   N3    S    
H46   N11   S    
C68   C70   A    
C14   H29   S    
H31   N1    S    
C87   C90   S    
O26   Zn5   S    
C52   H10   S    
C56   H24   S    
C72   H13   S    
C70   C72   A    
C19   N7    S    
O24   Zn3   S    
C3    C78   S    
C58   C60   A    
C84   H5    S    
C4    C56   S    
C36   C49   A    
C65   O23   A    
C54   C57   A    
