data_mof_unit_16323.cif
_audit_creation_date              2012-12-11T15:23:47-0500
_audit_creation_method            fapswitch 2.2
_symmetry_space_group_name_H-M    P1
_symmetry_Int_Tables_number       1
_space_group_crystal_system       triclinic
_cell_length_a                    17.400071
_cell_length_b                    24.486545
_cell_length_c                    15.136653
_cell_angle_alpha                 89.499584
_cell_angle_beta                  126.311355
_cell_angle_gamma                 90.510919
_cell_volume                      5196.61198483

loop_
_atom_site_label
_atom_site_type_symbol
_atom_type_description
_atom_site_fract_x
_atom_site_fract_y
_atom_site_fract_z
_atom_type_partial_charge
C1    C     C_R   0.319512 0.364333 0.909010 0.210699
C2    C     C_R   0.641817 0.346721 0.091394 0.172999
C3    C     C_R   0.819237 0.864561 0.908802 0.209828
C4    C     C_R   0.141864 0.846704 0.091028 0.174976
C5    C     C_R   0.325724 0.651221 0.995908 0.047523
C6    C     C_R   0.612271 0.684630 0.002486 0.052400
C7    C     C_R   0.825786 0.151297 0.995975 0.048308
C8    C     C_R   0.111887 0.184785 0.002886 0.053903
C9    C     C_R   0.558381 0.500655 0.360062 -0.031496
C10   C     C_R   0.522449 0.501940 0.698867 -0.051882
C11   C     C_R   0.058273 0.001500 0.361117 -0.022658
C12   C     C_R   0.037928 0.002331 0.714202 -0.051755
C13   C     C_R   0.188871 0.500586 0.641349 0.135038
C14   C     C_R   0.822830 0.500558 0.265315 0.130831
C15   C     C_R   0.688765 0.000579 0.641469 0.135838
C16   C     C_R   0.322822 0.000545 0.265309 0.130640
C17   C     C_2   0.978591 0.458105 0.357926 -0.108870
C18   C     C_2   0.076480 0.461675 0.458324 -0.112797
C19   C     C_2   0.478567 0.958088 0.358000 -0.110626
C20   C     C_2   0.576412 0.961664 0.458454 -0.104065
C21   C     C_2   0.924180 0.502677 0.313205 -0.193463
C22   C     C_2   0.102837 0.502667 0.529548 -0.194295
C23   C     C_2   0.424174 0.002661 0.313237 -0.192433
C24   C     C_2   0.602696 0.002640 0.529693 -0.195472
C25   C     C_R   0.176077 0.682889 0.950860 -0.192874
C26   C     C_R   0.730595 0.755265 0.105564 -0.184603
C27   C     C_R   0.675968 0.182874 0.950776 -0.191226
C28   C     C_R   0.230527 0.255270 0.106186 -0.185995
C29   C     C_R   0.621967 0.222486 0.954124 -0.175551
C30   C     C_R   0.285752 0.294407 0.103926 -0.166658
C31   C     C_R   0.122126 0.722618 0.953947 -0.176832
C32   C     C_R   0.785395 0.794748 0.103442 -0.161251
C33   C     C_R   0.665427 0.271788 0.004541 0.125145
C34   C     C_R   0.252034 0.321744 0.006113 0.100103
C35   C     C_R   0.165613 0.771993 0.003840 0.124626
C36   C     C_R   0.751451 0.822206 0.005680 0.100053
C37   C     C_R   0.760205 0.283231 0.047792 -0.207593
C38   C     C_R   0.156374 0.316443 0.916063 -0.194075
C39   C     C_R   0.260310 0.783422 0.046798 -0.211856
C40   C     C_R   0.655893 0.816648 0.915538 -0.191669
C41   C     C_R   0.314088 0.745265 0.039820 0.224762
C42   C     C_R   0.598314 0.776909 0.917099 0.213376
C43   C     C_R   0.814033 0.245207 0.040561 0.225107
C44   C     C_R   0.098440 0.277020 0.917743 0.215089
C45   C     C_R   0.408119 0.631402 0.089659 -0.160033
C46   C     C_R   0.556686 0.651960 0.910783 -0.138850
C47   C     C_R   0.908144 0.131410 0.089692 -0.158998
C48   C     C_R   0.056218 0.152194 0.911076 -0.141139
C49   C     C_R   0.271396 0.694016 0.994921 0.059709
C50   C     C_R   0.641944 0.741344 0.009033 0.039915
C51   C     C_R   0.771342 0.194028 0.995099 0.058586
C52   C     C_R   0.141757 0.241484 0.009667 0.041774
C53   C     C_R   0.619295 0.521242 0.635241 -0.173950
C54   C     C_R   0.629426 0.519838 0.551444 -0.153462
C55   C     C_R   0.000195 0.042600 0.547044 -0.164207
C56   C     C_R   0.005167 0.041891 0.460338 -0.183889
C57   C     C_R   0.552920 0.501186 0.449007 0.185000
C58   C     C_R   0.532646 0.504601 0.613254 0.174793
C59   C     C_R   0.066930 0.005571 0.460923 0.160793
C60   C     C_R   0.056593 0.006736 0.634497 0.178865
C61   C     C_R   0.465707 0.486221 0.426850 -0.143345
C62   C     C_R   0.455066 0.488675 0.509213 -0.115499
C63   C     C_R   0.129223 0.972675 0.552245 -0.115485
C64   C     C_R   0.123299 0.972874 0.639544 -0.128173
C65   C     C_R   0.547669 0.454720 0.302674 0.302496
C66   C     C_R   0.499282 0.455061 0.730069 0.329541
C67   C     C_R   0.048831 0.955001 0.303975 0.306683
C68   C     C_R   0.008447 0.955280 0.738473 0.328552
C69   C     C_R   0.239802 0.545638 0.702335 -0.147218
C70   C     C_R   0.767263 0.545724 0.243912 -0.141628
C71   C     C_R   0.739738 0.045638 0.702405 -0.145458
C72   C     C_R   0.267264 0.045717 0.243902 -0.141247
C73   C     C_R   0.543113 0.545709 0.298363 -0.210619
C74   C     C_R   0.505899 0.546904 0.738447 -0.200022
C75   C     C_R   0.043530 0.046018 0.297963 -0.208215
C76   C     C_R   0.016176 0.046848 0.749885 -0.194660
C77   C     C_R   0.240684 0.454801 0.699790 -0.128955
C78   C     C_R   0.766875 0.454501 0.241694 -0.108892
C79   C     C_R   0.740622 0.954797 0.699865 -0.124136
C80   C     C_R   0.266865 0.954491 0.241700 -0.113288
C81   C     C_R   0.317441 0.633203 0.904747 -0.123561
C82   C     C_R   0.642969 0.652058 0.092183 -0.140174
C83   C     C_R   0.817487 0.133261 0.904790 -0.123218
C84   C     C_R   0.142860 0.152055 0.092397 -0.139648
C85   C     C_R   0.403360 0.374083 0.090901 -0.190668
C86   C     C_R   0.552846 0.346528 0.910688 -0.114650
C87   C     C_R   0.902618 0.874645 0.090464 -0.180337
C88   C     C_R   0.053284 0.846832 0.910137 -0.132394
C89   C     C_R   0.319199 0.353753 0.999786 0.023945
C90   C     C_R   0.611531 0.315426 0.002068 -0.001439
C91   C     C_R   0.818503 0.854315 0.999331 0.019886
C92   C     C_R   0.111873 0.815645 0.001415 0.004804
H1    H     H_    0.956608 0.542964 0.330759 0.133850
H2    H     H_    0.057846 0.537950 0.509119 0.135400
H3    H     H_    0.456618 0.042945 0.330828 0.134490
H4    H     H_    0.557654 0.037899 0.509268 0.134919
H5    H     H_    0.144199 0.643501 0.915042 0.135100
H6    H     H_    0.764822 0.731086 0.179707 0.129738
H7    H     H_    0.644077 0.143547 0.914551 0.135740
H8    H     H_    0.264511 0.231174 0.180403 0.129727
H9    H     H_    0.547517 0.214900 0.918602 0.126556
H10   H     H_    0.358311 0.298579 0.176513 0.144648
H11   H     H_    0.047723 0.715060 0.918691 0.126091
H12   H     H_    0.857919 0.799063 0.176048 0.146235
H13   H     H_    0.790928 0.322896 0.083367 0.123407
H14   H     H_    0.128112 0.341716 0.844239 0.131509
H15   H     H_    0.291004 0.823146 0.082004 0.123479
H16   H     H_    0.627500 0.841937 0.843703 0.131423
H17   H     H_    0.678382 0.534165 0.716557 0.127179
H18   H     H_    0.695915 0.532426 0.566056 0.126588
H19   H     H_    0.947848 0.068656 0.542358 0.123369
H20   H     H_    0.956559 0.067553 0.389978 0.125912
H21   H     H_    0.406086 0.473266 0.345736 0.123243
H22   H     H_    0.387404 0.477225 0.492835 0.143676
H23   H     H_    0.180496 0.946507 0.555400 0.165218
H24   H     H_    0.168055 0.945864 0.708856 0.140258
H25   H     H_    0.438094 0.641246 0.173753 0.103872
H26   H     H_    0.515341 0.664446 0.825949 0.087041
H27   H     H_    0.938076 0.141154 0.173826 0.101747
H28   H     H_    0.014427 0.164910 0.826356 0.087146
H29   H     H_    0.226345 0.587509 0.673802 0.098778
H30   H     H_    0.788590 0.588029 0.251980 0.103248
H31   H     H_    0.726245 0.087508 0.673868 0.098966
H32   H     H_    0.288602 0.088019 0.251971 0.103538
H33   H     H_    0.552790 0.587942 0.323338 0.119686
H34   H     H_    0.508905 0.589416 0.720806 0.124485
H35   H     H_    0.056397 0.088325 0.323116 0.116864
H36   H     H_    0.024329 0.089485 0.737945 0.121246
H37   H     H_    0.226817 0.414289 0.666938 0.092639
H38   H     H_    0.788097 0.412938 0.245629 0.082536
H39   H     H_    0.726716 0.914282 0.667017 0.091808
H40   H     H_    0.288070 0.912919 0.245655 0.083327
H41   H     H_    0.264640 0.644567 0.820092 0.105637
H42   H     H_    0.676119 0.665441 0.175358 0.092687
H43   H     H_    0.764671 0.144628 0.820141 0.106124
H44   H     H_    0.176086 0.165297 0.175669 0.092137
H45   H     H_    0.425941 0.373451 0.173962 0.164383
H46   H     H_    0.505269 0.330106 0.829544 0.173804
H47   H     H_    0.924281 0.874527 0.173095 0.170121
H48   H     H_    0.007163 0.831067 0.828167 0.175072
H49   H     H_    0.947377 0.417527 0.335139 0.117276
H50   H     H_    0.121458 0.426103 0.481260 0.128649
H51   H     H_    0.447354 0.917510 0.335194 0.117022
H52   H     H_    0.621431 0.926113 0.481380 0.130202
N1    N     N_R   0.395440 0.396300 0.944370 -0.068547
N2    N     N_R   0.604560 0.396300 0.055630 -0.068213
N3    N     N_R   0.895440 0.896300 0.944370 -0.068309
N4    N     N_R   0.104560 0.896300 0.055630 -0.067948
N5    N     N_R   0.449890 0.602500 0.055780 -0.036795
N6    N     N_R   0.550110 0.602500 0.944220 -0.034450
N7    N     N_R   0.949890 0.102500 0.055780 -0.036684
N8    N     N_R   0.050110 0.102500 0.944220 -0.035056
N9    N     N_R   0.525090 0.470990 0.205640 -0.070751
N10   N     N_R   0.474910 0.470990 0.794360 -0.071080
N11   N     N_R   0.025090 0.970990 0.205640 -0.067521
N12   N     N_R   0.974910 0.970990 0.794360 -0.068391
N13   N     N_R   0.320240 0.527820 0.794510 -0.041808
N14   N     N_R   0.679760 0.527820 0.205490 -0.041414
N15   N     N_R   0.820240 0.027820 0.794510 -0.042192
N16   N     N_R   0.179760 0.027820 0.205490 -0.042132
N17   N     N_R   0.524580 0.527810 0.205160 -0.049344
N18   N     N_R   0.475420 0.527810 0.794840 -0.051715
N19   N     N_R   0.024580 0.027810 0.205160 -0.049046
N20   N     N_R   0.975420 0.027810 0.794840 -0.051276
N21   N     N_R   0.320750 0.470990 0.794990 -0.050652
N22   N     N_R   0.679250 0.470990 0.205010 -0.043943
N23   N     N_R   0.820750 0.970990 0.794990 -0.050618
N24   N     N_R   0.179250 0.970990 0.205010 -0.044549
N25   N     N_R   0.393580 0.602500 0.942610 -0.040417
N26   N     N_R   0.606420 0.602500 0.057390 -0.039008
N27   N     N_R   0.893580 0.102500 0.942610 -0.040535
N28   N     N_R   0.106420 0.102500 0.057390 -0.038912
N29   N     N_R   0.451750 0.396300 0.057540 -0.043779
N30   N     N_R   0.548250 0.396300 0.942460 -0.057691
N31   N     N_R   0.951750 0.896300 0.057540 -0.043556
N32   N     N_R   0.048250 0.896300 0.942460 -0.059371
Ni1   Ni    Ni4+2 0.435420 0.434250 0.870220 0.220416
Ni2   Ni    Ni4+2 0.564580 0.434250 0.129780 0.236629
Ni3   Ni    Ni4+2 0.935420 0.934250 0.870220 0.222440
Ni4   Ni    Ni4+2 0.064580 0.934250 0.129780 0.236042
Ni5   Ni    Ni4+2 0.563400 0.564580 0.128670 0.207091
Ni6   Ni    Ni4+2 0.436600 0.564580 0.871330 0.206740
Ni7   Ni    Ni4+2 0.063400 0.064580 0.128670 0.206604
Ni8   Ni    Ni4+2 0.936600 0.064580 0.871330 0.207394
C93   C     C_3   0.271529 0.331108 0.805591 -0.407278
C94   C     C_3   0.290801 0.270009 0.829696 -0.875371
H53   H     H_    0.368788 0.262492 0.887313 0.255989
H54   H     H_    0.255308 0.253131 0.865270 0.262042
H55   H     H_    0.262480 0.247918 0.752206 0.249636
H56   H     H_    0.193745 0.338995 0.750991 0.181302
H57   H     H_    0.302783 0.342738 0.762041 0.202895
C95   C     C_3   0.683630 0.324963 0.204807 -0.393421
C96   C     C_3   0.623448 0.278538 0.202979 -0.800569
H58   H     H_    0.548721 0.291995 0.161886 0.265802
H59   H     H_    0.624062 0.242547 0.159305 0.239158
H60   H     H_    0.653329 0.266066 0.288317 0.264237
H61   H     H_    0.757107 0.310120 0.242382 0.177578
H62   H     H_    0.687284 0.357951 0.256825 0.234009
C97   C     C_3   0.771440 0.831150 0.805630 -0.404271
C98   C     C_3   0.790979 0.770097 0.830213 -0.879072
H63   H     H_    0.868999 0.762701 0.887900 0.256446
H64   H     H_    0.755557 0.753274 0.865909 0.261980
H65   H     H_    0.762766 0.747858 0.752901 0.248908
H66   H     H_    0.693622 0.838923 0.750933 0.180524
H67   H     H_    0.802679 0.842709 0.762030 0.202544
C99   C     C_3   0.183675 0.824697 0.204257 -0.395099
C100  C     C_3   0.123168 0.778354 0.202020 -0.797524
H68   H     H_    0.048585 0.792015 0.161266 0.266475
H69   H     H_    0.123343 0.742474 0.157808 0.238406
H70   H     H_    0.153085 0.765628 0.287243 0.264231
H71   H     H_    0.257019 0.809700 0.241563 0.177804
H72   H     H_    0.187656 0.857579 0.256664 0.234173
C101  C     C_3   0.413987 0.761507 0.077907 -0.413622
C102  C     C_3   0.410974 0.806606 0.005695 -0.867636
H73   H     H_    0.367234 0.793204 0.918823 0.270563
H74   H     H_    0.380593 0.844713 0.012214 0.255808
H75   H     H_    0.484580 0.815521 0.032520 0.256434
H76   H     H_    0.455566 0.775903 0.164095 0.188867
H77   H     H_    0.454221 0.727396 0.076140 0.207745
C103  C     C_3   0.493833 0.772538 0.821013 -0.412372
C104  C     C_3   0.442756 0.827621 0.788987 -0.868026
H78   H     H_    0.459445 0.849449 0.862440 0.262254
H79   H     H_    0.463954 0.853674 0.746286 0.253010
H80   H     H_    0.364457 0.820950 0.732017 0.263899
H81   H     H_    0.487611 0.755668 0.749112 0.192207
H82   H     H_    0.455718 0.744960 0.841923 0.201270
C105  C     C_3   0.913996 0.261528 0.078974 -0.419655
C106  C     C_3   0.911145 0.306874 0.007280 -0.858404
H83   H     H_    0.867491 0.293690 0.920276 0.271624
H84   H     H_    0.880761 0.344893 0.014111 0.257157
H85   H     H_    0.984796 0.315847 0.034314 0.253473
H86   H     H_    0.955496 0.275702 0.165300 0.188416
H87   H     H_    0.954243 0.227514 0.076942 0.208138
C107  C     C_3   0.993861 0.272985 0.821853 -0.425074
C108  C     C_3   0.943365 0.328227 0.790581 -0.844685
H88   H     H_    0.960269 0.349824 0.864347 0.260108
H89   H     H_    0.964850 0.354359 0.748263 0.251904
H90   H     H_    0.865005 0.321823 0.733512 0.267376
H91   H     H_    0.987263 0.256225 0.749652 0.193569
H92   H     H_    0.955623 0.245470 0.842690 0.202240
Br1   Br    Br    0.598699 0.384871 0.369442 -0.612927
Br2   Br    Br    0.475138 0.385096 0.662366 -0.609888
Br3   Br    Br    0.096004 0.883782 0.366181 -0.648351
Br4   Br    Br    0.978804 0.887793 0.661386 -0.601541

loop_
_geom_bond_atom_site_label_1
_geom_bond_atom_site_label_2
_ccdc_geom_bond_type
C25   C31   A    
C7    C83   A    
C55   C56   A    
C82   N26   A    
C3    N3    A    
C6    C82   A    
C3    C91   A    
C87   C91   A    
C27   C29   A    
N21   Ni1   S    
C20   H52   S    
N23   Ni3   S    
C19   C20   S    
C16   C72   A    
C58   C62   A    
C106  H84   S    
C28   H8    S    
C101  H77   S    
C93   H56   S    
C39   C41   A    
C74   H34   S    
C53   C54   A    
C39   H15   S    
C12   C68   A    
C54   H18   S    
N4    N32   A    
C21   H1    S    
C23   H3    S    
C64   H24   S    
C15   C71   A    
C32   C36   A    
C14   C21   S    
C71   H31   S    
C10   C58   S    
C2    C95   S    
C62   H22   S    
C104  H80   S    
C42   C103  S    
C103  H81   S    
C26   C50   A    
N8    N28   A    
N12   Ni3   S    
N3    N31   A    
C77   N21   A    
C80   H40   S    
C4    N4    A    
C29   C33   A    
C97   H67   S    
C14   C78   A    
N7    N27   A    
C46   H26   S    
C75   N19   A    
C57   C61   A    
C2    C90   A    
C88   H48   S    
C65   N9    A    
C102  H74   S    
C99   H72   S    
C1    N1    A    
C99   H71   S    
N32   Ni3   S    
C15   C79   A    
C88   C92   A    
C43   C105  S    
C98   H63   S    
C96   H59   S    
C83   N27   A    
C108  H89   S    
C100  H70   S    
C85   N29   A    
C108  H88   S    
C32   H12   S    
N22   Ni2   S    
C95   H62   S    
N15   Ni8   S    
N8    Ni8   S    
C8    C52   S    
N16   Ni7   S    
C83   H43   S    
C40   H16   S    
C63   H23   S    
C35   C92   S    
C44   C52   A    
C106  H85   S    
C47   H27   S    
C105  H86   S    
C97   C98   S    
N4    Ni4   S    
C8    C84   A    
C55   C60   A    
C72   H32   S    
N5    Ni5   S    
C22   H2    S    
C79   N23   A    
C5    C49   S    
C14   C70   A    
C9    C73   A    
C11   C75   A    
C11   C59   S    
C41   C49   A    
C103  C104  S    
N14   Ni5   S    
C1    C89   A    
C11   C67   A    
C38   C44   A    
C93   H57   S    
C25   C49   A    
C10   C66   A    
C105  H87   S    
C13   C77   A    
C78   N22   A    
C30   C34   A    
C70   N14   A    
C100  H68   S    
C20   C24   D    
N27   Ni8   S    
C36   C40   A    
C45   N5    A    
C48   H28   S    
C86   C90   A    
N13   N21   A    
C74   N18   A    
C85   C89   A    
C26   C32   A    
C34   C38   A    
C107  H92   S    
C66   Br2   S    
C68   N12   A    
C101  C102  S    
C5    C45   A    
C33   C37   A    
C29   H9    S    
N9    N17   A    
C16   C80   A    
C31   H11   S    
C82   H42   S    
C86   H46   S    
C35   C39   A    
C8    C48   A    
C37   H13   S    
C104  H78   S    
N20   Ni8   S    
C44   C107  S    
C5    C81   A    
C70   H30   S    
C73   N17   A    
C105  C106  S    
C69   H29   S    
C42   C50   A    
C53   C58   A    
C96   H60   S    
C79   H39   S    
C38   H14   S    
C30   H10   S    
C17   C18   S    
C103  H82   S    
C77   H37   S    
C95   H61   S    
C6    C50   S    
C3    C97   S    
C4    C99   S    
N2    N30   A    
N30   Ni1   S    
C69   N13   A    
C26   H6    S    
C36   C91   S    
C25   H5    S    
C15   C24   S    
C46   N6    A    
C67   Br3   S    
C16   C23   S    
C81   N25   A    
C48   N8    A    
N26   Ni5   S    
C61   H21   S    
C97   H66   S    
C76   H36   S    
C108  H90   S    
N5    N25   A    
C37   C43   A    
C76   N20   A    
C107  C108  S    
C94   H54   S    
C85   H45   S    
C12   C76   A    
N6    Ni6   S    
C87   N31   A    
N11   Ni4   S    
C19   C23   D    
C66   N10   A    
C45   H25   S    
N9    Ni2   S    
C84   H44   S    
C18   H50   S    
C19   H51   S    
C6    C46   A    
C55   H19   S    
C18   C22   D    
N7    Ni7   S    
N10   N18   A    
C65   Br1   S    
C87   H47   S    
C84   N28   A    
C102  H75   S    
C88   N32   A    
C80   N24   A    
N2    Ni2   S    
C101  H76   S    
C56   C59   A    
C81   H41   S    
N31   Ni4   S    
C28   C52   A    
C67   N11   A    
C1    C93   S    
C2    N2    A    
C71   N15   A    
C59   C63   A    
C72   N16   A    
N18   Ni6   S    
C60   C64   A    
N11   N19   A    
C95   C96   S    
C94   H55   S    
C24   H4    S    
N1    N29   A    
C34   C89   S    
C7    C51   S    
C28   C30   A    
C104  H79   S    
N24   Ni4   S    
C33   C90   S    
C75   H35   S    
C10   C74   A    
N28   Ni7   S    
C43   C51   A    
C93   C94   S    
N6    N26   A    
C13   C69   A    
N29   Ni2   S    
C68   Br4   S    
C98   H65   S    
C73   H33   S    
C102  H73   S    
C31   C35   A    
C40   C42   A    
C27   C51   A    
N15   N23   A    
C13   C22   S    
C9    C57   S    
C107  H91   S    
N16   N24   A    
N19   Ni7   S    
C78   H38   S    
C61   C62   A    
C27   H7    S    
C17   H49   S    
C9    C65   A    
N25   Ni6   S    
C99   C100  S    
C41   C101  S    
C47   N7    A    
C106  H83   S    
C63   C64   A    
C12   C60   S    
N14   N22   A    
N3    Ni3   S    
N12   N20   A    
C98   H64   S    
C96   H58   S    
N13   Ni6   S    
N10   Ni1   S    
N1    Ni1   S    
C100  H69   S    
C53   H17   S    
C86   N30   A    
C94   H53   S    
C56   H20   S    
N17   Ni5   S    
C7    C47   A    
C4    C92   A    
C54   C57   A    
C17   C21   D    
