data_mof_unit_22366.cif
_audit_creation_date              2012-12-10T17:08:44-0500
_audit_creation_method            fapswitch 2.2
_symmetry_space_group_name_H-M    P1
_symmetry_Int_Tables_number       1
_space_group_crystal_system       triclinic
_cell_length_a                    15.733062
_cell_length_b                    10.701324
_cell_length_c                    10.045348
_cell_angle_alpha                 90.346283
_cell_angle_beta                  89.719482
_cell_angle_gamma                 90.34025
_cell_volume                      1691.20025219

loop_
_atom_site_label
_atom_site_type_symbol
_atom_type_description
_atom_site_fract_x
_atom_site_fract_y
_atom_site_fract_z
_atom_type_partial_charge
C1    C     C_R   0.499486 0.262589 0.499214 0.961985
C2    C     C_2   0.473108 0.866839 0.504480 0.197479
C3    C     C_2   0.458261 0.067814 0.400775 0.616443
C4    C     C_R   0.338397 0.500121 0.500305 0.861434
C5    C     C_2   0.500565 0.130258 0.495646 -0.477042
C6    C     C_2   0.549603 0.571320 0.925262 0.651927
C7    C     C_2   0.540724 0.583681 0.075831 0.468831
C8    C     C_R   0.494212 0.737182 0.500571 0.885177
C9    C     C_R   0.661588 0.500139 0.499677 0.865120
C10   C     C_3   0.048106 0.446550 0.629451 0.128514
C11   C     C_3   0.049465 0.435729 0.376201 0.240015
C12   C     C_3   0.949703 0.437390 0.622776 0.411995
C13   C     C_3   0.951219 0.438920 0.375474 0.186815
C14   C     C_1   0.750393 0.503565 0.499235 -0.155421
C15   C     C_3   0.082610 0.510079 0.499699 -0.212151
C16   C     C_3   0.901181 0.708040 0.289654 -0.358701
C17   C     C_3   0.407832 0.345699 0.876847 -0.102602
C18   C     C_3   0.664136 0.678409 0.142703 -0.164959
C19   C     C_3   0.092908 0.293401 0.776875 -0.265395
C20   C     C_3   0.090025 0.394852 0.156748 -0.246872
C21   C     C_3   0.098418 0.834502 0.390382 -0.045392
C22   C     C_3   0.863653 0.768665 0.663173 0.018476
C23   C     C_3   0.917132 0.512199 0.499998 -0.260502
C24   C     C_3   0.952114 0.653060 0.510980 0.737280
C25   C     C_3   0.052350 0.649596 0.496459 0.843867
C26   C     C_1   0.825663 0.507800 0.499571 0.158054
C27   C     C_1   0.174346 0.506603 0.500399 0.234316
C28   C     C_1   0.249591 0.503292 0.500709 -0.116275
C29   C     C_2   0.465442 0.933671 0.392860 0.433733
F1    F     F_    0.913846 0.478992 0.741390 -0.639891
F2    F     F_    0.468376 0.880635 0.269453 -0.579338
F3    F     F_    0.454904 0.917082 0.626418 -0.654367
F4    F     F_    0.413314 0.127642 0.304958 -0.619651
F5    F     F_    0.611504 0.638334 0.863155 -0.664110
F6    F     F_    0.920389 0.316975 0.375845 -0.667631
F7    F     F_    0.089891 0.709864 0.605803 -0.671570
H1    H     H_    0.930336 0.337511 0.613321 0.205009
H2    H     H_    0.465686 0.286179 0.879997 0.146970
H3    H     H_    0.376054 0.336823 0.779307 0.197999
H4    H     H_    0.362876 0.308716 0.952578 0.162919
H5    H     H_    0.692756 0.721264 0.052601 0.203934
H6    H     H_    0.687274 0.580717 0.154024 0.121495
H7    H     H_    0.687424 0.732416 0.229964 0.167698
H8    H     H_    0.032130 0.302750 0.833090 0.189027
H9    H     H_    0.143496 0.351700 0.823552 0.160901
H10   H     H_    0.112921 0.194390 0.782812 0.207498
H11   H     H_    0.028448 0.345975 0.139215 0.180271
H12   H     H_    0.066180 0.508154 0.715245 0.212396
H13   H     H_    0.140238 0.326509 0.182410 0.168737
H14   H     H_    0.109063 0.440644 0.062359 0.198358
H15   H     H_    0.160851 0.848327 0.439775 0.190091
H16   H     H_    0.047762 0.884518 0.446606 0.192978
H17   H     H_    0.102702 0.876804 0.290031 0.160302
H18   H     H_    0.807218 0.730151 0.611126 0.140605
H19   H     H_    0.876555 0.865792 0.629873 0.162056
H20   H     H_    0.848193 0.772467 0.770961 0.164611
H21   H     H_    0.539596 0.084538 0.569394 0.175662
H22   H     H_    0.488316 0.416149 0.104522 0.159885
H23   H     H_    0.070496 0.336764 0.388657 0.195436
H24   H     H_    0.928231 0.476855 0.280739 0.164774
H25   H     H_    0.958482 0.670620 0.239643 0.236468
H26   H     H_    0.883974 0.793027 0.233471 0.214102
H27   H     H_    0.845391 0.644809 0.282173 0.146561
N1    N     N_2   0.500900 0.501330 0.852150 0.010352
N2    N     N_2   0.500920 0.501360 0.147810 -0.214462
O1    O     O_R   0.499990 0.319060 0.613040 -0.648007
O2    O     O_3   0.425318 0.471699 0.907932 -0.594902
O3    O     O_3   0.574685 0.687654 0.139076 -0.505003
O4    O     O_3   0.083119 0.324966 0.641659 -0.611982
O5    O     O_3   0.082811 0.487438 0.256739 -0.567701
O6    O     O_3   0.080621 0.705562 0.375553 -0.607248
O7    O     O_3   0.936967 0.694326 0.645194 -0.556482
O8    O     O_R   0.500010 0.319100 0.386900 -0.562575
O9    O     O_R   0.377130 0.499990 0.613120 -0.600523
O10   O     O_R   0.377160 0.500030 0.386980 -0.582109
O11   O     O_R   0.499990 0.680900 0.613100 -0.526206
O12   O     O_R   0.500010 0.680940 0.386960 -0.542488
O13   O     O_R   0.622840 0.499970 0.613020 -0.566698
O14   O     O_R   0.622870 0.500010 0.386880 -0.634162
O15   O     O_3   0.916093 0.744189 0.422514 -0.642680
Zn1   Zn    Zn3+2 0.499980 0.499970 0.650990 1.072345
Zn2   Zn    Zn3+2 0.500020 0.500030 0.349010 1.054191

loop_
_geom_bond_atom_site_label_1
_geom_bond_atom_site_label_2
_ccdc_geom_bond_type
C19   H10   S    
C22   H18   S    
C13   H24   S    
C12   C23   S    
C21   O6    S    
C2    C29   D    
C1    C5    S    
C13   F6    S    
C10   C15   S    
C18   H6    S    
C17   H3    S    
C15   C25   S    
C3    F4    S    
C18   O3    S    
C8    O11   A    
C13   C23   S    
C2    F3    S    
C9    O14   A    
C23   C26   S    
C6    N1    D    
C12   H1    S    
C3    C29   S    
C4    O10   A    
C20   H14   S    
C7    O3    S    
C11   C15   S    
C24   O15   S    
C23   C24   S    
C25   O6    S    
C16   H27   S    
C4    O9    A    
C9    O13   A    
C20   O5    S    
C16   H26   S    
C11   H23   S    
C22   O7    S    
C4    C28   S    
C11   O5    S    
C17   O2    S    
N1    O2    S    
C24   C25   S    
C18   H5    S    
C22   H20   S    
C6    F5    S    
C16   O15   S    
C17   H4    S    
C9    C14   S    
C20   H13   S    
C7    N2    D    
H22   N2    S    
C15   C27   S    
C1    O1    A    
C14   C26   T    
C6    C7    S    
C10   C12   S    
C10   H12   S    
C8    O12   A    
C19   O4    S    
C16   H25   S    
O9    Zn1   S    
O8    Zn2   S    
C21   H15   S    
C19   H8    S    
C24   O7    S    
C12   F1    S    
C2    C8    S    
C3    C5    D    
O11   Zn1   S    
O14   Zn2   S    
C19   H9    S    
O10   Zn2   S    
C22   H19   S    
C5    H21   S    
C1    O8    A    
C29   F2    S    
C18   H7    S    
O1    Zn1   S    
C21   H17   S    
C11   C13   S    
O13   Zn1   S    
N2    Zn2   S    
O12   Zn2   S    
C17   H2    S    
N1    Zn1   S    
C20   H11   S    
C25   F7    S    
C10   O4    S    
C27   C28   T    
C21   H16   S    
