data_mof_unit_29981.cif
_audit_creation_date              2012-12-10T17:10:25-0500
_audit_creation_method            fapswitch 2.2
_symmetry_space_group_name_H-M    P1
_symmetry_Int_Tables_number       1
_space_group_crystal_system       triclinic
_cell_length_a                    10.792759
_cell_length_b                    13.025258
_cell_length_c                    11.637139
_cell_angle_alpha                 100.092365
_cell_angle_beta                  96.141824
_cell_angle_gamma                 89.775064
_cell_volume                      1601.18931441

loop_
_atom_site_label
_atom_site_type_symbol
_atom_type_description
_atom_site_fract_x
_atom_site_fract_y
_atom_site_fract_z
_atom_type_partial_charge
C1    C     C_R   0.501301 0.299154 0.478564 0.831693
C2    C     C_R   0.498703 0.700847 0.521436 0.831676
C3    C     C_R   0.497382 0.814139 0.534122 -0.139661
C4    C     C_R   0.502627 0.185861 0.465877 -0.139665
C5    C     C_R   0.435883 0.019914 0.349171 0.394850
C6    C     C_R   0.564133 0.980086 0.650826 0.394848
C7    C     C_R   0.446094 0.127081 0.362264 -0.250321
C8    C     C_R   0.553919 0.872919 0.637734 -0.250318
C9    C     C_R   0.559649 0.136482 0.555750 0.109899
C10   C     C_R   0.440363 0.863519 0.444248 0.109896
C11   C     C_R   0.531821 0.029756 0.552646 -0.018229
C12   C     C_R   0.468195 0.970244 0.447351 -0.018227
C13   C     C_R   0.394976 0.393122 0.016454 -0.217238
C14   C     C_R   0.605023 0.606878 0.983545 -0.217236
C15   C     C_R   0.403398 0.404487 0.139692 0.101622
C16   C     C_R   0.596602 0.595513 0.860308 0.101618
C17   C     C_R   0.543582 0.547525 0.160105 0.052729
C18   C     C_R   0.456418 0.452475 0.839894 0.052732
C19   C     C_R   0.537652 0.539184 0.036357 0.039672
C20   C     C_R   0.462349 0.460817 0.963643 0.039681
C21   C     C_R   0.261412 0.510043 0.498327 0.820929
C22   C     C_R   0.738589 0.489961 0.501674 0.820933
C23   C     C_R   0.132128 0.634820 0.692530 0.113152
C24   C     C_R   0.867877 0.365203 0.307469 0.113183
C25   C     C_R   0.088613 0.648046 0.803108 -0.164459
C26   C     C_R   0.911385 0.351992 0.196887 -0.164475
C27   C     C_R   0.983742 0.593701 0.819958 0.421799
C28   C     C_R   0.016251 0.406344 0.180040 0.421788
C29   C     C_R   0.915965 0.531559 0.724577 -0.197407
C30   C     C_R   0.084031 0.468479 0.275425 -0.197393
C31   C     C_R   0.952699 0.522154 0.609904 -0.027194
C32   C     C_R   0.047302 0.477873 0.390098 -0.027198
C33   C     C_R   0.071559 0.560950 0.597829 0.076052
C34   C     C_R   0.928445 0.439072 0.402173 0.076031
C35   C     C_R   0.875206 0.475092 0.507580 -0.165651
C36   C     C_R   0.124797 0.524925 0.492423 -0.165656
Cu1   Cu    Cu3+1 0.509250 0.507730 0.615930 0.940692
Cu2   Cu    Cu3+1 0.490750 0.492270 0.384070 0.940689
H1    H     H_    0.336255 0.331757 0.962973 0.186851
H2    H     H_    0.663745 0.668243 0.037027 0.186867
H3    H     H_    0.135385 0.702258 0.876047 0.192093
H4    H     H_    0.864615 0.297783 0.123946 0.192091
H5    H     H_    0.838099 0.487826 0.743221 0.200879
H6    H     H_    0.161900 0.512212 0.256787 0.200874
H7    H     H_    0.588043 0.835356 0.710824 0.199556
H8    H     H_    0.411970 0.164644 0.289173 0.199554
H9    H     H_    0.397804 0.392859 0.783366 0.143104
H10   H     H_    0.602197 0.607141 0.216634 0.143105
H11   H     H_    0.648964 0.648160 0.820802 0.149048
H12   H     H_    0.351036 0.351840 0.179198 0.149039
N1    N     N_R   0.523180 0.519350 0.790130 -0.202329
N2    N     N_R   0.476820 0.480650 0.209870 -0.202328
O1    O     O_R   0.506570 0.354460 0.582000 -0.579468
O2    O     O_R   0.493430 0.645540 0.418000 -0.579471
O3    O     O_R   0.490940 0.341410 0.386200 -0.602421
O4    O     O_R   0.509060 0.658590 0.613800 -0.602414
O5    O     O_R   0.327470 0.506520 0.597900 -0.563804
O6    O     O_R   0.672530 0.493480 0.402100 -0.563810
O7    O     O_R   0.311840 0.493460 0.402100 -0.598537
O8    O     O_R   0.688160 0.506540 0.597900 -0.598541
Cl1   Cl    Cl    0.068242 0.390134 0.040290 -0.599782
Cl2   Cl    Cl    0.931742 0.609931 0.959706 -0.599784
C37   C     C_3   0.231229 0.711059 0.677353 -0.761475
H13   H     H_    0.319466 0.696704 0.729961 0.259728
H14   H     H_    0.246474 0.707673 0.584298 0.195693
H15   H     H_    0.201740 0.791861 0.709565 0.233936
C38   C     C_3   0.768791 0.288947 0.322651 -0.761493
H16   H     H_    0.753576 0.292311 0.415708 0.195697
H17   H     H_    0.680533 0.303305 0.270067 0.259730
H18   H     H_    0.798277 0.208149 0.290411 0.233942
C39   C     C_3   0.336920 0.806121 0.358581 -0.676132
H19   H     H_    0.290911 0.746117 0.397055 0.186496
H20   H     H_    0.261087 0.860053 0.338208 0.251125
H21   H     H_    0.374601 0.766983 0.277264 0.270596
C40   C     C_3   0.663094 0.193882 0.641414 -0.676134
H22   H     H_    0.709101 0.253885 0.602936 0.186494
H23   H     H_    0.625415 0.233020 0.722732 0.270595
H24   H     H_    0.738928 0.139950 0.661787 0.251126
Cl3   Cl    Cl    0.395045 0.954690 0.203598 -0.608068
Cl4   Cl    Cl    0.604977 0.045310 0.796398 -0.608066

loop_
_geom_bond_atom_site_label_1
_geom_bond_atom_site_label_2
_ccdc_geom_bond_type
C37   H14   S    
C27   C29   A    
C19   C20   A    
C16   N1    A    
C18   H9    S    
C21   C36   S    
C22   C35   S    
C32   C36   A    
C24   C26   A    
C21   O7    A    
C22   O8    A    
Cu1   N1    S    
Cu2   N2    S    
C33   C36   A    
C34   C35   A    
C15   H12   S    
C1    O1    A    
C8    H7    S    
C24   C38   S    
Cu2   O6    S    
Cu1   O4    S    
Cu2   O3    S    
C23   C33   A    
C17   H10   S    
C5    Cl3   S    
Cu1   O1    S    
C28   Cl1   S    
C23   C37   S    
C37   H15   S    
C29   H5    S    
C30   H6    S    
C4    C7    A    
C17   N2    A    
C18   N1    A    
C38   H16   S    
C7    H8    S    
C16   H11   S    
C5    C12   A    
C3    C8    A    
C2    O2    A    
C25   H3    S    
C6    C11   A    
C5    C7    A    
C6    C8    A    
C24   C34   A    
C37   H13   S    
C38   H17   S    
C32   C34   A    
C40   H22   S    
C21   O5    A    
Cu1   Cu2   S    
C27   Cl2   S    
C9    C11   A    
C6    Cl4   S    
Cu2   O2    S    
C31   C33   A    
C15   N2    A    
C40   H23   S    
C10   C12   A    
C13   C15   A    
C14   C16   A    
C26   H4    S    
C39   H20   S    
C13   C20   A    
C14   C19   A    
C22   O6    A    
C39   H21   S    
C11   C12   A    
C25   C27   A    
C26   C28   A    
C38   H18   S    
C1    C4    S    
C28   C30   A    
C2    C3    S    
C1    O3    A    
C39   H19   S    
C29   C31   A    
C3    C10   A    
C2    O4    A    
C10   C39   S    
C30   C32   A    
C31   C35   A    
C17   C19   A    
C18   C20   A    
C23   C25   A    
C40   H24   S    
C13   H1    S    
Cu1   O8    S    
C14   H2    S    
Cu2   O7    S    
C9    C40   S    
C4    C9    A    
Cu1   O5    S    
