data_mof_unit_45570.cif
_audit_creation_date              2012-12-10T17:10:58-0500
_audit_creation_method            fapswitch 2.2
_symmetry_space_group_name_H-M    P1
_symmetry_Int_Tables_number       1
_space_group_crystal_system       triclinic
_cell_length_a                    11.744266
_cell_length_b                    12.984885
_cell_length_c                    13.652731
_cell_angle_alpha                 94.047101
_cell_angle_beta                  78.185456
_cell_angle_gamma                 99.895728
_cell_volume                      2006.23458685

loop_
_atom_site_label
_atom_site_type_symbol
_atom_type_description
_atom_site_fract_x
_atom_site_fract_y
_atom_site_fract_z
_atom_type_partial_charge
C1    C     C_R   0.520704 0.700816 0.502837 0.817001
C2    C     C_R   0.458343 0.486760 0.971952 0.085542
C3    C     C_R   0.496534 0.485345 0.866190 0.050515
C4    C     C_R   0.544011 0.512513 0.034526 0.071307
C5    C     C_R   0.665337 0.541762 0.991188 0.079904
C6    C     C_R   0.702518 0.534657 0.887030 -0.028460
C7    C     C_R   0.619581 0.499471 0.828020 -0.227582
C8    C     C_R   0.514089 0.503257 0.138937 -0.250418
C9    C     C_R   0.716154 0.567414 0.156045 0.168461
C10   C     C_R   0.410498 0.461917 0.802821 -0.144243
C11   C     C_R   0.464813 0.185919 0.505480 -0.043896
C12   C     C_R   0.438983 0.485249 0.694163 0.811611
C13   C     C_R   0.532375 0.814473 0.507823 -0.074440
C14   C     C_R   0.652027 0.985303 0.522109 -0.004493
C15   C     C_R   0.640350 0.876351 0.516543 -0.215975
C16   C     C_R   0.434448 0.861192 0.505618 -0.241515
C17   C     C_R   0.444181 0.969269 0.509137 0.152443
C18   C     C_R   0.553557 0.032431 0.516191 0.118207
C19   C     C_R   0.562168 0.140685 0.513662 -0.245647
C20   C     C_R   0.356064 0.122751 0.502613 -0.143706
C21   C     C_R   0.345913 0.014826 0.504024 -0.167422
C22   C     C_R   0.958432 0.624386 0.563676 0.068985
C23   C     C_R   0.478271 0.299258 0.500755 0.856539
C24   C     C_R   0.835835 0.605171 0.566258 0.015738
C25   C     C_R   0.853953 0.449980 0.465878 0.324216
C26   C     C_R   0.974724 0.459736 0.472253 -0.031193
C27   C     C_R   0.028277 0.547589 0.521929 -0.000451
C28   C     C_R   0.150215 0.555789 0.526018 0.016627
C29   C     C_R   0.165151 0.400910 0.425142 0.337507
C30   C     C_R   0.045373 0.387187 0.424033 -0.291598
C31   C     C_R   0.562650 0.510952 0.306316 0.866250
C32   C     C_R   0.748556 0.569535 0.053376 -0.209217
C33   C     C_R   0.599094 0.527526 0.199193 -0.101468
C34   C     C_R   0.297178 0.411757 0.845235 0.129767
C35   C     C_R   0.259157 0.414734 0.948491 -0.128720
C36   C     C_R   0.336338 0.457662 0.010914 -0.199482
Cu1   Cu    Cu3+1 0.386470 0.492430 0.492410 0.981547
Cu2   Cu    Cu3+1 0.613530 0.507570 0.507590 0.985039
H1    H     H_    0.279181 0.156443 0.498377 0.173065
H2    H     H_    0.261683 0.966966 0.499827 0.169956
H3    H     H_    0.715762 0.839942 0.520205 0.177138
H4    H     H_    0.350466 0.813512 0.499933 0.174673
H5    H     H_    0.192569 0.621155 0.565953 0.153467
H6    H     H_    0.010369 0.319295 0.382993 0.194578
H7    H     H_    0.783128 0.663499 0.600565 0.159514
H8    H     H_    0.841228 0.591372 0.024289 0.172251
H9    H     H_    0.425590 0.473410 0.175209 0.184147
H10   H     H_    0.298462 0.460705 0.089632 0.161208
H11   H     H_    0.170028 0.380004 0.981093 0.180821
H12   H     H_    0.657257 0.474791 0.753810 0.190132
H13   H     H_    0.645317 0.190340 0.516223 0.182089
N1    N     N_R   0.215880 0.481050 0.481000 -0.197084
N2    N     N_R   0.784100 0.518950 0.519000 -0.219943
O1    O     O_R   0.419710 0.645650 0.494620 -0.596403
O2    O     O_R   0.611450 0.658430 0.507430 -0.587918
O3    O     O_R   0.357340 0.490460 0.641450 -0.572161
O4    O     O_R   0.549080 0.503250 0.654260 -0.608643
O5    O     O_R   0.388550 0.341570 0.492570 -0.562362
O6    O     O_R   0.580290 0.354350 0.505380 -0.581022
O7    O     O_R   0.450920 0.496750 0.345740 -0.572062
O8    O     O_R   0.642660 0.509540 0.358550 -0.531046
I1    I     I_    0.853070 0.631954 0.235141 -0.328730
C37   C     C_R   0.767691 0.046583 0.534194 0.092581
C38   C     C_R   0.777047 0.113095 0.619027 -0.155554
C39   C     C_R   0.886279 0.170184 0.630247 -0.106920
C40   C     C_R   0.987052 0.160342 0.557722 -0.090837
C41   C     C_R   0.978865 0.093311 0.473889 -0.115198
C42   C     C_R   0.869725 0.036427 0.462104 -0.100655
H14   H     H_    0.699736 0.120845 0.676156 0.138238
H15   H     H_    0.892911 0.221725 0.695357 0.140342
H16   H     H_    0.071449 0.204679 0.566458 0.154804
H17   H     H_    0.057101 0.085520 0.417960 0.156626
H18   H     H_    0.864548 0.984982 0.396622 0.148585
I2    I     I_    0.259017 0.298561 0.323751 -0.399531
I3    I     I_    0.032856 0.777646 0.606475 -0.465531
C43   C     C_R   0.829359 0.549394 0.838549 0.099770
C44   C     C_R   0.877207 0.465500 0.784961 -0.150461
C45   C     C_R   0.998073 0.475112 0.748348 -0.102340
C46   C     C_R   0.073094 0.566239 0.769031 -0.097700
C47   C     C_R   0.025947 0.651277 0.819469 -0.098512
C48   C     C_R   0.903978 0.644667 0.850079 -0.136141
H19   H     H_    0.821305 0.392207 0.772687 0.122081
H20   H     H_    0.032820 0.411926 0.703104 0.161075
H21   H     H_    0.167332 0.572160 0.743511 0.156272
H22   H     H_    0.083701 0.722950 0.833130 0.159687
H23   H     H_    0.868232 0.711468 0.888384 0.148280
I4    I     I_    0.793501 0.339612 0.354623 -0.326304
I5    I     I_    0.196561 0.301569 0.761327 -0.435603

loop_
_geom_bond_atom_site_label_1
_geom_bond_atom_site_label_2
_ccdc_geom_bond_type
C23   O5    A    
C31   O8    A    
C35   C36   A    
C4    C8    A    
C44   C45   A    
C23   O6    A    
Cu2   N2    S    
C11   C19   A    
C26   C27   A    
C29   C30   A    
C24   H7    S    
Cu1   Cu2   S    
C25   N2    A    
C41   H17   S    
C3    C7    A    
C46   H21   S    
C39   H15   S    
C25   I4    S    
C34   C35   A    
C14   C18   A    
C9    C32   A    
Cu1   O3    S    
C45   H20   S    
Cu2   O2    S    
C16   C17   A    
C35   H11   S    
C31   C33   S    
Cu1   O5    S    
C5    C32   A    
Cu2   O6    S    
C42   H18   S    
C40   C41   A    
C9    C33   A    
C30   H6    S    
C22   I3    S    
C11   C20   A    
C41   C42   A    
C43   C44   A    
C15   H3    S    
Cu1   N1    S    
C45   C46   A    
C18   C19   A    
C29   I2    S    
C24   N2    A    
C37   C38   A    
C17   C21   A    
C9    I1    S    
C31   O7    A    
C2    C4    A    
C1    O1    A    
C47   H22   S    
Cu2   O4    S    
C40   H16   S    
C17   C18   A    
C10   C34   A    
C34   I5    S    
C38   H14   S    
C12   O3    A    
C10   C12   S    
Cu1   O1    S    
C26   C30   A    
C22   C27   A    
C13   C15   A    
C22   C24   A    
C1    C13   S    
C12   O4    A    
C16   H4    S    
C2    C36   A    
C20   H1    S    
C37   C42   A    
C32   H8    S    
C48   H23   S    
C7    H12   S    
C47   C48   A    
C43   C48   A    
C6    C43   S    
C6    C7    A    
C28   H5    S    
C38   C39   A    
Cu2   O8    S    
C2    C3    A    
C25   C26   A    
C8    H9    S    
C3    C10   A    
C28   N1    A    
C5    C6    A    
C21   H2    S    
C44   H19   S    
C14   C37   S    
C11   C23   S    
C36   H10   S    
C8    C33   A    
C1    O2    A    
Cu1   O7    S    
C46   C47   A    
C19   H13   S    
C4    C5    A    
C20   C21   A    
C39   C40   A    
C13   C16   A    
C27   C28   A    
C14   C15   A    
C29   N1    A    
