data_mof_unit_33554.cif
_audit_creation_date              2012-12-11T15:23:31-0500
_audit_creation_method            fapswitch 2.2
_symmetry_space_group_name_H-M    P1
_symmetry_Int_Tables_number       1
_space_group_crystal_system       triclinic
_cell_length_a                    6.956222
_cell_length_b                    17.611105
_cell_length_c                    19.204614
_cell_angle_alpha                 109.480114
_cell_angle_beta                  90.793779
_cell_angle_gamma                 91.048149
_cell_volume                      2217.15225341

loop_
_atom_site_label
_atom_site_type_symbol
_atom_type_description
_atom_site_fract_x
_atom_site_fract_y
_atom_site_fract_z
_atom_type_partial_charge
O1    O     O_R   0.505810 0.439670 0.562310 -0.537077
O2    O     O_R   0.169070 0.404920 0.411210 -0.539658
O3    O     O_R   0.005550 0.560330 0.437690 -0.538387
C1    C     C_R   0.337314 0.381612 0.382804 0.675993
O4    O     O_R   0.175650 0.430000 0.560110 -0.542712
O5    O     O_R   0.012170 0.585580 0.587650 -0.541345
C2    C     C_R   0.344577 0.415736 0.582223 0.711567
O6    O     O_R   0.499180 0.414420 0.412350 -0.539493
O7    O     O_3   0.341430 0.551020 0.508860 -0.370859
V1    V     V_3+5 0.063930 0.490540 0.498360 1.397015
O8    O     O_R   0.682850 0.595080 0.588790 -0.543540
C3    C     C_R   0.854789 0.615860 0.618078 0.709344
O9    O     O_R   0.676280 0.570000 0.439890 -0.544304
C4    C     C_R   0.845026 0.584683 0.417896 0.704958
V2    V     V_3+5 0.564760 0.509460 0.501640 1.389718
O10   O     O_3   0.837130 0.448980 0.491140 -0.369210
C5    C     C_R   0.751806 0.869180 0.175072 -0.218702
C6    C     C_R   0.913820 0.865011 0.130804 -0.087193
C7    C     C_R   0.063689 0.813466 0.134016 -0.228179
C8    C     C_R   0.051796 0.766185 0.180185 0.090471
C9    C     C_R   0.889894 0.771639 0.224990 0.052976
C10   C     C_R   0.739762 0.823543 0.222547 0.088631
C11   C     C_R   0.198892 0.713448 0.182377 -0.183466
C12   C     C_R   0.187400 0.667516 0.229355 -0.191261
C13   C     C_R   0.028444 0.673388 0.274970 0.088028
C14   C     C_R   0.878221 0.725223 0.272431 0.052576
C15   C     C_R   0.716515 0.730858 0.317365 0.090993
C16   C     C_R   0.568997 0.783287 0.314924 -0.184075
C17   C     C_R   0.580399 0.829133 0.267902 -0.192886
C18   C     C_R   0.017136 0.628359 0.323008 -0.215785
C19   C     C_R   0.855916 0.633248 0.367829 -0.084613
C20   C     C_R   0.705448 0.684279 0.364121 -0.227471
H1    H     H_    0.635953 0.908962 0.173458 0.124671
H2    H     H_    0.188628 0.809391 0.099941 0.128352
H3    H     H_    0.323796 0.708141 0.148121 0.134690
H4    H     H_    0.303771 0.627792 0.230395 0.133102
H5    H     H_    0.133107 0.588692 0.324807 0.121753
H6    H     H_    0.580835 0.688672 0.398417 0.128500
H7    H     H_    0.444073 0.788582 0.349170 0.134382
H8    H     H_    0.463911 0.868770 0.266801 0.131060
C21   C     C_3   0.720417 0.787148 0.756061 0.152484
C22   C     C_3   0.865042 0.772435 0.692923 -0.185411
H9    H     H_    0.860453 0.793415 0.644479 0.111561
C23   C     C_3   0.876957 0.684167 0.689393 -0.086345
C24   C     C_3   0.739165 0.699589 0.753271 0.346610
C25   C     C_3   0.908418 0.722173 0.809846 -0.177597
C26   C     C_3   0.049241 0.706722 0.745002 -0.151271
C27   C     C_3   0.033341 0.796197 0.749819 -0.151011
C28   C     C_3   0.891117 0.810835 0.812980 -0.110768
H10   H     H_    0.928186 0.701760 0.858210 0.108158
H11   H     H_    0.181258 0.671509 0.738632 0.130176
H12   H     H_    0.139678 0.844488 0.753459 0.129128
C29   C     C_3   0.483213 0.238791 0.305445 -0.160298
C30   C     C_3   0.324473 0.181453 0.257328 -0.129494
H13   H     H_    0.275156 0.123929 0.263834 0.103550
H14   H     H_    0.562483 0.228763 0.352071 0.110454
C31   C     C_3   0.416573 0.189909 0.187415 -0.038615
C32   C     C_3   0.575541 0.246446 0.234808 -0.127123
C33   C     C_3   0.446202 0.318875 0.241441 0.184229
C34   C     C_3   0.287602 0.262378 0.193156 -0.132587
C35   C     C_3   0.196262 0.254675 0.263963 -0.149865
C36   C     C_3   0.354576 0.311380 0.311524 -0.061353
H15   H     H_    0.730644 0.243232 0.222016 0.103475
H16   H     H_    0.208175 0.272463 0.146572 0.102504
H17   H     H_    0.041180 0.257968 0.276775 0.111100
C37   C     C_R   0.558552 0.122449 0.809455 0.093582
C38   C     C_R   0.424027 0.133298 0.867199 -0.116222
C39   C     C_R   0.284578 0.192493 0.878541 -0.267074
C40   C     C_R   0.266743 0.239569 0.832205 0.062702
C41   C     C_R   0.401658 0.229778 0.775404 -0.019804
C42   C     C_R   0.550030 0.172792 0.764861 0.085025
C43   C     C_R   0.115319 0.295195 0.840015 0.143736
C44   C     C_R   0.099776 0.338160 0.790272 -0.215308
C45   C     C_R   0.233468 0.329361 0.734606 0.065677
C46   C     C_R   0.386443 0.276130 0.727760 0.056613
C47   C     C_R   0.523551 0.268755 0.672541 0.108017
C48   C     C_R   0.672124 0.214586 0.664007 -0.197838
C49   C     C_R   0.683457 0.166409 0.708330 -0.187475
C50   C     C_R   0.216948 0.373462 0.685736 -0.206449
C51   C     C_R   0.355608 0.366968 0.631608 -0.078926
C52   C     C_R   0.509333 0.315003 0.625907 -0.217241
H18   H     H_    0.187401 0.199988 0.923610 0.144346
H19   H     H_    0.983354 0.379722 0.795569 0.129385
H20   H     H_    0.099033 0.414303 0.690932 0.122672
H21   H     H_    0.616271 0.309376 0.584008 0.123996
H22   H     H_    0.778332 0.208166 0.621761 0.127626
H23   H     H_    0.798698 0.124174 0.696797 0.139757
O11   O     O_R   0.271890 0.085690 0.087580 -0.535230
O12   O     O_R   0.595690 0.070020 0.939870 -0.537600
O13   O     O_R   0.758900 0.914390 0.912370 -0.540607
C53   C     C_R   0.427840 0.084376 0.917455 0.703029
O14   O     O_R   0.602020 0.095100 0.088770 -0.539890
O15   O     O_R   0.765280 0.939660 0.062330 -0.538331
C54   C     C_R   0.433718 0.118934 0.116790 0.687059
O16   O     O_R   0.265520 0.060430 0.937620 -0.541854
O17   O     O_3   0.429560 0.949050 0.991100 -0.370071
V3    V     V_3+5 0.707160 0.009450 0.001650 1.389386
O18   O     O_R   0.094540 0.929890 0.060190 -0.542392
C55   C     C_R   0.925547 0.914690 0.081681 0.711660
O19   O     O_R   0.088200 0.904800 0.911290 -0.541180
C56   C     C_R   0.915413 0.881843 0.883055 0.696862
V4    V     V_3+5 0.206300 0.990390 0.998440 1.383032
O20   O     O_3   0.934030 0.050940 0.008900 -0.369301
C57   C     C_3   0.531804 0.826049 0.747358 -0.366339
C58   C     C_3   0.439537 0.786376 0.669862 -0.735985
H24   H     H_    0.542824 0.780205 0.625144 0.212747
H25   H     H_    0.378756 0.725882 0.663481 0.230089
H26   H     H_    0.324788 0.824406 0.659656 0.202662
H27   H     H_    0.433478 0.823534 0.791392 0.181102
H28   H     H_    0.561700 0.889227 0.753546 0.161323
N1    N     N_2   0.585305 0.643929 0.755419 -0.527963
H29   H     H_    0.490877 0.629488 0.711002 0.253697
C59   C     C_3   0.494842 0.659564 0.826026 -0.576730
H30   H     H_    0.381798 0.612675 0.821349 0.196868
H31   H     H_    0.427609 0.719493 0.843788 0.194425
H32   H     H_    0.601905 0.657115 0.868549 0.205036
C60   C     C_3   0.514416 0.398309 0.232971 -0.369658
C61   C     C_3   0.596124 0.385266 0.156646 -0.766355
H33   H     H_    0.721433 0.345133 0.147334 0.221535
H34   H     H_    0.484628 0.358039 0.113020 0.222402
H35   H     H_    0.644320 0.444079 0.152592 0.223063
H36   H     H_    0.391342 0.439563 0.241727 0.165528
H37   H     H_    0.627239 0.426797 0.275700 0.181320
C62   C     C_3   0.697341 0.052734 0.790787 -0.383136
C63   C     C_3   0.900627 0.079060 0.820673 -0.697983
H38   H     H_    0.962486 0.122496 0.796350 0.214878
H39   H     H_    0.900450 0.107163 0.881634 0.238887
H40   H     H_    0.993796 0.025702 0.806502 0.200851
H41   H     H_    0.649654 0.006740 0.814051 0.176549
H42   H     H_    0.698544 0.020610 0.730264 0.164078
C64   C     C_3   0.965796 0.310032 0.899641 -0.347418
C65   C     C_3   0.046154 0.365117 0.974147 -0.760582
H43   H     H_    0.172909 0.338536 0.992175 0.221007
H44   H     H_    0.089274 0.424612 0.970294 0.232072
H45   H     H_    0.933841 0.374392 0.016539 0.218241
H46   H     H_    0.837957 0.339209 0.885166 0.184167
H47   H     H_    0.910315 0.252549 0.904223 0.177996

loop_
_geom_bond_atom_site_label_1
_geom_bond_atom_site_label_2
_ccdc_geom_bond_type
C49   H23   S    
C57   H28   S    
C9    C14   A    
C10   C17   A    
O17   V4    S    
C44   C45   A    
C7    C8    A    
C60   H36   S    
C4    C19   S    
C1    O6    A    
C48   C49   A    
C58   H25   S    
C25   C28   S    
C14   C15   A    
C12   H4    S    
C5    H1    S    
C9    C10   A    
C16   C17   A    
C59   H30   S    
O5    C3    A    
C50   H20   S    
V2    O10   S    
C1    C36   S    
C13   C18   A    
C6    C7    A    
C21   C22   S    
C21   C28   S    
C61   H33   S    
C25   C26   S    
O8    V2    S    
C26   C27   S    
C65   H43   S    
C63   H40   S    
C11   C12   A    
C41   C42   A    
O1    V2    S    
C20   H6    S    
O12   C53   A    
O7    V1    S    
O15   C55   A    
O13   V3    S    
C35   C36   S    
C23   C26   S    
C43   C44   A    
C59   H32   S    
C37   C38   A    
C60   H37   S    
C33   C34   S    
C33   C60   S    
O9    C4    A    
V4    O20   S    
C22   C23   S    
O14   C54   A    
C57   C58   S    
O14   V3    S    
C58   H26   S    
O11   C54   A    
C45   C46   A    
C38   C39   A    
C12   C13   A    
C64   H46   S    
O4    C2    A    
C39   C40   A    
C31   C34   S    
C26   H11   S    
C16   H7    S    
C32   C33   S    
O18   V4    S    
C18   H5    S    
O12   V3    S    
C34   C35   S    
C61   H35   S    
C40   C43   A    
O2    C1    A    
C46   C47   A    
O13   C56   A    
C64   H47   S    
C35   H17   S    
C29   C36   S    
C37   C42   A    
C8    C11   A    
C18   C19   A    
C29   C32   S    
O17   V3    S    
C38   C53   S    
C5    C6    A    
C62   H42   S    
N1    C59   S    
C22   C27   S    
C47   C48   A    
V3    O20   S    
O3    C4    A    
C27   C28   S    
C48   H22   S    
O6    V2    S    
C11   H3    S    
C45   C50   A    
O9    V2    S    
C63   H38   S    
C37   C62   S    
C22   H9    S    
C64   C65   S    
O2    V1    S    
O15   V3    S    
C41   C46   A    
C23   C24   S    
C43   C64   S    
O19   V4    S    
C29   H14   S    
C32   H15   S    
C30   H13   S    
C33   C36   S    
N1    H29   S    
C15   C20   A    
O1    C2    A    
C19   C20   A    
C51   C52   A    
C7    H2    S    
C47   C52   A    
O5    V1    S    
O11   V4    S    
O8    C3    A    
O16   V4    S    
C29   C30   S    
C30   C35   S    
C58   H24   S    
C25   H10   S    
C5    C10   A    
C21   C57   S    
C34   H16   S    
C31   C54   S    
C39   H18   S    
C13   C14   A    
O4    V1    S    
C3    C23   S    
O3    V1    S    
V1    O10   S    
C24   N1    S    
C28   C56   S    
C31   C32   S    
C57   H27   S    
C65   H45   S    
C17   H8    S    
O19   C56   A    
C62   H41   S    
O7    V2    S    
C40   C41   A    
C61   H34   S    
C53   O16   A    
C50   C51   A    
C24   C25   S    
C27   H12   S    
C8    C9    A    
C65   H44   S    
O18   C55   A    
C6    C55   S    
C15   C16   A    
C63   H39   S    
C21   C24   S    
C2    C51   S    
C60   C61   S    
C44   H19   S    
C42   C49   A    
C52   H21   S    
C62   C63   S    
C59   H31   S    
C30   C31   S    
