data_mof_unit_49596.cif
_audit_creation_date              2013-03-05T15:42:05-0500
_audit_creation_method            fapswitch 2.2
_symmetry_space_group_name_H-M    P1
_symmetry_Int_Tables_number       1
_space_group_crystal_system       triclinic
_cell_length_a                    7.93474
_cell_length_b                    8.56682
_cell_length_c                    15.706501
_cell_angle_alpha                 93.460302
_cell_angle_beta                  85.393816
_cell_angle_gamma                 92.635851
_cell_volume                      1061.36006494

loop_
_atom_site_label
_atom_site_type_symbol
_atom_site_description
_atom_site_fract_x
_atom_site_fract_y
_atom_site_fract_z
_atom_type_partial_charge
O1    O     O_R   0.389250 0.738570 0.505570 -0.624966
O2    O     O_R   0.610750 0.261430 0.494430 -0.624947
O3    O     O_R   0.678390 0.711630 0.491020 -0.644916
O4    O     O_R   0.321610 0.288370 0.508980 -0.644933
C1    C     C_R   0.544267 0.793819 0.498734 0.960276
C2    C     C_R   0.455732 0.206181 0.501271 0.960304
O5    O     O_R   0.355460 0.513480 0.630490 -0.623664
O6    O     O_R   0.644540 0.486520 0.369510 -0.623659
O7    O     O_R   0.644600 0.486540 0.615950 -0.643034
O8    O     O_R   0.355400 0.513460 0.384050 -0.643025
C3    C     C_R   0.501111 0.500681 0.661510 0.888820
C4    C     C_R   0.498889 0.499319 0.338490 0.888843
Zn1   Zn    Zn3+2 0.306940 0.517990 0.509710 0.931682
Zn2   Zn    Zn3+2 0.693060 0.482010 0.490290 0.931686
C5    C     C_2   0.567397 0.957204 0.500939 -0.361236
C6    C     C_2   0.432599 0.042795 0.499076 -0.361296
C7    C     C_3   0.441425 0.633045 0.033062 0.399601
C8    C     C_3   0.558575 0.366961 0.966938 0.399604
C9    C     C_3   0.601555 0.620581 0.971550 -0.246488
C10   C     C_3   0.398445 0.379425 0.028450 -0.246487
H1    H     H_    0.682057 0.720357 0.947369 0.207145
H2    H     H_    0.317943 0.279649 0.052631 0.207137
H3    H     H_    0.788632 0.469995 0.042482 0.182924
H4    H     H_    0.211368 0.530011 0.957518 0.182916
C11   C     C_1   0.503165 0.500374 0.750301 -0.136772
C12   C     C_1   0.496835 0.499629 0.249699 -0.136792
C13   C     C_3   0.340735 0.515078 0.977158 -0.282072
C14   C     C_3   0.659265 0.484929 0.022842 -0.282066
C15   C     C_3   0.502347 0.499271 0.916480 0.026580
C16   C     C_3   0.497654 0.500735 0.083520 0.026583
N1    N     N_2   0.950320 0.457950 0.477300 -0.063059
N2    N     N_2   0.049680 0.542050 0.522700 -0.063060
H5    H     H_    0.695012 0.006595 0.505575 0.171428
H6    H     H_    0.304981 0.993404 0.494446 0.171433
C17   C     C_1   0.503579 0.499842 0.825577 0.062008
C18   C     C_1   0.496421 0.500163 0.174423 0.062006
N3    N     N_R   0.376114 0.781297 0.068837 0.222283
O9    O     O_R   0.332269 0.884022 0.017997 -0.351299
O10   O     O_R   0.361085 0.812034 0.151120 -0.398343
N4    N     N_R   0.623886 0.218709 0.931163 0.222283
O11   O     O_R   0.667731 0.115984 0.982003 -0.351290
O12   O     O_R   0.638915 0.187971 0.848880 -0.398352
C19   C     C_3   0.022399 0.376173 0.400120 -0.155693
C20   C     C_3   0.921580 0.224669 0.377646 -0.410485
C21   C     C_3   0.011186 0.130684 0.302918 -0.847950
H7    H     H_    0.029079 0.201339 0.245572 0.274393
H8    H     H_    0.136509 0.095198 0.320167 0.266855
H9    H     H_    0.933378 0.023340 0.287065 0.278301
H10   H     H_    0.908529 0.151720 0.434013 0.228689
H11   H     H_    0.794774 0.249547 0.358967 0.274081
H12   H     H_    0.029061 0.454734 0.346066 0.181416
H13   H     H_    0.146914 0.336416 0.409328 0.233502
C22   C     C_3   0.977605 0.623814 0.599885 -0.155631
C23   C     C_3   0.078402 0.775330 0.622361 -0.410591
C24   C     C_3   0.988949 0.869137 0.697202 -0.847955
H14   H     H_    0.863369 0.904304 0.680158 0.266920
H15   H     H_    0.971638 0.798478 0.754555 0.274379
H16   H     H_    0.066566 0.976660 0.712938 0.278295
H17   H     H_    0.205293 0.750488 0.640931 0.274171
H18   H     H_    0.091242 0.848377 0.566033 0.228612
H19   H     H_    0.853086 0.663570 0.590682 0.233447
H20   H     H_    0.970962 0.545245 0.653935 0.181461

loop_
_geom_bond_atom_site_label_1
_geom_bond_atom_site_label_2
_geom_bond_distance
_ccdc_geom_bond_type
C20   H10   1.109589 S    
O7    Zn2   1.978637 S    
C22   C23   1.530907 S    
N3    O9    1.300272 A    
C9    C14   1.558979 S    
C10   C13   1.558979 S    
O6    C4    1.301380 A    
C13   C15   1.541146 S    
C22   H20   1.111328 S    
C15   C17   1.427315 S    
Zn1   N2    2.053707 S    
N1    N2    1.274815 D    
H4    C13   1.110369 S    
C16   C18   1.427316 S    
Zn2   N1    2.053706 S    
C19   C20   1.530905 S    
C6    H6    1.085548 S    
C24   H14   1.111533 S    
C14   C16   1.541147 S    
C8    C14   1.536847 S    
N3    O10   1.300325 A    
C8    C15   1.524357 S    
C23   H18   1.109590 S    
H3    C14   1.110369 S    
C10   C16   1.540601 S    
O5    C3    1.301380 A    
C7    C16   1.524357 S    
O7    C3    1.301693 A    
C19   H12   1.111330 S    
O2    C2    1.296108 A    
O3    Zn2   1.975181 S    
O8    C4    1.301694 A    
C11   C17   1.182880 T    
O1    C1    1.296101 A    
N4    O12   1.300324 A    
N4    O11   1.300273 A    
C7    C9    1.536910 S    
C10   H2    1.110352 S    
C8    C10   1.536910 S    
C23   H17   1.103840 S    
C24   H15   1.111323 S    
O2    Zn2   1.973860 S    
C19   H13   1.083003 S    
C1    C5    1.401985 S    
O1    Zn1   1.973862 S    
C7    N3    1.457718 S    
C2    C6    1.401991 S    
C5    C6    1.327505 D    
C7    C13   1.536846 S    
N2    C22   1.452716 S    
O5    Zn1   1.968745 S    
C21   H8    1.111602 S    
C20   C21   1.528387 S    
C20   H11   1.103884 S    
O4    C2    1.296506 A    
C24   H16   1.110697 S    
C12   C18   1.182879 T    
O4    Zn1   1.975180 S    
C8    N4    1.457717 S    
C3    C11   1.396159 S    
C23   C24   1.528338 S    
O6    Zn2   1.968746 S    
C21   H9    1.110698 S    
C9    H1    1.110353 S    
C21   H7    1.111382 S    
C22   H19   1.083007 S    
C5    H5    1.085535 S    
N1    C19   1.452714 S    
C4    C12   1.396160 S    
O3    C1    1.296510 A    
O8    Zn1   1.978637 S    
C9    C15   1.540601 S    
