data_mof_unit_6806.cif
_audit_creation_date              2012-12-11T20:41:22-0500
_audit_creation_method            fapswitch 2.2
_symmetry_space_group_name_H-M    P1
_symmetry_Int_Tables_number       1
_space_group_crystal_system       triclinic
_cell_length_a                    8.246335
_cell_length_b                    18.846981
_cell_length_c                    27.010426
_cell_angle_alpha                 96.953566
_cell_angle_beta                  92.649888
_cell_angle_gamma                 86.241695
_cell_volume                      4154.9723239

loop_
_atom_site_label
_atom_site_type_symbol
_atom_type_description
_atom_site_fract_x
_atom_site_fract_y
_atom_site_fract_z
_atom_type_partial_charge
Ba1   Ba    Ba6+2 0.852670 0.466460 0.522850 1.681953
Ba2   Ba    Ba6+2 0.337150 0.533490 0.477140 1.685333
C1    C     C_3   0.582817 0.220398 0.663420 0.251483
C2    C     C_R   0.919704 0.572670 0.178452 0.564116
C3    C     C_2   0.764690 0.548632 0.273168 -0.006095
C4    C     C_3   0.117507 0.266459 0.650863 0.286763
C5    C     C_3   0.746476 0.565436 0.328793 -0.084488
C6    C     C_1   0.977909 0.482728 0.340768 0.026743
C7    C     C_2   0.022324 0.484069 0.293879 -0.059476
C8    C     C_2   0.905934 0.515410 0.256041 0.214411
C9    C     C_R   0.021010 0.506842 0.101328 -0.078621
C10   C     C_R   0.045893 0.445460 0.126405 -0.053404
C11   C     C_R   0.109311 0.381907 0.100017 -0.037341
C12   C     C_3   0.576842 0.292844 0.643464 0.387181
C13   C     C_R   0.957076 0.570672 0.127732 -0.018497
C14   C     C_2   0.835091 0.509405 0.356568 -0.171732
C15   C     C_2   0.350438 0.481999 0.641333 -0.275548
C16   C     C_3   0.041866 0.245227 0.696765 -0.289258
C17   C     C_R   0.162104 0.437263 0.972079 0.019424
C18   C     C_R   0.072199 0.565031 0.974007 0.020561
C19   C     C_R   0.136444 0.500113 0.947645 0.052843
C20   C     C_R   0.225578 0.374106 0.943823 -0.092840
C21   C     C_R   0.262899 0.372800 0.893876 -0.045375
C22   C     C_R   0.239165 0.434301 0.869452 -0.045688
C23   C     C_3   0.519810 0.645335 0.629953 0.299700
C24   C     C_R   0.175604 0.498103 0.896245 -0.077237
C25   C     C_R   0.151360 0.559980 0.871626 -0.032628
C26   C     C_R   0.191982 0.557573 0.821090 0.586206
C27   C     C_R   0.277609 0.433246 0.818727 0.602794
C28   C     C_3   0.188065 0.319084 0.418632 0.296947
C29   C     C_2   0.453105 0.477905 0.729244 -0.059568
C30   C     C_3   0.498353 0.486224 0.676420 -0.077487
C31   C     C_1   0.211908 0.513224 0.657234 0.045145
C32   C     C_2   0.171737 0.513939 0.704429 -0.081696
C33   C     C_2   0.297547 0.493792 0.743261 0.213020
C34   C     C_3   0.509867 0.671551 0.685324 -0.365020
C35   C     C_R   0.123805 0.439509 0.023526 0.018551
C36   C     C_R   0.059591 0.504470 0.049835 0.052663
C37   C     C_R   0.033338 0.567170 0.025273 0.020581
C38   C     C_R   0.147460 0.378883 0.049983 -0.090258
C39   C     C_R   0.931739 0.631825 0.103034 -0.055029
C40   C     C_3   0.240710 0.240542 0.404570 -0.373229
C41   C     C_R   0.049214 0.625944 0.947857 -0.097773
C42   C     C_R   0.087909 0.623340 0.898057 -0.056967
C43   C     C_R   0.968657 0.630265 0.053206 -0.100126
C44   C     C_2   0.410425 0.301588 0.522480 -0.224025
C45   C     C_3   0.079419 0.683012 0.342239 0.344417
C46   C     C_3   0.327081 0.253944 0.553206 -0.083610
C47   C     C_2   0.363574 0.175045 0.537803 -0.123136
C48   C     C_2   0.491237 0.152275 0.508993 -0.060673
C49   C     C_2   0.582495 0.207074 0.487907 -0.147307
C50   C     C_1   0.530521 0.275713 0.493387 0.053782
C51   C     C_R   0.647274 0.933153 0.489930 0.463445
C52   C     C_3   0.012054 0.682998 0.583189 0.300633
C53   C     C_R   0.544478 0.074630 0.500688 0.462474
C54   C     C_R   0.613239 0.807580 0.507777 -0.121510
C55   C     C_R   0.663918 0.735052 0.504859 0.037464
C56   C     C_3   0.096321 0.701896 0.289637 -0.304018
C57   C     C_R   0.898796 0.756550 0.459924 0.017119
C58   C     C_R   0.849173 0.829753 0.462386 -0.139355
C59   C     C_R   0.703291 0.855882 0.485765 -0.068365
C60   C     C_R   0.801538 0.709493 0.479017 -0.283807
C61   C     C_3   0.995242 0.763774 0.596909 -0.370224
C62   C     C_3   0.747802 0.303899 0.369024 0.685353
C63   C     C_3   0.796002 0.224632 0.372519 -0.333047
C64   C     C_3   0.542602 0.724269 0.365414 0.342543
C65   C     C_3   0.506962 0.797153 0.347239 -0.344988
C66   C     C_R   0.006234 0.448660 0.177294 0.631306
Cl1   Cl    Cl    0.506352 0.229103 0.724673 -0.624481
H1    H     H_    0.627284 0.283892 0.605613 -0.010032
H2    H     H_    0.845713 0.338266 0.384296 -0.026607
H3    H     H_    0.509017 0.182824 0.638432 -0.016776
H4    H     H_    0.857920 0.217760 0.409021 0.064868
H5    H     H_    0.882146 0.203245 0.343180 0.133038
H6    H     H_    0.686778 0.192599 0.367761 0.111999
H7    H     H_    0.448845 0.315087 0.641711 -0.093911
H8    H     H_    0.395574 0.633179 0.615207 0.027401
H9    H     H_    0.601759 0.596009 0.625243 0.033276
H10   H     H_    0.434704 0.722800 0.690584 0.144451
H11   H     H_    0.452828 0.631742 0.704899 0.074930
H12   H     H_    0.356066 0.235828 0.384495 0.141466
H13   H     H_    0.633744 0.680023 0.702013 0.127043
H14   H     H_    0.709972 0.197280 0.664556 0.066497
H15   H     H_    0.129472 0.252035 0.729211 0.156445
H16   H     H_    0.155401 0.633030 0.346437 0.079320
H17   H     H_    0.949904 0.673858 0.347190 -0.076292
H18   H     H_    0.212802 0.726907 0.286367 0.149589
H19   H     H_    0.095484 0.652419 0.262974 0.109647
H20   H     H_    0.994435 0.739837 0.279862 0.126638
H21   H     H_    0.676719 0.713024 0.365976 -0.064220
H22   H     H_    0.498630 0.726993 0.403913 0.074467
H23   H     H_    0.258320 0.212903 0.438491 0.073588
H24   H     H_    0.572506 0.838250 0.371939 0.077800
H25   H     H_    0.374649 0.812169 0.347910 0.152137
H26   H     H_    0.142403 0.324279 0.658012 0.037841
H27   H     H_    0.548213 0.795862 0.308560 0.124961
H28   H     H_    0.141363 0.461595 0.282632 0.125928
H29   H     H_    0.130186 0.333657 0.118092 0.141282
H30   H     H_    0.548030 0.465863 0.756722 0.101950
H31   H     H_    0.311249 0.322831 0.874336 0.144025
H32   H     H_    0.248301 0.324077 0.959053 0.079207
H33   H     H_    0.195759 0.327621 0.033236 0.079292
H34   H     H_    0.146755 0.213332 0.380007 0.135450
H35   H     H_    0.673371 0.570317 0.247955 0.111166
H36   H     H_    0.882625 0.681863 0.122289 0.126613
H37   H     H_    0.001502 0.677266 0.964617 0.073924
H38   H     H_    0.232896 0.233318 0.645513 0.024111
H39   H     H_    0.067733 0.671837 0.880222 0.127178
H40   H     H_    0.049016 0.530664 0.715505 0.117369
H41   H     H_    0.944319 0.680125 0.037901 0.073717
H42   H     H_    0.770774 0.482974 0.382715 0.073991
H43   H     H_    0.356794 0.452726 0.604241 0.064427
H44   H     H_    0.295886 0.137385 0.554733 0.103197
H45   H     H_    0.892193 0.663185 0.570894 0.005814
H46   H     H_    0.694279 0.190274 0.469216 0.101217
H47   H     H_    0.506050 0.826222 0.528387 0.110153
H48   H     H_    0.925166 0.865864 0.447188 0.107119
H49   H     H_    0.385973 0.358937 0.530723 0.062790
H50   H     H_    0.930875 0.279718 0.705833 0.163888
H51   H     H_    0.840274 0.653316 0.477461 0.060265
H52   H     H_    0.010874 0.188311 0.690198 0.121390
H53   H     H_    0.292278 0.347608 0.436425 0.019906
H54   H     H_    0.089551 0.323001 0.445350 0.074696
H55   H     H_    0.500804 0.389449 0.308546 0.365318
H56   H     H_    0.097194 0.670796 0.552313 0.073535
H57   H     H_    0.904656 0.777567 0.626261 0.140243
H58   H     H_    0.954703 0.790612 0.563828 0.064939
H59   H     H_    0.114425 0.783863 0.611032 0.129874
N1    N     N_R   0.944572 0.512065 0.203196 -0.431543
N2    N     N_R   0.254695 0.494671 0.795147 -0.431415
N3    N     N_R   0.508175 0.956242 0.513516 -0.239336
N4    N     N_R   0.458098 0.025238 0.518827 -0.239261
N5    N     N_R   0.683085 0.051656 0.476612 -0.238465
N6    N     N_R   0.733428 0.982395 0.471320 -0.238439
O1    O     O_2   0.914730 0.537460 0.618690 -0.462756
O2    O     O_2   0.236526 0.753330 0.469875 -0.480920
O3    O     O_3   0.132239 0.739301 0.376763 -0.597584
O4    O     O_3   0.146720 0.537410 0.558510 -0.492544
O5    O     O_3   0.553920 0.415280 0.473710 -0.457135
O6    O     O_2   0.383540 0.672140 0.526840 -0.462661
O7    O     O_3   0.581574 0.699121 0.605935 -0.638103
O8    O     O_2   0.412050 0.534925 0.323465 -0.474249
O9    O     O_3   0.462023 0.671984 0.333519 -0.602859
O10   O     O_2   0.024467 0.394546 0.198182 -0.521173
O11   O     O_2   0.330327 0.377484 0.795470 -0.537814
O12   O     O_3   0.602604 0.325330 0.393275 -0.657297
O13   O     O_2   0.865945 0.629016 0.200650 -0.622247
O14   O     O_2   0.173366 0.611868 0.800354 -0.594461
O15   O     O_3   0.666360 0.409390 0.586570 -0.480803
O16   O     O_2   0.833569 0.448637 0.670817 -0.476041
O17   O     O_3   0.070282 0.651688 0.625373 -0.628813
O18   O     O_3   0.671348 0.339307 0.675160 -0.567026
O19   O     O_2   0.806150 0.327840 0.473120 -0.495103
O20   O     O_3   0.073640 0.373350 0.561550 -0.470726
O21   O     O_2   0.009879 0.246500 0.511320 -0.481100
O22   O     O_2   0.876844 0.316465 0.281006 -0.240289
O23   O     O_3   0.012119 0.253188 0.608786 -0.579746
O24   O     O_2   0.618788 0.258477 0.277680 -0.267645
O25   O     O_3   0.613690 0.396428 0.299965 -0.515831
O26   O     O_2   0.274960 0.462520 0.381280 -0.444180
O27   O     O_3   0.042980 0.462530 0.441480 -0.505529
O28   O     O_3   0.523340 0.590550 0.413420 -0.474336
O29   O     O_3   0.132098 0.348395 0.375472 -0.597504
O30   O     O_3   0.635780 0.584660 0.526290 -0.475164
O31   O     O_3   0.116060 0.626590 0.438450 -0.501627
P1    P     P_3+3 0.084800 0.558370 0.611580 0.997384
P2    P     P_3+3 0.628800 0.338360 0.458800 0.966366
P3    P     P_3+3 0.105490 0.280288 0.557859 0.966417
P4    P     P_3+3 0.104900 0.441570 0.388420 1.023117
P5    P     P_3+3 0.096824 0.719674 0.436789 0.948756
P6    P     P_3+3 0.665875 0.422143 0.652045 1.003160
P7    P     P_3+3 0.569045 0.674438 0.541387 0.951968
P8    P     P_3+3 0.534520 0.587917 0.348926 0.989139
S1    S     S_3+6 0.715435 0.317220 0.304748 -0.039142

loop_
_geom_bond_atom_site_label_1
_geom_bond_atom_site_label_2
_ccdc_geom_bond_type
C47   H44   S    
O12   P2    S    
C31   P1    S    
C19   C24   A    
C40   H34   S    
Ba2   O28   S    
C55   C60   A    
C64   H21   S    
O28   P8    S    
C10   C66   A    
O22   S1    D    
C24   C25   A    
C20   H32   S    
C39   H36   S    
C23   H8    S    
Ba2   O5    S    
C45   H16   S    
C1    Cl1   S    
C22   C24   A    
C53   N4    A    
C32   C33   S    
C35   C38   A    
C50   P2    S    
C27   O11   D    
C36   C37   A    
C52   C61   S    
Ba1   P2    S    
H55   O25   S    
C44   C50   D    
C63   H4    S    
C54   C55   A    
C44   H49   S    
Ba1   Ba2   S    
C62   H2    S    
C11   H29   S    
C22   C27   A    
C11   C38   A    
C17   C35   A    
C9    C13   A    
C25   C42   A    
O24   S1    D    
C27   N2    Am   
Ba1   O30   S    
C34   H13   S    
C6    C7    D    
O25   S1    S    
C65   H25   S    
C16   H15   S    
O26   P4    D    
Ba1   O15   S    
C51   N3    A    
C29   H30   S    
C57   P5    S    
C7    C8    S    
C60   H51   S    
C61   H59   S    
Ba1   O5    S    
C37   C43   A    
C55   P7    S    
O27   P4    S    
C64   C65   S    
C3    H35   S    
Ba1   O27   S    
C57   C58   A    
O6    P7    D    
O19   P2    D    
C12   H1    S    
O20   P3    S    
C66   N1    Am   
C40   H12   S    
C15   C31   D    
C28   O29   S    
Ba2   O27   S    
C31   C32   D    
O8    P8    D    
C42   H39   S    
C4    C16   S    
C52   H56   S    
C44   C46   S    
C26   O14   D    
C49   C50   D    
Ba2   O4    S    
C45   H17   S    
C28   H53   S    
C17   C20   A    
C13   C39   A    
C34   H11   S    
C52   O17   S    
Ba2   O30   S    
C3    C5    S    
O18   P6    S    
C43   H41   S    
C64   O9    S    
C23   C34   S    
C53   N5    A    
C2    O13   D    
O7    P7    S    
C49   H46   S    
C63   H5    S    
C23   H9    S    
C58   C59   A    
C41   H37   S    
C12   H7    S    
C9    C36   A    
Ba1   O19   S    
C41   C42   A    
C35   C36   A    
O16   P6    D    
C46   P3    S    
O21   P3    D    
C21   C22   A    
C45   O3    S    
C48   C49   S    
C54   H47   S    
C58   H48   S    
C54   C59   A    
C10   C11   A    
O5    P2    S    
C28   H54   S    
Ba2   O31   S    
O3    P5    S    
C64   H22   S    
C1    C12   S    
Ba2   O26   S    
C46   C47   S    
C30   P6    S    
O2    P5    D    
C47   C48   D    
C33   N2    S    
C1    H14   S    
N5    N6    A    
C15   C30   S    
C29   C33   D    
O30   P7    S    
O9    P8    S    
C51   C59   S    
N3    N4    A    
C15   H43   S    
C4    O23   S    
C6    P4    S    
C56   H18   S    
O31   P5    S    
C18   C37   A    
C5    C14   S    
C57   C60   A    
C7    H28   S    
C40   H23   S    
C62   O12   S    
O15   P6    S    
C29   C30   S    
C23   O7    S    
C51   N6    A    
C34   H10   S    
C56   H19   S    
C52   H45   S    
C66   O10   D    
C4    H38   S    
C2    N1    Am   
O17   P1    S    
C16   H52   S    
C48   C53   S    
C63   H6    S    
O4    P1    S    
Ba2   O6    S    
C62   C63   S    
C2    C13   A    
C1    H3    S    
C8    N1    S    
C3    C8    D    
C45   C56   S    
C65   H27   S    
Ba1   P1    S    
C5    P8    S    
O1    P1    D    
C21   H31   S    
C26   N2    Am   
Ba1   O20   S    
O29   P4    S    
C56   H20   S    
C18   C41   A    
C61   H57   S    
Ba2   P4    S    
C38   H33   S    
O23   P3    S    
C18   C19   A    
C14   H42   S    
C6    C14   D    
C4    H26   S    
C12   O18   S    
C25   C26   A    
C65   H24   S    
C32   H40   S    
C39   C43   A    
C20   C21   A    
C28   C40   S    
Ba1   O1    S    
C62   S1    S    
C16   H50   S    
C61   H58   S    
Ba1   O4    S    
C9    C10   A    
C17   C19   A    
