data_mof_unit_28844.cif
_audit_creation_date              2012-12-11T15:50:03-0500
_audit_creation_method            fapswitch 2.2
_symmetry_space_group_name_H-M    P1
_symmetry_Int_Tables_number       1
_space_group_crystal_system       triclinic
_cell_length_a                    16.692402
_cell_length_b                    7.244247
_cell_length_c                    15.110398
_cell_angle_alpha                 89.996333
_cell_angle_beta                  94.659801
_cell_angle_gamma                 89.998551
_cell_volume                      1821.16839838

loop_
_atom_site_label
_atom_site_type_symbol
_atom_type_description
_atom_site_fract_x
_atom_site_fract_y
_atom_site_fract_z
_atom_type_partial_charge
O1    O     O_R   0.663460 0.361880 0.165960 -0.512029
O2    O     O_R   0.336540 0.638120 0.834040 -0.512047
O3    O     O_R   0.836540 0.861880 0.334040 -0.512114
O4    O     O_R   0.163460 0.138120 0.665960 -0.512104
O5    O     O_R   0.827100 0.690020 0.163730 -0.529587
O6    O     O_R   0.172900 0.309980 0.836270 -0.529614
O7    O     O_R   0.672900 0.190020 0.336270 -0.529635
O8    O     O_R   0.327100 0.809980 0.663730 -0.529605
C1    C     C_R   0.853699 0.523148 0.144031 0.726443
C2    C     C_R   0.146306 0.476852 0.855976 0.726423
C3    C     C_R   0.646305 0.023146 0.355974 0.726457
C4    C     C_R   0.353698 0.976854 0.644031 0.726545
O9    O     O_R   0.663490 0.691490 0.155490 -0.548664
O10   O     O_R   0.336510 0.308510 0.844510 -0.548679
O11   O     O_R   0.836510 0.191490 0.344510 -0.548724
O12   O     O_R   0.163490 0.808510 0.655490 -0.548709
O13   O     O_R   0.671770 0.863400 0.325740 -0.539795
O14   O     O_R   0.328230 0.136600 0.674260 -0.539846
O15   O     O_R   0.828230 0.363400 0.174260 -0.539823
O16   O     O_R   0.171770 0.636600 0.825740 -0.539782
C5    C     C_R   0.637168 0.523027 0.132006 0.746209
C6    C     C_R   0.362832 0.476973 0.867991 0.745954
C7    C     C_R   0.862830 0.023010 0.367992 0.746264
C8    C     C_R   0.137169 0.976987 0.632007 0.746451
O17   O     O_3   0.752910 0.528900 0.305870 -0.379377
O18   O     O_3   0.247090 0.471100 0.694130 -0.379405
O19   O     O_3   0.747090 0.028900 0.194130 -0.379366
O20   O     O_3   0.252910 0.971100 0.805870 -0.379344
V1    V     V_3+5 0.749460 0.803130 0.239640 1.435364
V2    V     V_3+5 0.250540 0.196870 0.760360 1.435309
V3    V     V_3+5 0.750540 0.303130 0.260360 1.435305
V4    V     V_3+5 0.249460 0.696870 0.739640 1.435322
C9    C     C_R   0.931059 0.102149 0.520437 -0.059984
C10   C     C_R   0.068933 0.897780 0.479562 -0.060084
C11   C     C_R   0.568827 0.602745 0.979662 -0.060195
C12   C     C_R   0.431173 0.397296 0.020327 -0.060063
C13   C     C_R   0.998525 0.086354 0.583489 0.422480
C14   C     C_R   0.001481 0.913649 0.416495 0.422406
C15   C     C_R   0.501392 0.586785 0.916580 0.422274
C16   C     C_R   0.498622 0.413182 0.083392 0.422374
C17   C     C_R   0.067648 0.986573 0.563380 -0.225785
C18   C     C_R   0.932357 0.013422 0.436607 -0.225641
C19   C     C_R   0.432368 0.486518 0.936595 -0.225663
C20   C     C_R   0.567643 0.513470 0.063383 -0.225846
C21   C     C_1   0.416469 0.986009 0.581990 -0.183720
C22   C     C_1   0.583544 0.013997 0.418026 -0.183757
C23   C     C_1   0.083545 0.486001 0.918028 -0.183730
C24   C     C_1   0.916468 0.513996 0.081988 -0.183698
C25   C     C_1   0.469068 0.994706 0.530394 -0.013677
C26   C     C_1   0.530951 0.005305 0.469630 -0.013629
C27   C     C_1   0.030951 0.494696 0.969630 -0.013588
C28   C     C_1   0.969066 0.505297 0.030392 -0.013651
C29   C     C_3   0.857673 0.210138 0.545047 -0.307315
C30   C     C_3   0.786981 0.082012 0.561299 -0.320443
C31   C     C_3   0.716930 0.190138 0.594612 -0.775144
H1    H     H_    0.736033 0.261617 0.657876 0.223628
H2    H     H_    0.694425 0.293647 0.544329 0.232874
H3    H     H_    0.667258 0.093896 0.606815 0.225149
H4    H     H_    0.765632 0.009484 0.499293 0.176815
H5    H     H_    0.806290 0.975251 0.611210 0.189228
H6    H     H_    0.871932 0.293641 0.605876 0.211990
H7    H     H_    0.839498 0.312919 0.492917 0.184630
C32   C     C_3   0.142259 0.789489 0.455008 -0.307111
C33   C     C_3   0.213066 0.917268 0.438756 -0.320335
C34   C     C_3   0.283147 0.808644 0.405820 -0.775010
H8    H     H_    0.305544 0.705574 0.456371 0.232896
H9    H     H_    0.264126 0.736583 0.342689 0.223623
H10   H     H_    0.332877 0.904637 0.393503 0.225121
H11   H     H_    0.193926 0.023721 0.388625 0.189178
H12   H     H_    0.234320 0.990189 0.500685 0.176759
H13   H     H_    0.160326 0.686686 0.507165 0.184697
H14   H     H_    0.127969 0.705972 0.394189 0.211953
C35   C     C_3   0.641989 0.711837 0.955241 -0.306666
C36   C     C_3   0.713058 0.584879 0.938939 -0.320124
C37   C     C_3   0.783058 0.694484 0.906450 -0.774850
H15   H     H_    0.764076 0.766987 0.843422 0.223615
H16   H     H_    0.805169 0.797264 0.957268 0.232931
H17   H     H_    0.832983 0.599069 0.894090 0.225048
H18   H     H_    0.734290 0.511509 0.000753 0.176669
H19   H     H_    0.694210 0.478774 0.888533 0.189046
H20   H     H_    0.627603 0.795462 0.894471 0.211900
H21   H     H_    0.659820 0.814633 0.007473 0.184891
C38   C     C_3   0.357952 0.288500 0.044804 -0.306883
C39   C     C_3   0.287005 0.415804 0.061141 -0.320234
C40   C     C_3   0.216992 0.306613 0.093869 -0.774977
H22   H     H_    0.194721 0.203754 0.043165 0.232926
H23   H     H_    0.236032 0.234241 0.156916 0.223605
H24   H     H_    0.167163 0.402269 0.106268 0.225076
H25   H     H_    0.306009 0.522053 0.111420 0.189090
H26   H     H_    0.265726 0.488992 0.999292 0.176741
H27   H     H_    0.340003 0.185752 0.992589 0.184875
H28   H     H_    0.372316 0.204845 0.105569 0.211857
O21   O     O_3   0.998932 0.179002 0.663855 -0.552841
C41   C     C_3   0.975542 0.056408 0.729663 -0.242566
H29   H     H_    0.014402 0.931648 0.736154 0.122385
H30   H     H_    0.911753 0.014863 0.716593 0.130363
H31   H     H_    0.981341 0.128795 0.794565 0.163107
O22   O     O_3   0.001088 0.821029 0.336122 -0.552860
C42   C     C_3   0.024433 0.943696 0.270323 -0.242340
H32   H     H_    0.088051 0.986377 0.283687 0.129976
H33   H     H_    0.985186 0.067768 0.263470 0.122629
H34   H     H_    0.019158 0.870945 0.205508 0.163034
O23   O     O_3   0.500934 0.679782 0.836296 -0.552848
C43   C     C_3   0.524343 0.557497 0.770381 -0.241971
H35   H     H_    0.484480 0.434611 0.762653 0.123073
H36   H     H_    0.587659 0.512898 0.784277 0.129279
H37   H     H_    0.520046 0.631296 0.705836 0.162857
O24   O     O_3   0.499101 0.320165 0.163672 -0.552829
C44   C     C_3   0.475647 0.442380 0.229596 -0.242184
H38   H     H_    0.412020 0.484994 0.216225 0.129839
H39   H     H_    0.514844 0.566498 0.236646 0.122586
H40   H     H_    0.480893 0.369253 0.294318 0.162972

loop_
_geom_bond_atom_site_label_1
_geom_bond_atom_site_label_2
_ccdc_geom_bond_type
O17   V3    S    
C31   H1    S    
O1    C5    A    
O21   C41   S    
O19   V1    S    
O13   V1    S    
C35   C36   S    
O3    C7    A    
C14   O22   S    
O15   V3    S    
C43   H36   S    
C30   H5    S    
C29   C30   S    
O7    C3    A    
C38   H28   S    
C7    C18   S    
C9    C18   A    
O9    V1    S    
C14   C18   A    
C44   H39   S    
O4    C8    A    
C12   C38   S    
O1    V3    S    
O24   C44   S    
O2    V4    S    
O3    V1    S    
C29   H6    S    
C1    O15   A    
C11   C35   S    
C42   H32   S    
C2    O16   A    
C34   H9    S    
O2    C6    A    
O14   V2    S    
C33   H12   S    
C16   C20   A    
C16   O24   S    
O11   C7    A    
O12   C8    A    
C36   H19   S    
C8    C17   S    
C10   C17   A    
C39   H26   S    
O10   V2    S    
C35   H20   S    
C43   H35   S    
O5    V1    S    
C30   H4    S    
C40   H23   S    
C9    C29   S    
O7    V3    S    
C36   C37   S    
C13   O21   S    
C27   C28   S    
O8    V4    S    
C12   C16   A    
C39   C40   S    
C44   H40   S    
O18   V4    S    
C15   C19   A    
C41   H31   S    
C40   H22   S    
C9    C13   A    
C11   C15   A    
C37   H15   S    
O5    C1    A    
C5    C20   S    
C29   H7    S    
C38   C39   S    
C21   C25   T    
O8    C4    A    
C34   H10   S    
O9    C5    A    
C33   H11   S    
C43   H37   S    
C41   H30   S    
C11   C20   A    
C37   H16   S    
O6    V2    S    
C32   H13   S    
O22   C42   S    
C36   H18   S    
C31   H2    S    
C39   H25   S    
C35   H21   S    
C2    C23   S    
O16   V4    S    
C40   H24   S    
C30   C31   S    
C3    O13   A    
C42   H33   S    
C10   C14   A    
C4    C21   S    
C12   C19   A    
O6    C2    A    
C23   C27   T    
O11   V3    S    
O12   V4    S    
C38   H27   S    
C22   C26   T    
C33   C34   S    
O10   C6    A    
O20   V2    S    
C44   H38   S    
C10   C32   S    
C34   H8    S    
C13   C17   A    
C41   H29   S    
C37   H17   S    
C32   C33   S    
C24   C28   T    
C42   H34   S    
C32   H14   S    
C1    C24   S    
C25   C26   S    
C31   H3    S    
C4    O14   A    
O23   C43   S    
C15   O23   S    
C3    C22   S    
C6    C19   S    
O4    V2    S    
