data_mof_unit_17319.cif
_audit_creation_date              2012-12-10T17:43:40-0500
_audit_creation_method            fapswitch 2.2
_symmetry_space_group_name_H-M    P1
_symmetry_Int_Tables_number       1
_space_group_crystal_system       triclinic
_cell_length_a                    14.89099
_cell_length_b                    10.469255
_cell_length_c                    9.990847
_cell_angle_alpha                 93.513066
_cell_angle_beta                  89.304641
_cell_angle_gamma                 91.864523
_cell_volume                      1553.71852401

loop_
_atom_site_label
_atom_site_type_symbol
_atom_type_description
_atom_site_fract_x
_atom_site_fract_y
_atom_site_fract_z
_atom_type_partial_charge
C1    C     C_R   0.511127 0.259932 0.496022 0.962954
C2    C     C_R   0.184641 0.373321 0.474641 0.138014
C3    C     C_R   0.232097 0.490246 0.501734 -0.082844
C4    C     C_R   0.327525 0.497481 0.500566 0.879084
C5    C     C_R   0.189643 0.604328 0.529944 -0.262520
C6    C     C_R   0.592511 0.121506 0.713204 0.706994
C7    C     C_R   0.589358 0.074055 0.841065 0.066189
C8    C     C_R   0.527499 0.974937 0.867221 -0.276080
C9    C     C_R   0.476689 0.913660 0.763395 0.209726
C10   C     C_R   0.491666 0.949150 0.629581 -0.030717
C11   C     C_R   0.537685 0.064884 0.610122 -0.156790
C12   C     C_R   0.909526 0.615259 0.531722 -0.032451
C13   C     C_R   0.525808 0.122878 0.488632 -0.090942
C14   C     C_R   0.496259 0.049510 0.374461 0.183325
C15   C     C_R   0.453828 0.931265 0.391170 0.155047
C16   C     C_R   0.485813 0.738754 0.504270 0.907044
C17   C     C_R   0.464738 0.874123 0.513632 -0.150998
C18   C     C_R   0.384365 0.321008 0.117842 0.595739
C19   C     C_R   0.337361 0.233258 0.031321 -0.330868
C20   C     C_R   0.327992 0.258418 0.897022 0.105109
C21   C     C_R   0.358179 0.378669 0.858065 0.267059
C22   C     C_R   0.434460 0.432000 0.924545 -0.011879
C23   C     C_R   0.944511 0.269012 0.429228 0.634230
C24   C     C_R   0.440030 0.419857 0.065981 -0.005833
C25   C     C_R   0.558924 0.573576 0.076513 -0.110960
C26   C     C_R   0.561733 0.570553 0.933654 0.182331
C27   C     C_R   0.672417 0.501349 0.499364 1.079492
C28   C     C_R   0.815324 0.613724 0.533106 0.498262
C29   C     C_R   0.767530 0.500952 0.497679 -0.333448
C30   C     C_R   0.808811 0.387397 0.461386 0.623639
C31   C     C_R   0.901799 0.383928 0.462502 -0.239808
C32   C     C_R   0.952707 0.497687 0.497506 -0.197853
C33   C     C_3   0.646200 0.135562 0.951644 -0.783047
C34   C     C_R   0.037114 0.264275 0.431625 0.490039
C35   C     C_3   0.399986 0.825330 0.802088 -0.823652
C36   C     C_3   0.399610 0.865748 0.277647 -0.821461
C37   C     C_3   0.273739 0.168997 0.804099 -0.801183
C38   C     C_3   0.282147 0.470403 0.849702 -0.821206
C39   C     C_3   0.634862 0.648636 0.869572 -0.736242
C40   C     C_3   0.234555 0.248869 0.458109 -0.661904
C41   C     C_3   0.920367 0.857585 0.596635 -0.546035
C42   C     C_3   0.523254 0.084495 0.235334 -0.782583
C43   C     C_R   0.090007 0.375365 0.467793 -0.096259
C44   C     C_R   0.046589 0.493335 0.498443 -0.053991
C45   C     C_R   0.097104 0.607142 0.530527 0.028765
C46   C     C_R   0.055388 0.723160 0.561569 0.609058
C47   C     C_R   0.961780 0.729114 0.562997 0.020123
F1    F     F_    0.767858 0.719703 0.567554 -0.687092
F2    F     F_    0.650513 0.220386 0.687851 -0.640362
F3    F     F_    0.374219 0.301876 0.247731 -0.663762
F4    F     F_    0.757252 0.280702 0.427763 -0.591434
F5    F     F_    0.896870 0.159391 0.394036 -0.566527
F6    F     F_    0.073052 0.149823 0.394795 -0.629642
F7    F     F_    0.106668 0.831019 0.591214 -0.670588
H1    H     H_    0.518395 0.945098 0.968333 0.171959
H2    H     H_    0.355460 0.877026 0.875492 0.225928
H3    H     H_    0.358507 0.783382 0.312172 0.241901
H4    H     H_    0.351936 0.934020 0.239453 0.239026
H5    H     H_    0.444548 0.831792 0.194292 0.238936
H6    H     H_    0.255675 0.078230 0.851348 0.248644
H7    H     H_    0.210697 0.213893 0.776367 0.244857
H8    H     H_    0.314093 0.145124 0.712325 0.233661
H9    H     H_    0.233847 0.436409 0.770788 0.246362
H10   H     H_    0.245063 0.478152 0.946989 0.224206
H11   H     H_    0.307103 0.568589 0.830090 0.246709
H12   H     H_    0.606863 0.632924 0.134819 0.159864
H13   H     H_    0.608170 0.704043 0.789455 0.281502
H14   H     H_    0.666782 0.719195 0.943381 0.194426
H15   H     H_    0.688305 0.585029 0.830025 0.264656
H16   H     H_    0.205921 0.179172 0.527497 0.254681
H17   H     H_    0.229378 0.208522 0.353058 0.297124
H18   H     H_    0.306817 0.259507 0.482740 0.212496
H19   H     H_    0.878936 0.884402 0.511696 0.288661
H20   H     H_    0.878844 0.853318 0.689392 0.242213
H21   H     H_    0.971117 0.936420 0.615115 0.266617
H22   H     H_    0.560463 0.003898 0.186708 0.216153
H23   H     H_    0.303607 0.150298 0.071146 0.189692
H24   H     H_    0.463492 0.100555 0.174843 0.247018
H25   H     H_    0.570476 0.168436 0.235790 0.266868
H26   H     H_    0.229906 0.691351 0.551584 0.185575
H27   H     H_    0.706950 0.184866 0.911432 0.285481
H28   H     H_    0.606300 0.207347 0.010501 0.230228
H29   H     H_    0.669437 0.062091 0.017708 0.239730
H30   H     H_    0.358155 0.791926 0.714871 0.236348
H31   H     H_    0.426286 0.741665 0.850008 0.241354
N1    N     N_R   0.499150 0.498800 0.142780 -0.111154
N2    N     N_R   0.499120 0.498720 0.857170 -0.103081
O1    O     O_R   0.500000 0.316780 0.614690 -0.606131
O2    O     O_R   0.499990 0.316750 0.385360 -0.549695
O3    O     O_R   0.367850 0.499980 0.614680 -0.641159
O4    O     O_R   0.367840 0.499960 0.385350 -0.549372
O5    O     O_R   0.500010 0.683250 0.614640 -0.624482
O6    O     O_R   0.500000 0.683220 0.385310 -0.612054
O7    O     O_R   0.632160 0.500040 0.614650 -0.580657
O8    O     O_R   0.632150 0.500020 0.385320 -0.621260
Zn1   Zn    Zn3+2 0.500010 0.500020 0.653130 0.976572
Zn2   Zn    Zn3+2 0.499990 0.499980 0.346870 1.008336

loop_
_geom_bond_atom_site_label_1
_geom_bond_atom_site_label_2
_ccdc_geom_bond_type
C8    C9    A    
C30   F4    S    
O1    Zn1   S    
C40   H17   S    
C27   C29   S    
C11   C13   A    
C39   H14   S    
C27   O8    A    
C19   C20   A    
C36   H5    S    
C37   H8    S    
C7    C8    A    
C45   C46   A    
C16   O6    A    
C40   H16   S    
C12   C28   A    
C18   C24   A    
C28   C29   A    
C36   H4    S    
C30   C31   A    
C26   C39   S    
C10   C17   A    
O5    Zn1   S    
C18   C19   A    
C19   H23   S    
N1    Zn2   S    
C41   H20   S    
C21   C38   S    
C26   N2    A    
C33   H28   S    
C38   H10   S    
C14   C42   S    
C4    O4    A    
C1    O1    A    
C42   H25   S    
C21   C22   A    
C12   C32   A    
C7    C33   S    
C12   C47   A    
C8    H1    S    
C4    O3    A    
C32   C44   A    
C34   C43   A    
C36   H3    S    
C6    C11   A    
C16   C17   S    
C25   C26   A    
C5    C45   A    
O2    Zn2   S    
C23   C31   A    
C43   C44   A    
C29   C30   A    
C41   H21   S    
C31   C32   A    
C38   H11   S    
C2    C43   A    
C23   C34   A    
N2    Zn1   S    
C46   F7    S    
C41   C47   S    
C22   N2    A    
O4    Zn2   S    
C5    H26   S    
O7    Zn1   S    
C33   H29   S    
C42   H24   S    
C22   C24   A    
C16   O5    A    
C1    C13   S    
C3    C4    S    
O6    Zn2   S    
C15   C36   S    
C44   C45   A    
C18   F3    S    
C38   H9    S    
C9    C10   A    
C15   C17   A    
C46   C47   A    
C28   F1    S    
C1    O2    A    
C40   H18   S    
C35   H2    S    
C39   H13   S    
C25   H12   S    
C3    C5    A    
C37   H7    S    
C35   H30   S    
O8    Zn2   S    
O3    Zn1   S    
C6    C7    A    
C42   H22   S    
C2    C3    A    
C20   C37   S    
C35   H31   S    
C23   F5    S    
C33   H27   S    
C25   N1    A    
C39   H15   S    
C6    F2    S    
C37   H6    S    
C10   C11   A    
C41   H19   S    
C2    C40   S    
C20   C21   A    
C34   F6    S    
C9    C35   S    
C14   C15   A    
C27   O7    A    
C13   C14   A    
C24   N1    A    
