data_mof_unit_62384.cif
_audit_creation_date              2012-12-10T20:21:01-0500
_audit_creation_method            fapswitch 2.2
_symmetry_space_group_name_H-M    P1
_symmetry_Int_Tables_number       1
_space_group_crystal_system       triclinic
_cell_length_a                    36.252705
_cell_length_b                    25.6311
_cell_length_c                    25.752208
_cell_angle_alpha                 89.995164
_cell_angle_beta                  89.906103
_cell_angle_gamma                 90.129736
_cell_volume                      23928.7733057

loop_
_atom_site_label
_atom_site_type_symbol
_atom_type_description
_atom_site_fract_x
_atom_site_fract_y
_atom_site_fract_z
_atom_type_partial_charge
C1    C     C_R   0.750061 0.349141 0.599011 0.824936
C2    C     C_R   0.775807 0.504598 0.708453 0.008499
C3    C     C_R   0.480907 0.797458 0.000862 -0.171621
C4    C     C_R   0.038476 0.249908 0.499949 0.160108
C5    C     C_R   0.961523 0.250190 0.500082 0.160089
C6    C     C_R   0.538477 0.749908 0.999948 0.160118
C7    C     C_R   0.461523 0.750190 0.000074 0.160095
C8    C     C_R   0.019092 0.202636 0.500211 -0.177275
C9    C     C_R   0.980585 0.202781 0.500279 -0.177389
C10   C     C_R   0.519092 0.702643 0.999162 -0.177275
C11   C     C_R   0.480586 0.702788 0.999226 -0.177392
C12   C     C_1   0.077967 0.249779 0.499939 -0.071024
C13   C     C_R   0.774072 0.506298 0.293386 0.008602
C14   C     C_1   0.922033 0.250291 0.500082 -0.070903
C15   C     C_1   0.577966 0.749779 0.999937 -0.071025
C16   C     C_1   0.422034 0.750290 0.000078 -0.070902
C17   C     C_1   0.888933 0.250204 0.500054 -0.131130
C18   C     C_1   0.111067 0.249811 0.499957 -0.131164
C19   C     C_1   0.388933 0.750205 0.000053 -0.131136
C20   C     C_1   0.611067 0.749811 0.999955 -0.131172
C21   C     C_R   0.849569 0.250045 0.500013 0.831199
C22   C     C_R   0.150430 0.249927 0.499987 0.831094
C23   C     C_R   0.349570 0.750045 0.000014 0.831196
C24   C     C_R   0.224822 0.504895 0.292268 0.008489
C25   C     C_R   0.650430 0.749927 0.999987 0.831085
C26   C     C_R   0.650345 0.249680 0.500113 0.825332
C27   C     C_R   0.349635 0.250374 0.499851 0.823777
C28   C     C_R   0.150345 0.749679 0.000113 0.825372
C29   C     C_R   0.849635 0.750372 0.999851 0.823696
C30   C     C_3   0.520602 0.217782 0.550160 0.314338
C31   C     C_3   0.477371 0.221465 0.550645 0.201119
C32   C     C_3   0.478454 0.217859 0.449719 0.307495
C33   C     C_3   0.521781 0.216142 0.450256 0.207322
C34   C     C_3   0.020599 0.717777 0.050145 0.314086
C35   C     C_R   0.726798 0.006736 0.205771 0.009128
C36   C     C_3   0.977376 0.721545 0.050659 0.200803
C37   C     C_3   0.978455 0.717878 0.949712 0.306904
C38   C     C_3   0.021783 0.716147 0.950252 0.207395
C39   C     C_1   0.389224 0.250521 0.499159 -0.121254
C40   C     C_1   0.610749 0.247689 0.500626 -0.132429
C41   C     C_1   0.889225 0.750520 0.999161 -0.121018
C42   C     C_1   0.110749 0.747687 0.000626 -0.132636
C43   C     C_3   0.536615 0.244264 0.500276 0.046192
C44   C     C_3   0.463254 0.247000 0.498735 0.021991
C45   C     C_3   0.036615 0.744269 0.000268 0.046925
C46   C     C_R   0.275583 0.004840 0.208208 0.008528
C47   C     C_3   0.963254 0.747027 0.998728 0.022097
C48   C     C_3   0.479469 0.303127 0.496875 -0.568169
C49   C     C_3   0.522246 0.301470 0.498959 -0.574868
C50   C     C_3   0.979471 0.803151 0.996837 -0.568383
C51   C     C_3   0.022249 0.801481 0.998948 -0.575068
C52   C     C_1   0.422516 0.249730 0.498393 -0.005027
C53   C     C_1   0.577430 0.245838 0.501114 -0.025709
C54   C     C_1   0.922516 0.749737 0.998395 -0.003803
C55   C     C_1   0.077429 0.745836 0.001112 -0.025744
C56   C     C_1   0.202100 0.512963 0.662284 0.168345
C57   C     C_R   0.274318 0.006052 0.793141 0.008598
C58   C     C_1   0.802176 0.509821 0.666667 0.169806
C59   C     C_1   0.798573 0.513127 0.337015 0.169326
C60   C     C_1   0.199131 0.510381 0.334813 0.169809
C61   C     C_1   0.703166 0.013975 0.161289 0.168206
C62   C     C_1   0.301725 0.010306 0.166180 0.169717
C63   C     C_1   0.299071 0.012628 0.836518 0.169419
C64   C     C_1   0.698368 0.009553 0.834010 0.169956
C65   C     C_R   0.724450 0.004489 0.791876 0.008401
C66   C     C_R   0.249279 0.462161 0.710662 0.106995
C67   C     C_R   0.750881 0.462288 0.710631 0.107043
C68   C     C_R   0.750807 0.462301 0.289437 0.107189
C69   C     C_R   0.249959 0.349089 0.599019 0.823048
C70   C     C_R   0.249223 0.462187 0.289307 0.107017
C71   C     C_R   0.749297 0.962178 0.210645 0.106996
C72   C     C_R   0.250872 0.962297 0.210622 0.107034
C73   C     C_R   0.250813 0.962296 0.789431 0.107180
C74   C     C_R   0.749209 0.962173 0.789292 0.107060
C75   C     C_R   0.272332 0.456961 0.753985 -0.191610
C76   C     C_R   0.725798 0.458647 0.751948 -0.191430
C77   C     C_R   0.727423 0.457047 0.246450 -0.191743
C78   C     C_R   0.273687 0.458254 0.247310 -0.191462
C79   C     C_R   0.771837 0.956494 0.254445 -0.191570
C80   C     C_R   0.249970 0.349098 0.400971 0.823620
C81   C     C_R   0.226006 0.958420 0.252174 -0.191436
C82   C     C_R   0.227189 0.957282 0.746684 -0.191773
C83   C     C_R   0.774040 0.958638 0.747685 -0.191446
C84   C     C_R   0.772090 0.994713 0.293167 -0.174492
C85   C     C_R   0.225576 0.996457 0.291049 -0.174844
C86   C     C_R   0.226835 0.995390 0.707866 -0.174833
C87   C     C_R   0.774381 0.996788 0.708900 -0.174844
C88   C     C_R   0.272590 0.495184 0.792701 -0.174550
C89   C     C_R   0.725366 0.496688 0.790818 -0.174867
C90   C     C_R   0.727071 0.495154 0.207631 -0.174799
C91   C     C_R   0.750067 0.349139 0.401001 0.824706
C92   C     C_R   0.274018 0.496399 0.208519 -0.174785
C93   C     C_R   0.749794 0.038967 0.288407 0.143316
C94   C     C_R   0.250029 0.038746 0.288641 0.142968
C95   C     C_R   0.250124 0.038861 0.711487 0.143111
C96   C     C_R   0.749874 0.038849 0.711448 0.142947
C97   C     C_R   0.249788 0.538961 0.788413 0.143285
C98   C     C_R   0.750037 0.538743 0.788644 0.142982
C99   C     C_R   0.750122 0.538862 0.211489 0.143136
C100  C     C_R   0.249865 0.538844 0.211443 0.142946
C101  C     C_R   0.727201 0.044924 0.244757 -0.213300
C102  C     C_R   0.250060 0.849143 0.099012 0.824905
C103  C     C_R   0.274937 0.042891 0.247268 -0.211821
C104  C     C_R   0.273800 0.044146 0.754080 -0.212127
C105  C     C_R   0.724992 0.042646 0.752881 -0.211698
C106  C     C_R   0.226682 0.544432 0.745241 -0.213274
C107  C     C_R   0.775163 0.542654 0.747508 -0.211787
C108  C     C_R   0.773558 0.544388 0.254321 -0.212148
C109  C     C_R   0.225353 0.543043 0.253267 -0.211751
C110  C     C_1   0.249644 0.422067 0.671327 -0.057405
C111  C     C_1   0.750577 0.422279 0.671181 -0.057191
C112  C     C_1   0.750495 0.422261 0.328827 -0.057544
C113  C     C_R   0.749959 0.849089 0.099018 0.823026
C114  C     C_1   0.249582 0.422131 0.328696 -0.057362
C115  C     C_1   0.749653 0.922074 0.171317 -0.057400
C116  C     C_1   0.250569 0.922288 0.171177 -0.057193
C117  C     C_1   0.250498 0.922258 0.828824 -0.057543
C118  C     C_1   0.749572 0.922124 0.828682 -0.057349
C119  C     C_1   0.750032 0.078290 0.328296 -0.058004
C120  C     C_1   0.249720 0.078030 0.328553 -0.057121
C121  C     C_1   0.249826 0.078130 0.671555 -0.057381
C122  C     C_1   0.750134 0.078180 0.671582 -0.057152
C123  C     C_1   0.250032 0.578287 0.828298 -0.058029
C124  C     C_R   0.749969 0.849098 0.900968 0.823624
C125  C     C_1   0.749723 0.578032 0.828552 -0.057129
C126  C     C_1   0.749826 0.578129 0.171554 -0.057365
C127  C     C_1   0.250123 0.578173 0.171574 -0.057142
C128  C     C_1   0.750129 0.111380 0.361554 -0.134467
C129  C     C_1   0.249736 0.111228 0.361700 -0.133522
C130  C     C_1   0.249775 0.111253 0.638330 -0.133791
C131  C     C_1   0.750167 0.111346 0.638404 -0.133000
C132  C     C_1   0.250130 0.611379 0.861554 -0.134489
C133  C     C_1   0.749736 0.611230 0.861700 -0.133526
C134  C     C_1   0.749776 0.611252 0.138329 -0.133771
C135  C     C_R   0.250067 0.849139 0.901001 0.824726
C136  C     C_1   0.250159 0.611341 0.138398 -0.132986
C137  C     C_1   0.249846 0.388672 0.638384 -0.125965
C138  C     C_1   0.750284 0.388820 0.638281 -0.126973
C139  C     C_1   0.750245 0.388819 0.361730 -0.127210
C140  C     C_1   0.249824 0.388703 0.361620 -0.126260
C141  C     C_1   0.749848 0.888674 0.138379 -0.125967
C142  C     C_1   0.250278 0.888826 0.138281 -0.127011
C143  C     C_1   0.250246 0.888818 0.861728 -0.127195
C144  C     C_1   0.749821 0.888700 0.861609 -0.126262
C145  C     C_R   0.750061 0.150889 0.401005 0.827394
C146  C     C_R   0.226270 0.506236 0.706264 0.009105
C147  C     C_R   0.249914 0.150844 0.401015 0.829876
C148  C     C_R   0.249911 0.150844 0.598972 0.828753
C149  C     C_R   0.750057 0.150888 0.599004 0.828486
C150  C     C_R   0.250061 0.650889 0.901005 0.827394
C151  C     C_R   0.749913 0.650846 0.901015 0.829888
C152  C     C_R   0.749912 0.650844 0.098972 0.828750
C153  C     C_R   0.250056 0.650887 0.099002 0.828496
C154  C     C_R   0.019415 0.297320 0.499754 -0.171795
C155  C     C_R   0.980907 0.297465 0.499822 -0.171620
C156  C     C_R   0.519415 0.797313 0.000797 -0.171801
H1    H     H_    0.531956 0.238355 0.415839 0.106866
H2    H     H_    0.468906 0.326733 0.529971 0.210957
H3    H     H_    0.470598 0.323398 0.460762 0.208516
H4    H     H_    0.533697 0.322303 0.464534 0.211741
H5    H     H_    0.031912 0.822977 0.033984 0.209253
H6    H     H_    0.968901 0.826785 0.029910 0.210975
H7    H     H_    0.970612 0.823401 0.960707 0.208475
H8    H     H_    0.033712 0.822315 0.964533 0.211766
H9    H     H_    0.709937 0.079245 0.241132 0.150674
H10   H     H_    0.293849 0.075705 0.245570 0.151971
H11   H     H_    0.291816 0.077879 0.756786 0.151715
H12   H     H_    0.470363 0.241140 0.415085 0.117929
H13   H     H_    0.706032 0.075271 0.754707 0.151998
H14   H     H_    0.209028 0.578384 0.741983 0.150736
H15   H     H_    0.794246 0.575287 0.745989 0.151998
H16   H     H_    0.791389 0.578306 0.257211 0.151678
H17   H     H_    0.206669 0.575971 0.255391 0.151927
H18   H     H_    0.290145 0.423291 0.757854 0.152175
H19   H     H_    0.706550 0.426294 0.754100 0.152059
H20   H     H_    0.709422 0.423417 0.242938 0.151757
H21   H     H_    0.292537 0.425605 0.244552 0.152009
H22   H     H_    0.789255 0.922450 0.258681 0.152193
H23   H     H_    0.469732 0.248655 0.582721 0.126198
H24   H     H_    0.206927 0.925886 0.254511 0.152085
H25   H     H_    0.209004 0.923837 0.743356 0.151750
H26   H     H_    0.793168 0.926288 0.745215 0.151968
H27   H     H_    0.789668 0.989735 0.326789 0.147467
H28   H     H_    0.206201 0.992860 0.322928 0.147342
H29   H     H_    0.208418 0.990932 0.675057 0.147261
H30   H     H_    0.793737 0.993454 0.676978 0.147290
H31   H     H_    0.290566 0.490582 0.825953 0.147443
H32   H     H_    0.705819 0.493280 0.822514 0.147310
H33   H     H_    0.708840 0.490509 0.174636 0.147273
H34   H     H_    0.530887 0.240055 0.584418 0.114433
H35   H     H_    0.293091 0.492763 0.176297 0.147332
H36   H     H_    0.966325 0.334328 0.499669 0.150002
H37   H     H_    0.034275 0.334045 0.499547 0.150041
H38   H     H_    0.466325 0.834317 0.001525 0.149998
H39   H     H_    0.534273 0.834034 0.001408 0.150029
H40   H     H_    0.033673 0.165769 0.500364 0.144487
H41   H     H_    0.965726 0.166053 0.500485 0.144578
H42   H     H_    0.533673 0.665781 0.998499 0.144484
H43   H     H_    0.465728 0.666064 0.998614 0.144575
H44   H     H_    0.441080 0.164160 0.538599 0.355668
H45   H     H_    0.031965 0.738345 0.915828 0.106469
H46   H     H_    0.519817 0.142930 0.533069 0.397127
H47   H     H_    0.561247 0.163242 0.453132 0.357796
H48   H     H_    0.472905 0.143610 0.467785 0.381748
H49   H     H_    0.941315 0.664023 0.038525 0.356198
H50   H     H_    0.019696 0.642930 0.033052 0.397078
H51   H     H_    0.061325 0.663348 0.952849 0.357559
H52   H     H_    0.972924 0.643584 0.967633 0.381412
H53   H     H_    0.970378 0.741174 0.915082 0.118068
H54   H     H_    0.969789 0.748811 0.082692 0.126659
H55   H     H_    0.030918 0.740001 0.084413 0.114479
H56   H     H_    0.531918 0.322974 0.533986 0.209246
N1    N     N_1   0.182752 0.518334 0.626995 -0.179178
N2    N     N_1   0.823348 0.514003 0.633278 -0.178833
N3    N     N_1   0.818240 0.518605 0.371954 -0.178780
N4    N     N_1   0.178507 0.514760 0.368859 -0.178486
N5    N     N_1   0.684252 0.019751 0.125595 -0.179269
N6    N     N_1   0.322730 0.014689 0.132600 -0.178874
N7    N     N_1   0.318940 0.017903 0.871255 -0.178721
N8    N     N_1   0.677426 0.013601 0.867711 -0.178402
O1    O     O_3   0.750020 0.249980 0.500000 -0.485556
O2    O     O_R   0.771480 0.810110 0.102800 -0.637591
O3    O     O_R   0.771480 0.810110 0.897200 -0.638065
O4    O     O_R   0.228520 0.810110 0.897200 -0.637495
O5    O     O_R   0.728520 0.189860 0.397190 -0.633089
O6    O     O_R   0.271480 0.189860 0.397190 -0.630983
O7    O     O_R   0.271480 0.189860 0.602810 -0.631227
O8    O     O_R   0.728520 0.189860 0.602810 -0.631536
O9    O     O_R   0.228520 0.689860 0.897190 -0.633100
O10   O     O_R   0.771480 0.689860 0.897190 -0.630970
O11   O     O_R   0.771480 0.689860 0.102810 -0.631210
O12   O     O_3   0.249980 0.249980 0.500000 -0.486156
O13   O     O_R   0.228520 0.689860 0.102810 -0.631549
O14   O     O_R   0.771490 0.352810 0.439870 -0.629986
O15   O     O_R   0.228510 0.352810 0.439870 -0.629574
O16   O     O_R   0.228510 0.352810 0.560130 -0.629720
O17   O     O_R   0.771490 0.352810 0.560130 -0.630075
O18   O     O_R   0.271490 0.852810 0.939870 -0.629965
O19   O     O_R   0.728510 0.852810 0.939870 -0.629534
O20   O     O_R   0.728510 0.852810 0.060130 -0.629758
O21   O     O_R   0.271490 0.852810 0.060130 -0.630083
O22   O     O_R   0.771530 0.147160 0.560090 -0.636940
O23   O     O_3   0.250020 0.749980 0.000000 -0.485547
O24   O     O_R   0.228470 0.147160 0.560090 -0.637235
O25   O     O_R   0.228470 0.147160 0.439910 -0.637315
O26   O     O_R   0.771530 0.147160 0.439910 -0.636349
O27   O     O_R   0.271530 0.647160 0.060090 -0.636929
O28   O     O_R   0.728470 0.647160 0.060090 -0.637232
O29   O     O_R   0.728470 0.647160 0.939910 -0.637328
O30   O     O_R   0.271530 0.647160 0.939910 -0.636359
O31   O     O_R   0.832000 0.292700 0.500000 -0.633047
O32   O     O_R   0.168000 0.292700 0.500000 -0.632394
O33   O     O_R   0.332000 0.792700 0.000000 -0.633041
O34   O     O_3   0.749980 0.749980 0.000000 -0.486164
O35   O     O_R   0.668000 0.792700 0.000000 -0.632401
O36   O     O_R   0.668030 0.249990 0.542720 -0.629413
O37   O     O_R   0.331970 0.249990 0.542720 -0.633427
O38   O     O_R   0.331970 0.249990 0.457280 -0.630775
O39   O     O_R   0.668030 0.249990 0.457280 -0.637346
O40   O     O_R   0.168030 0.749990 0.042720 -0.629384
O41   O     O_R   0.831970 0.749990 0.042720 -0.633302
O42   O     O_R   0.831970 0.749990 0.957280 -0.630835
O43   O     O_R   0.168030 0.749990 0.957280 -0.637412
O44   O     O_R   0.832010 0.207260 0.500000 -0.638320
O45   O     O_R   0.728520 0.310110 0.602800 -0.637528
O46   O     O_R   0.167990 0.207260 0.500000 -0.639081
O47   O     O_R   0.332010 0.707260 0.000000 -0.638321
O48   O     O_R   0.667990 0.707260 0.000000 -0.639080
O49   O     O_3   0.461076 0.172962 0.563794 -0.732179
O50   O     O_3   0.533725 0.166396 0.556526 -0.700207
O51   O     O_3   0.534528 0.164357 0.444710 -0.741024
O52   O     O_3   0.461963 0.168485 0.442753 -0.718120
O53   O     O_3   0.961014 0.673133 0.063931 -0.732697
O54   O     O_3   0.033674 0.666361 0.056456 -0.699929
O55   O     O_3   0.034527 0.664359 0.944749 -0.740904
O56   O     O_R   0.271480 0.310110 0.602800 -0.637597
O57   O     O_3   0.961942 0.668523 0.942710 -0.718602
O58   O     O_R   0.271480 0.310110 0.397200 -0.638069
O59   O     O_R   0.728520 0.310110 0.397200 -0.637491
O60   O     O_R   0.228520 0.810110 0.102800 -0.637525
Zn1   Zn    Zn3+2 0.719300 0.249980 0.438970 0.982999
Zn2   Zn    Zn3+2 0.219280 0.311020 0.500000 0.992435
Zn3   Zn    Zn3+2 0.280720 0.811020 0.000000 0.992993
Zn4   Zn    Zn3+2 0.719280 0.811020 0.000000 0.992424
Zn5   Zn    Zn3+2 0.780730 0.188950 0.500000 0.982056
Zn6   Zn    Zn3+2 0.219270 0.188950 0.500000 0.982280
Zn7   Zn    Zn3+2 0.280730 0.688950 0.000000 0.982057
Zn8   Zn    Zn3+2 0.719270 0.688950 0.000000 0.982280
Zn9   Zn    Zn3+2 0.280700 0.249980 0.438970 0.988637
Zn10  Zn    Zn3+2 0.280700 0.249980 0.561030 0.986769
Zn11  Zn    Zn3+2 0.719300 0.249980 0.561030 0.988628
Zn12  Zn    Zn3+2 0.219300 0.749980 0.938970 0.982956
Zn13  Zn    Zn3+2 0.780700 0.749980 0.938970 0.988646
Zn14  Zn    Zn3+2 0.780700 0.749980 0.061030 0.986855
Zn15  Zn    Zn3+2 0.219300 0.749980 0.061030 0.988626
Zn16  Zn    Zn3+2 0.780720 0.311020 0.500000 0.992984

loop_
_geom_bond_atom_site_label_1
_geom_bond_atom_site_label_2
_ccdc_geom_bond_type
C115  C141  T    
O7    Zn10  S    
C132  C150  S    
C73   C82   A    
C83   C87   A    
C133  C151  S    
C74   C83   A    
C23   O33   A    
C107  H15   S    
C91   O14   A    
C105  H13   S    
C46   C62   S    
C69   O16   A    
C61   N5    T    
O12   Zn10  S    
C59   N3    T    
C128  C145  S    
C151  O10   A    
C100  C127  S    
O60   Zn15  S    
C36   C47   S    
C63   N7    T    
C57   C104  A    
C38   C45   S    
C26   O39   A    
C49   H4    S    
C57   C63   S    
C4    C12   S    
C46   C72   A    
C88   C97   A    
C152  O11   A    
C119  C128  T    
C50   H7    S    
C35   C71   A    
C100  C109  A    
O48   Zn8   S    
O21   Zn3   S    
C147  O6    A    
C87   H30   S    
C15   C20   T    
C27   O37   A    
O15   Zn2   S    
O39   Zn1   S    
C156  H39   S    
C127  C136  T    
C93   C101  A    
C124  O19   A    
H50   O54   S    
C5    C155  A    
C48   H2    S    
C17   C21   S    
C19   C23   S    
O22   Zn5   S    
C22   O32   A    
C37   C38   S    
C42   C55   T    
C22   O46   A    
C82   H25   S    
O40   Zn15  S    
O2    Zn14  S    
C80   O15   A    
O42   Zn13  S    
C51   H8    S    
C66   C110  S    
O1    Zn5   S    
C154  C155  A    
C116  C142  T    
C58   N2    T    
O38   Zn9   S    
C85   H28   S    
C32   H12   S    
C89   H32   S    
C30   C43   S    
C131  C149  S    
C68   C77   A    
O58   Zn9   S    
C76   H19   S    
C81   H24   S    
C46   C103  A    
C78   C92   A    
C32   C33   S    
C136  C153  S    
O3    Zn13  S    
C23   O47   A    
C3    C156  A    
C109  H17   S    
C84   C93   A    
O59   Zn1   S    
C66   C146  A    
C86   C95   A    
C33   O51   S    
C126  C134  T    
C86   H29   S    
O45   Zn11  S    
O33   Zn3   S    
O34   Zn4   S    
O24   Zn6   S    
C123  C132  T    
C50   H6    S    
C78   H21   S    
C121  C130  T    
C71   C79   A    
C24   C70   A    
C99   C108  A    
O31   Zn16  S    
C79   C84   A    
C68   C112  S    
C57   C73   A    
C94   C120  S    
C98   C125  S    
C51   H5    S    
C114  C140  T    
C37   C47   S    
C37   O57   S    
C92   H35   S    
C76   C89   A    
C44   C52   S    
C135  C143  S    
O47   Zn7   S    
C75   H18   S    
C106  H14   S    
C14   C17   T    
C13   C108  A    
C65   C105  A    
C9    H41   S    
C150  O30   A    
C99   C126  S    
C88   H31   S    
H52   O57   S    
C74   C118  S    
C129  C147  S    
C120  C129  T    
O16   Zn2   S    
C102  O21   A    
C1    O17   A    
C65   C74   A    
O4    Zn12  S    
C5    C9    A    
C29   O42   A    
C35   C61   S    
C91   O59   A    
H47   O51   S    
H48   O52   S    
C77   H20   S    
C108  H16   S    
C90   C99   A    
C29   C41   S    
C18   C22   S    
O12   Zn6   S    
C13   C59   S    
C28   O43   A    
O19   Zn4   S    
C89   C98   A    
O1    Zn1   S    
C60   N4    T    
C97   C123  S    
C104  H11   S    
C49   H56   S    
C113  C141  S    
O8    Zn11  S    
C34   C36   S    
C30   H34   S    
C10   C11   A    
C44   C48   S    
C45   C55   S    
O20   Zn4   S    
C148  O24   A    
C149  O8    A    
C93   C119  S    
O36   Zn11  S    
C6    C156  A    
O23   Zn7   S    
C13   C68   A    
C4    C154  A    
C96   C105  A    
C122  C131  T    
C30   O50   S    
O34   Zn13  S    
C25   O35   A    
O10   Zn13  S    
C3    C7    A    
C30   C31   S    
C38   O55   S    
C20   C25   S    
O1    Zn11  S    
H49   O53   S    
O6    Zn9   S    
O18   Zn3   S    
C154  H37   S    
C43   C53   S    
C113  O20   A    
C149  O22   A    
C28   O40   A    
O29   Zn8   S    
O30   Zn7   S    
O5    Zn1   S    
C72   C81   A    
C95   C121  S    
C80   O58   A    
C33   H1    S    
O9    Zn12  S    
H44   O49   S    
C77   C90   A    
O11   Zn14  S    
O12   Zn9   S    
H51   O55   S    
C82   C86   A    
C98   C107  A    
C31   H23   S    
O17   Zn16  S    
O32   Zn2   S    
O46   Zn6   S    
C21   O44   A    
C134  C152  S    
C50   C51   S    
C153  O13   A    
C101  H9    S    
C5    C14   S    
C47   C54   S    
C91   C139  S    
C97   C106  A    
C67   C111  S    
C48   C49   S    
C94   C103  A    
C32   O52   S    
C36   O53   S    
C25   O48   A    
O23   Zn12  S    
C27   O38   A    
O25   Zn6   S    
C110  C137  T    
C24   C109  A    
C102  O60   A    
C35   C101  A    
C6    C10   A    
C2    C58   S    
C72   C116  S    
C135  O18   A    
C96   C122  S    
C64   C65   S    
H46   O50   S    
C26   O36   A    
C145  O5    A    
C16   C19   T    
C66   C75   A    
C153  O27   A    
C8    H40   S    
C56   C146  S    
C11   H43   S    
C113  O2    A    
C152  O28   A    
C34   H55   S    
O12   Zn2   S    
C111  C138  T    
C70   C78   A    
O43   Zn12  S    
C47   C50   S    
C4    C8    A    
C151  O29   A    
C70   C114  S    
C7    C11   A    
C135  O4    A    
C34   O54   S    
C150  O9    A    
C145  O26   A    
O44   Zn5   S    
C62   N6    T    
C117  C143  T    
C118  C144  T    
C45   C51   S    
O23   Zn15  S    
C2    C107  A    
O23   Zn3   S    
C6    C15   S    
O1    Zn16  S    
C27   C39   S    
C8    C9    A    
C38   H45   S    
O35   Zn4   S    
C31   O49   S    
C29   O41   A    
O56   Zn10  S    
C39   C52   T    
O41   Zn14  S    
C80   C140  S    
C112  C139  T    
C148  O7    A    
C10   H42   S    
O37   Zn10  S    
C69   C137  S    
C48   H3    S    
C3    H38   S    
C73   C117  S    
C31   C44   S    
C64   N8    T    
C130  C148  S    
C33   C43   S    
O27   Zn7   S    
C2    C67   A    
C155  H36   S    
O28   Zn8   S    
C43   C49   S    
O13   Zn15  S    
C83   H26   S    
O14   Zn16  S    
C85   C94   A    
C124  O3    A    
C24   C60   S    
C87   C96   A    
C32   C44   S    
C79   H22   S    
C71   C115  S    
C34   C45   S    
C37   H53   S    
C56   N1    T    
C95   C104  A    
C92   C100  A    
C125  C133  T    
C69   O56   A    
C7    C16   S    
C84   H27   S    
O34   Zn14  S    
C21   O31   A    
O34   Zn8   S    
C102  C142  S    
C106  C146  A    
C26   C40   S    
C28   C42   S    
C81   C85   A    
C41   C54   T    
C75   C88   A    
C1    O45   A    
C147  O25   A    
C103  H10   S    
C40   C53   T    
C12   C18   T    
C124  C144  S    
O26   Zn5   S    
C67   C76   A    
C1    C138  S    
C36   H54   S    
C90   H33   S    
