data_mof_unit_23944.cif
_audit_creation_date              2012-12-11T15:36:00-0500
_audit_creation_method            fapswitch 2.2
_symmetry_space_group_name_H-M    P1
_symmetry_Int_Tables_number       1
_space_group_crystal_system       triclinic
_cell_length_a                    7.097323
_cell_length_b                    11.916076
_cell_length_c                    35.837313
_cell_angle_alpha                 90.000056
_cell_angle_beta                  89.663437
_cell_angle_gamma                 89.999778
_cell_volume                      3030.78955534

loop_
_atom_site_label
_atom_site_type_symbol
_atom_type_description
_atom_site_fract_x
_atom_site_fract_y
_atom_site_fract_z
_atom_type_partial_charge
O1    O     O_R   0.379730 0.148600 0.662710 -0.537931
O2    O     O_R   0.620270 0.851400 0.337290 -0.537930
O3    O     O_R   0.120270 0.648600 0.337290 -0.537925
O4    O     O_R   0.879730 0.351400 0.662710 -0.537925
O5    O     O_R   0.722480 0.134490 0.741330 -0.537445
O6    O     O_R   0.277520 0.865510 0.258670 -0.537444
O7    O     O_R   0.777520 0.634490 0.258670 -0.537442
O8    O     O_R   0.222480 0.365510 0.741330 -0.537443
O9    O     O_R   0.892880 0.345890 0.741600 -0.535826
O10   O     O_R   0.107120 0.654110 0.258400 -0.535827
O11   O     O_R   0.607120 0.845890 0.258400 -0.535826
O12   O     O_R   0.392880 0.154110 0.741600 -0.535826
C1    C     C_R   0.551807 0.109314 0.753300 0.691235
C2    C     C_R   0.448193 0.890686 0.246700 0.691236
C3    C     C_R   0.948193 0.609314 0.246700 0.691236
C4    C     C_R   0.051806 0.390686 0.753300 0.691236
O13   O     O_R   0.709490 0.135560 0.662990 -0.540162
O14   O     O_R   0.290510 0.864440 0.337010 -0.540162
O15   O     O_R   0.790510 0.635560 0.337010 -0.540162
O16   O     O_R   0.209490 0.364440 0.662990 -0.540161
C5    C     C_R   0.541513 0.108068 0.651030 0.691590
C6    C     C_R   0.458487 0.891931 0.348970 0.691589
C7    C     C_R   0.958488 0.608068 0.348969 0.691584
C8    C     C_R   0.041512 0.391932 0.651030 0.691584
O17   O     O_3   0.552800 0.316610 0.702160 -0.368263
O18   O     O_3   0.447200 0.683390 0.297840 -0.368264
O19   O     O_3   0.947200 0.816610 0.297840 -0.368267
O20   O     O_3   0.052800 0.183390 0.702160 -0.368267
V1    V     V_3+5 0.827630 0.234380 0.702160 1.415150
V2    V     V_3+5 0.172370 0.765620 0.297840 1.415151
V3    V     V_3+5 0.672370 0.734380 0.297840 1.415153
V4    V     V_3+5 0.327630 0.265620 0.702160 1.415153
C9    C     C_R   0.991697 0.676063 0.907621 0.549061
C10   C     C_R   0.008301 0.323938 0.092379 0.549060
C11   C     C_R   0.508301 0.176062 0.092378 0.549060
C12   C     C_R   0.491696 0.823938 0.907621 0.549061
O21   O     O_2   0.969712 0.564863 0.913037 -0.537202
O22   O     O_2   0.030284 0.435138 0.086962 -0.537202
O23   O     O_2   0.530284 0.064862 0.086962 -0.537203
O24   O     O_2   0.469711 0.935137 0.913038 -0.537202
N1    N     N_R   0.032570 0.717412 0.872750 -0.537398
N2    N     N_R   0.967429 0.282588 0.127250 -0.537398
N3    N     N_R   0.467429 0.217411 0.127250 -0.537397
N4    N     N_R   0.532569 0.782588 0.872750 -0.537398
C13   C     C_R   0.052248 0.831451 0.867881 0.562133
C14   C     C_R   0.947752 0.168550 0.132119 0.562132
C15   C     C_R   0.447751 0.331449 0.132118 0.562132
C16   C     C_R   0.552249 0.668550 0.867881 0.562135
C17   C     C_R   0.951453 0.659712 0.807140 -0.050799
C18   C     C_R   0.048549 0.340289 0.192859 -0.050801
C19   C     C_R   0.548549 0.159711 0.192859 -0.050804
C20   C     C_R   0.451454 0.840288 0.807141 -0.050801
C21   C     C_R   0.949436 0.578554 0.778598 -0.196977
C22   C     C_R   0.050567 0.421447 0.221401 -0.196977
C23   C     C_R   0.550566 0.078553 0.221401 -0.196978
C24   C     C_R   0.449437 0.921446 0.778598 -0.196977
C25   C     C_R   0.133123 0.454745 0.816969 -0.223441
C26   C     C_R   0.866874 0.545255 0.183031 -0.223440
C27   C     C_R   0.366874 0.954745 0.183031 -0.223438
C28   C     C_R   0.633122 0.045255 0.816969 -0.223440
C29   C     C_R   0.143602 0.536983 0.844671 -0.066119
C30   C     C_R   0.856396 0.463017 0.155329 -0.066117
C31   C     C_R   0.356396 0.036982 0.155329 -0.066116
C32   C     C_R   0.643601 0.963018 0.844671 -0.066119
C33   C     C_R   0.047562 0.640031 0.841047 0.288037
C34   C     C_R   0.952438 0.359970 0.158953 0.288033
C35   C     C_R   0.452438 0.140030 0.158952 0.288032
C36   C     C_R   0.547561 0.859970 0.841047 0.288035
C37   C     C_R   0.001494 0.863889 0.934464 -0.070220
C38   C     C_R   0.998503 0.136112 0.065535 -0.070219
C39   C     C_R   0.498503 0.363888 0.065535 -0.070220
C40   C     C_R   0.501494 0.636111 0.934464 -0.070221
C41   C     C_R   0.967007 0.748162 0.938130 -0.014385
C42   C     C_R   0.032990 0.251839 0.061870 -0.014384
C43   C     C_R   0.532990 0.248161 0.061869 -0.014385
C44   C     C_R   0.467007 0.751838 0.938130 -0.014385
C45   C     C_R   0.900624 0.706335 0.972051 -0.140340
C46   C     C_R   0.099373 0.293666 0.027949 -0.140340
C47   C     C_R   0.599373 0.206333 0.027949 -0.140340
C48   C     C_R   0.400624 0.793666 0.972051 -0.140340
C49   C     C_R   0.048570 0.907360 0.898918 -0.096916
C50   C     C_R   0.951428 0.092641 0.101082 -0.096919
C51   C     C_R   0.451428 0.407359 0.101082 -0.096918
C52   C     C_R   0.548570 0.592640 0.898918 -0.096915
C53   C     C_R   0.040969 0.475296 0.783442 -0.048186
C54   C     C_R   0.959031 0.524704 0.216558 -0.048188
C55   C     C_R   0.459030 0.975296 0.216558 -0.048189
C56   C     C_R   0.540969 0.024703 0.783442 -0.048187
H1    H     H_    0.193734 0.373263 0.821875 0.140567
H2    H     H_    0.806260 0.626736 0.178126 0.140568
H3    H     H_    0.306262 0.873263 0.178125 0.140567
H4    H     H_    0.693732 0.126737 0.821875 0.140567
H5    H     H_    0.218915 0.516979 0.869845 0.183368
H6    H     H_    0.781082 0.483021 0.130155 0.183368
H7    H     H_    0.281083 0.016979 0.130154 0.183368
H8    H     H_    0.718912 0.983022 0.869846 0.183369
H9    H     H_    0.861924 0.619060 0.975196 0.178870
H10   H     H_    0.138072 0.380941 0.024803 0.178870
H11   H     H_    0.638072 0.119058 0.024803 0.178870
H12   H     H_    0.361925 0.880941 0.975197 0.178870
C57   C     C_R   0.959053 0.951100 0.035956 -0.030327
C58   C     C_R   0.040943 0.048901 0.964044 -0.030325
C59   C     C_R   0.540944 0.451099 0.964044 -0.030323
C60   C     C_R   0.459053 0.548900 0.035956 -0.030325
C61   C     C_R   0.054533 0.113343 0.997742 0.055726
C62   C     C_R   0.945464 0.886658 0.002257 0.055726
C63   C     C_R   0.445464 0.613342 0.002257 0.055727
C64   C     C_R   0.554533 0.386657 0.997742 0.055727
C65   C     C_R   0.003214 0.066294 0.033022 0.016375
C66   C     C_R   0.996783 0.933707 0.966978 0.016375
C67   C     C_R   0.496783 0.566293 0.966978 0.016374
C68   C     C_R   0.503214 0.433706 0.033022 0.016374
C69   C     C_R   0.937082 0.905052 0.072662 0.294911
C70   C     C_R   0.062914 0.094949 0.927338 0.294909
C71   C     C_R   0.562915 0.405051 0.927338 0.294909
C72   C     C_R   0.437082 0.594948 0.072662 0.294911
C73   C     C_R   0.914538 0.975212 0.104355 0.134265
C74   C     C_R   0.085459 0.024789 0.895645 0.134266
C75   C     C_R   0.585459 0.475212 0.895645 0.134265
C76   C     C_R   0.414538 0.524787 0.104355 0.134264
O25   O     O_2   0.929304 0.128499 0.166926 -0.564730
O26   O     O_2   0.070698 0.871502 0.833074 -0.564730
O27   O     O_2   0.570701 0.628499 0.833074 -0.564730
O28   O     O_2   0.429302 0.371501 0.166926 -0.564730
C77   C     C_R   0.871107 0.777485 0.001935 -0.107736
C78   C     C_R   0.128890 0.222516 0.998064 -0.107735
C79   C     C_R   0.628889 0.277484 0.998064 -0.107735
C80   C     C_R   0.371107 0.722515 0.001936 -0.107735
H13   H     H_    0.124399 0.403873 0.247107 0.117179
H14   H     H_    0.875606 0.596128 0.752892 0.117177
H15   H     H_    0.375609 0.903871 0.752892 0.117179
H16   H     H_    0.624398 0.096126 0.247107 0.117181
H17   H     H_    0.129805 0.264573 0.196867 0.173276
H18   H     H_    0.870198 0.735429 0.803132 0.173274
H19   H     H_    0.370199 0.764572 0.803133 0.173274
H20   H     H_    0.629804 0.235426 0.196867 0.173276
H21   H     H_    0.784544 0.745699 0.024173 0.213695
H22   H     H_    0.215453 0.254302 0.975827 0.213696
H23   H     H_    0.715452 0.245697 0.975827 0.213695
H24   H     H_    0.284544 0.754302 0.024173 0.213695
C81   C     C_R   0.962336 0.528935 0.380018 -0.035136
C82   C     C_R   0.037665 0.471065 0.619981 -0.035135
C83   C     C_R   0.537683 0.028930 0.619982 -0.035174
C84   C     C_R   0.462322 0.971067 0.380019 -0.035163
C85   C     C_R   0.890234 0.346221 0.405305 -0.168533
C86   C     C_R   0.109778 0.653778 0.594695 -0.168537
C87   C     C_R   0.610056 0.846255 0.594689 -0.168521
C88   C     C_R   0.390023 0.153752 0.405310 -0.168520
C89   C     C_R   0.905036 0.418043 0.374828 -0.180877
C90   C     C_R   0.094967 0.581956 0.625172 -0.180877
C91   C     C_R   0.595179 0.918068 0.625168 -0.180855
C92   C     C_R   0.404870 0.081938 0.374832 -0.180862
C93   C     C_R   0.004009 0.568466 0.415708 -0.218524
C94   C     C_R   0.995999 0.431533 0.584291 -0.218522
C95   C     C_R   0.495907 0.068442 0.584294 -0.218538
C96   C     C_R   0.504084 0.931549 0.415707 -0.218536
C97   C     C_R   0.983676 0.498601 0.447402 0.079750
C98   C     C_R   0.016341 0.501396 0.552598 0.079751
C99   C     C_R   0.516362 0.998597 0.552598 0.079733
C100  C     C_R   0.483679 0.001400 0.447402 0.079734
C101  C     C_R   0.926894 0.385693 0.441446 0.128527
C102  C     C_R   0.073125 0.614304 0.558554 0.128523
C103  C     C_R   0.573305 0.885714 0.558550 0.128543
C104  C     C_R   0.426769 0.114289 0.441449 0.128543
C105  C     C_R   0.013512 0.537633 0.484659 0.051947
C106  C     C_R   0.986510 0.462364 0.515340 0.051948
C107  C     C_R   0.486494 0.037626 0.515341 0.051939
C108  C     C_R   0.513565 0.962372 0.484658 0.051939
C109  C     C_R   0.931946 0.350485 0.507725 -0.195833
C110  C     C_R   0.068081 0.649511 0.492275 -0.195840
C111  C     C_R   0.568251 0.850511 0.492271 -0.195819
C112  C     C_R   0.431848 0.149492 0.507728 -0.195825
C113  C     C_R   0.903319 0.313333 0.471557 -0.199068
C114  C     C_R   0.096708 0.686663 0.528442 -0.199075
C115  C     C_R   0.596950 0.813367 0.528437 -0.199039
C116  C     C_R   0.403158 0.186639 0.471562 -0.199043
H25   H     H_    0.860248 0.227015 0.467163 0.141295
H26   H     H_    0.139784 0.772981 0.532836 0.141294
H27   H     H_    0.640130 0.727066 0.532828 0.141307
H28   H     H_    0.360015 0.272946 0.467170 0.141305
H29   H     H_    0.955446 0.344685 0.582351 0.100185
H30   H     H_    0.044559 0.655315 0.417649 0.100185
H31   H     H_    0.544749 0.844716 0.417644 0.100204
H32   H     H_    0.455184 0.155266 0.582357 0.100210
H33   H     H_    0.129922 0.612419 0.652764 0.106578
H34   H     H_    0.870077 0.387581 0.347236 0.106578
H35   H     H_    0.369828 0.112388 0.347242 0.106590
H36   H     H_    0.630234 0.887623 0.652757 0.106593
H37   H     H_    0.845563 0.260323 0.400735 0.127461
H38   H     H_    0.154450 0.739675 0.599265 0.127460
H39   H     H_    0.654868 0.760380 0.599255 0.127468
H40   H     H_    0.345242 0.239633 0.400743 0.127466
H41   H     H_    0.908786 0.288542 0.529090 0.130127
H42   H     H_    0.091246 0.711453 0.470910 0.130127
H43   H     H_    0.591461 0.788579 0.470904 0.130120
H44   H     H_    0.408685 0.211429 0.529094 0.130122
C117  C     C_3   0.808099 0.926225 0.137834 -0.205628
C118  C     C_3   0.926854 0.873450 0.168438 -0.728940
H45   H     H_    0.999069 0.938351 0.184979 0.265808
H46   H     H_    0.832626 0.827851 0.188081 0.200365
H47   H     H_    0.028992 0.812474 0.156852 0.246486
H48   H     H_    0.715938 0.989489 0.150292 0.221256
H49   H     H_    0.708679 0.861680 0.128366 0.239032
C119  C     C_3   0.191897 0.073777 0.862165 -0.205632
C120  C     C_3   0.073140 0.126550 0.831561 -0.728940
H50   H     H_    0.167367 0.172149 0.811919 0.200365
H51   H     H_    0.000927 0.061648 0.815020 0.265810
H52   H     H_    0.971000 0.187524 0.843148 0.246483
H53   H     H_    0.291313 0.138324 0.871633 0.239031
H54   H     H_    0.284061 0.010515 0.849707 0.221258
C121  C     C_3   0.691897 0.426223 0.862165 -0.205631
C122  C     C_3   0.573141 0.373451 0.831561 -0.728934
H55   H     H_    0.500931 0.438355 0.815019 0.265809
H56   H     H_    0.667369 0.327850 0.811919 0.200363
H57   H     H_    0.470998 0.312479 0.843148 0.246482
H58   H     H_    0.784063 0.489485 0.849708 0.221259
H59   H     H_    0.791312 0.361675 0.871633 0.239030
C123  C     C_3   0.308098 0.573776 0.137835 -0.205629
C124  C     C_3   0.426852 0.626549 0.168439 -0.728937
H60   H     H_    0.332621 0.672145 0.188082 0.200365
H61   H     H_    0.499069 0.561647 0.184979 0.265809
H62   H     H_    0.528987 0.687527 0.156853 0.246483
H63   H     H_    0.208680 0.638321 0.128366 0.239031
H64   H     H_    0.215936 0.510512 0.150292 0.221257
Br1   Br    Br    0.975083 0.747335 0.083268 -0.607333
Br2   Br    Br    0.024912 0.252666 0.916731 -0.607336
Br3   Br    Br    0.524912 0.247335 0.916731 -0.607336
Br4   Br    Br    0.475084 0.752664 0.083269 -0.607334

loop_
_geom_bond_atom_site_label_1
_geom_bond_atom_site_label_2
_ccdc_geom_bond_type
C88   H40   S    
N4    C16   A    
C17   H18   S    
O1    C5    A    
C105  C106  A    
C6    C84   S    
C97   C101  A    
C22   C54   A    
O13   V1    S    
O3    C7    A    
C10   N2    A    
C40   C44   A    
C103  C115  A    
C90   H33   S    
C28   C56   A    
C73   C117  S    
C123  H63   S    
C120  H50   S    
C71   Br3   S    
O12   C1    A    
C86   C102  A    
C62   C77   A    
C11   C43   A    
C18   C22   A    
C17   C33   A    
C61   C78   A    
C72   Br4   S    
C32   C36   A    
C47   H11   S    
O20   V1    S    
O9    C4    A    
C2    C55   S    
C94   C98   A    
O10   C3    A    
C110  C114  A    
O4    C8    A    
O11   C2    A    
C29   H5    S    
C24   C56   A    
C124  H61   S    
C57   C65   A    
C94   H29   S    
C31   H7    S    
C57   C62   A    
C57   C69   A    
C86   H38   S    
C58   C61   A    
C59   C67   A    
N2    C14   A    
C93   H30   S    
C38   C42   A    
C61   C65   A    
C12   C44   A    
C112  H44   S    
C14   C50   A    
C83   C95   A    
C48   H12   S    
C108  C111  A    
C109  C113  A    
O16   C8    A    
C8    C82   S    
C119  H53   S    
C46   H10   S    
C14   O25   S    
C37   C41   A    
C118  H45   S    
O14   V2    S    
C15   C51   A    
C11   N3    A    
C72   C76   A    
C114  H26   S    
O5    C1    A    
O4    V1    S    
C20   C36   A    
C12   N4    A    
O9    V1    S    
O17   V4    S    
C83   C91   A    
C121  H58   S    
C40   C67   A    
O15   V3    S    
C89   H34   S    
O8    C4    A    
C74   C119  S    
C86   C90   A    
O12   V4    S    
O19   V2    S    
C23   C55   A    
C21   C53   A    
C79   H23   S    
C16   O27   S    
C92   H35   S    
C26   C54   A    
C96   H31   S    
O16   V4    S    
O5    V1    S    
C28   H4    S    
O17   V1    S    
C91   H36   S    
C121  H59   S    
C31   C35   A    
C40   C52   A    
O7    V3    S    
C30   C34   A    
C95   C99   A    
C88   C104  A    
C88   C92   A    
C12   O24   S    
C37   C49   A    
C32   H8    S    
C111  H43   S    
C87   H39   S    
C107  C108  A    
C110  H42   S    
C95   H32   S    
C109  H41   S    
C48   C80   A    
C77   H21   S    
C111  C115  A    
C49   C74   A    
O1    V4    S    
C9    O21   S    
C64   C68   A    
O2    V3    S    
O8    V4    S    
C51   C76   A    
C84   C96   A    
O3    V2    S    
C11   O23   S    
N3    C35   S    
O2    C6    A    
C59   C71   A    
C58   C70   A    
C38   C65   A    
C29   C33   A    
O6    C2    A    
C101  C113  A    
C37   C66   A    
O10   V2    S    
C69   Br1   S    
C121  C122  S    
C122  H57   S    
O20   V4    S    
C123  C124  S    
C39   C68   A    
C118  H47   S    
C117  H48   S    
C27   H3    S    
C122  H55   S    
C45   H9    S    
C18   C34   A    
C5    C83   S    
C70   C74   A    
C25   H1    S    
C26   C30   A    
C26   H2    S    
C3    C54   S    
C69   C73   A    
C9    C41   A    
O6    V2    S    
C10   C42   A    
O18   V2    S    
N3    C15   A    
C71   C75   A    
C30   H6    S    
O19   V3    S    
O18   V3    S    
C4    C53   S    
C99   C103  A    
C27   C31   A    
C58   C66   A    
C97   C105  A    
C46   C78   A    
C100  C104  A    
C19   H20   S    
C45   C77   A    
O15   C7    A    
C60   C68   A    
C62   C66   A    
C120  H52   S    
C105  C110  A    
C124  H60   S    
C22   H13   S    
C47   C79   A    
C78   H22   S    
N1    C13   A    
C85   H37   S    
C10   O22   S    
C63   C67   A    
C13   C49   A    
C44   C48   A    
C122  H56   S    
C118  H46   S    
C18   H17   S    
C63   C80   A    
C115  H27   S    
C25   C29   A    
C107  C112  A    
C102  C114  A    
C96   C100  A    
C13   O26   S    
C70   Br2   S    
C81   C89   A    
C104  C116  A    
C75   C121  S    
C28   C32   A    
C9    N1    A    
C60   C72   A    
C82   C90   A    
O14   C6    A    
C80   H24   S    
N1    C33   S    
C84   C92   A    
C87   C103  A    
C124  H62   S    
C39   C43   A    
C81   C93   A    
C15   O28   S    
C19   C35   A    
C85   C101  A    
C52   C75   A    
C17   C21   A    
C87   C91   A    
C1    C56   S    
O7    C3    A    
C99   C107  A    
C117  H49   S    
C19   C23   A    
C123  H64   S    
C100  C108  A    
C64   C79   A    
C93   C97   A    
C117  C118  S    
C38   C50   A    
C27   C55   A    
C24   H15   S    
N4    C36   S    
C98   C102  A    
O11   V3    S    
C98   C106  A    
C16   C52   A    
C116  H28   S    
C119  C120  S    
C106  C109  A    
C76   C123  S    
C23   H16   S    
C42   C46   A    
C119  H54   S    
N2    C34   S    
C20   H19   S    
C41   C45   A    
C7    C81   S    
C59   C64   A    
C39   C51   A    
C21   H14   S    
C82   C94   A    
C50   C73   A    
C113  H25   S    
C120  H51   S    
C43   C47   A    
C25   C53   A    
C60   C63   A    
C85   C89   A    
C20   C24   A    
C112  C116  A    
O13   C5    A    
