data_mof_unit_28549.cif
_audit_creation_date              2012-12-10T16:46:42-0500
_audit_creation_method            fapswitch 2.2
_symmetry_space_group_name_H-M    P1
_symmetry_Int_Tables_number       1
_space_group_crystal_system       triclinic
_cell_length_a                    15.847966
_cell_length_b                    8.724666
_cell_length_c                    7.445651
_cell_angle_alpha                 103.005551
_cell_angle_beta                  94.002933
_cell_angle_gamma                 92.256941
_cell_volume                      999.032802499

loop_
_atom_site_label
_atom_site_type_symbol
_atom_type_description
_atom_site_fract_x
_atom_site_fract_y
_atom_site_fract_z
_atom_type_partial_charge
C1    C     C_R   0.494867 0.200109 0.453252 0.769929
C2    C     C_3   0.952268 0.411051 0.640830 -0.376390
C3    C     C_3   0.917124 0.500025 0.495895 0.334265
C4    C     C_3   0.956251 0.671362 0.548142 -0.379316
C5    C     C_3   0.054147 0.671722 0.553056 -0.381680
C6    C     C_1   0.824831 0.499718 0.492136 -0.118207
C7    C     C_1   0.175226 0.500858 0.507909 -0.126454
C8    C     C_1   0.250831 0.500679 0.507765 -0.186056
C9    C     C_2   0.486492 0.032363 0.424645 0.304401
C10   C     C_2   0.502036 0.967490 0.569437 -0.490232
C11   C     C_R   0.340314 0.500001 0.502658 0.801168
C12   C     C_R   0.501686 0.800080 0.546135 0.896534
C13   C     C_R   0.659697 0.500104 0.497349 0.824891
C14   C     C_3   0.050152 0.411415 0.645698 -0.381027
C15   C     C_3   0.042660 0.418480 0.308670 -0.380259
C16   C     C_3   0.944775 0.418116 0.303807 -0.376726
C17   C     C_1   0.749210 0.499700 0.492264 -0.170630
C18   C     C_3   0.082950 0.500638 0.504158 0.340929
Cu1   Cu    Cu3+1 0.509300 0.517380 0.684380 0.957346
Cu2   Cu    Cu3+1 0.490700 0.482620 0.315620 0.971825
H1    H     H_    0.925156 0.287320 0.606282 0.159703
H2    H     H_    0.078100 0.468426 0.787514 0.157348
H3    H     H_    0.933260 0.467830 0.780391 0.158698
H4    H     H_    0.932097 0.737874 0.445839 0.158514
H5    H     H_    0.516103 0.039209 0.708828 0.161720
H6    H     H_    0.435042 0.376819 0.948576 0.222012
H7    H     H_    0.564893 0.623282 0.051460 0.243339
H8    H     H_    0.070010 0.287880 0.613385 0.156405
H9    H     H_    0.065239 0.480588 0.204225 0.156921
H10   H     H_    0.062354 0.295054 0.270204 0.156270
H11   H     H_    0.917496 0.294541 0.263139 0.160581
H12   H     H_    0.920397 0.480109 0.197144 0.159086
H13   H     H_    0.082159 0.733346 0.693215 0.156341
H14   H     H_    0.076980 0.738420 0.453110 0.155352
H15   H     H_    0.937281 0.732866 0.685958 0.158910
N1    N     N_2   0.476670 0.456430 0.038530 -0.213614
N2    N     N_2   0.523330 0.543570 0.961470 -0.198931
O1    O     O_R   0.506050 0.286130 0.619770 -0.615959
O2    O     O_R   0.490330 0.256780 0.308370 -0.556040
O3    O     O_R   0.387300 0.514690 0.655770 -0.587055
O4    O     O_R   0.371580 0.485340 0.344370 -0.585816
O5    O     O_R   0.509670 0.743220 0.691630 -0.579007
O6    O     O_R   0.493950 0.713870 0.380230 -0.528077
O7    O     O_R   0.628420 0.514660 0.655630 -0.575445
O8    O     O_R   0.612700 0.485310 0.344230 -0.584439
O9    O     O_3   0.468965 0.943353 0.245181 -0.539211
C19   C     C_3   0.380514 0.933023 0.202009 -0.258413
H16   H     H_    0.355960 0.050716 0.201777 0.136782
H17   H     H_    0.346695 0.876902 0.298952 0.140961
H18   H     H_    0.366404 0.857679 0.060879 0.188756

loop_
_geom_bond_atom_site_label_1
_geom_bond_atom_site_label_2
_ccdc_geom_bond_type
Cu1   Cu2   S    
C15   C18   S    
C15   H9    S    
Cu1   O1    S    
C16   H12   S    
C9    C10   D    
C14   C18   S    
C19   H16   S    
Cu1   O5    S    
C13   C17   S    
C3    C6    S    
C5    H14   S    
C14   H2    S    
C2    H1    S    
C2    C3    S    
C4    H15   S    
C9    O9    S    
C19   H17   S    
C7    C18   S    
C16   H11   S    
C13   O8    A    
C10   C12   S    
C1    O1    A    
H7    N2    S    
C8    C11   S    
Cu2   O4    S    
C10   H5    S    
H6    N1    S    
N1    N2    D    
C11   O4    A    
C19   H18   S    
C11   O3    A    
C4    H4    S    
Cu1   O3    S    
C1    O2    A    
C15   C16   S    
Cu2   N1    S    
C7    C8    T    
Cu2   O6    S    
C1    C9    S    
Cu1   O7    S    
C15   H10   S    
Cu2   O8    S    
C2    C14   S    
C2    H3    S    
C6    C17   T    
Cu2   O2    S    
O9    C19   S    
C12   O5    A    
C5    C18   S    
Cu1   N2    S    
C14   H8    S    
C12   O6    A    
C13   O7    A    
C3    C16   S    
C3    C4    S    
C4    C5    S    
C5    H13   S    
