data_mof_unit_27467.cif
_audit_creation_date              2012-12-11T15:43:49-0500
_audit_creation_method            fapswitch 2.2
_symmetry_space_group_name_H-M    P1
_symmetry_Int_Tables_number       1
_space_group_crystal_system       triclinic
_cell_length_a                    14.393805
_cell_length_b                    16.376514
_cell_length_c                    6.918519
_cell_angle_alpha                 90.00286
_cell_angle_beta                  98.510069
_cell_angle_gamma                 90.081284
_cell_volume                      1612.87832598

loop_
_atom_site_label
_atom_site_type_symbol
_atom_type_description
_atom_site_fract_x
_atom_site_fract_y
_atom_site_fract_z
_atom_type_partial_charge
O1    O     O_R   0.831700 0.662810 0.581550 -0.543094
O2    O     O_R   0.168300 0.337190 0.418450 -0.541179
O3    O     O_R   0.168300 0.162810 0.418450 -0.539333
O4    O     O_R   0.831700 0.837190 0.581550 -0.533758
O5    O     O_R   0.842890 0.834390 0.255500 -0.519614
O6    O     O_R   0.157110 0.165610 0.744500 -0.537514
O7    O     O_R   0.157110 0.334390 0.744500 -0.516885
O8    O     O_R   0.842890 0.665610 0.255500 -0.517648
O9    O     O_R   0.661690 0.835580 0.024130 -0.548553
O10   O     O_R   0.338310 0.164420 0.975870 -0.540075
O11   O     O_R   0.338310 0.335580 0.975870 -0.537341
O12   O     O_R   0.661690 0.664420 0.024130 -0.537515
C1    C     C_R   0.866039 0.864070 0.430296 0.681769
C2    C     C_R   0.134134 0.135848 0.569744 0.722032
C3    C     C_R   0.134757 0.364784 0.570749 0.730460
C4    C     C_R   0.865029 0.635054 0.429231 0.725655
C5    C     C_R   0.066752 0.065110 0.540418 -0.167042
C6    C     C_R   0.933489 0.934823 0.459381 -0.176096
C7    C     C_R   0.931877 0.563712 0.456527 -0.179192
C8    C     C_R   0.067736 0.435989 0.543680 -0.178097
C9    C     C_R   0.018737 0.934362 0.379301 -0.054460
C10   C     C_R   0.981073 0.066083 0.618241 -0.147430
C11   C     C_R   0.988420 0.440751 0.644011 -0.077586
C12   C     C_R   0.011100 0.558843 0.356210 -0.059779
O13   O     O_3   0.687240 0.750000 0.366320 -0.382952
O14   O     O_3   0.312760 0.250000 0.633680 -0.379790
V1    V     V_3+5 0.757720 0.750000 0.115230 1.554957
V2    V     V_3+5 0.242280 0.250000 0.884770 1.557263
O15   O     O_R   0.650500 0.664000 0.690740 -0.547344
O16   O     O_R   0.349500 0.336000 0.309260 -0.546270
O17   O     O_R   0.349500 0.164000 0.309260 -0.546246
O18   O     O_R   0.650500 0.836000 0.690740 -0.538771
C13   C     C_R   0.628048 0.636209 0.853719 0.772714
C14   C     C_R   0.371945 0.363796 0.146282 0.776305
C15   C     C_R   0.371841 0.136134 0.146226 0.764240
C16   C     C_R   0.628475 0.864102 0.853775 0.782628
C17   C     C_R   0.085747 0.998077 0.422908 -0.046225
C18   C     C_R   0.914897 0.001670 0.578145 -0.104847
C19   C     C_R   0.919318 0.502225 0.594777 -0.051628
C20   C     C_R   0.080225 0.497462 0.405401 -0.051118
V3    V     V_3+5 0.735670 0.750000 0.607790 1.510739
V4    V     V_3+5 0.264330 0.250000 0.392210 1.509884
O19   O     O_3   0.806150 0.750000 0.906560 -0.354991
O20   O     O_3   0.193850 0.250000 0.093440 -0.357623
H1    H     H_    0.434924 0.055667 0.849979 0.161348
H2    H     H_    0.565519 0.944713 0.149816 0.154782
H3    H     H_    0.566541 0.554658 0.149889 0.160481
H4    H     H_    0.433461 0.445343 0.850119 0.160416
C21   C     C_2   0.559638 0.931842 0.844118 -0.268977
C22   C     C_2   0.441268 0.068846 0.155727 -0.313335
C23   C     C_2   0.441586 0.430984 0.155888 -0.327382
C24   C     C_2   0.558395 0.569031 0.844119 -0.327758
C25   C     C_2   0.534813 0.966419 0.006023 -0.114414
C26   C     C_2   0.465964 0.034208 0.993773 -0.076480
C27   C     C_2   0.465411 0.466209 0.993892 -0.085727
C28   C     C_2   0.534579 0.533801 0.006117 -0.085306
H5    H     H_    0.472359 0.046757 0.298894 0.131823
H6    H     H_    0.529078 0.954266 0.700892 0.137768
H7    H     H_    0.526536 0.547444 0.700929 0.126830
H8    H     H_    0.473426 0.452583 0.299080 0.127145
C29   C     C_2   0.042694 0.864205 0.261988 0.823796
O21   O     O_2   0.108131 0.820006 0.327214 -0.515287
O22   O     O_R   0.994956 0.852208 0.073056 -0.632692
H9    H     H_    0.020356 0.804266 0.004639 0.304787
C30   C     C_2   0.954605 0.138816 0.724554 0.864021
O23   O     O_2   0.894346 0.184446 0.642934 -0.492161
O24   O     O_R   0.993459 0.153778 0.918636 -0.620469
H10   H     H_    0.038163 0.109130 0.974972 0.282512
C31   C     C_2   0.974953 0.381100 0.798879 0.865176
O25   O     O_2   0.906310 0.336345 0.777446 -0.503235
O26   O     O_R   0.036264 0.380978 0.975392 -0.622725
H11   H     H_    0.017705 0.339657 0.071952 0.312240
C32   C     C_2   0.024300 0.618193 0.200863 0.829174
O27   O     O_2   0.092103 0.663888 0.222979 -0.525647
O28   O     O_R   0.963784 0.616890 0.023328 -0.623053
H12   H     H_    0.982672 0.657333 0.925243 0.287936
C33   C     C_2   0.178244 0.992790 0.351695 0.793309
O29   O     O_2   0.181912 0.981259 0.178328 -0.554451
O30   O     O_R   0.260981 0.000812 0.484465 -0.659060
H13   H     H_    0.319411 0.994268 0.420344 0.285660
C34   C     C_2   0.824008 0.006006 0.657253 0.852950
O31   O     O_2   0.824328 0.013256 0.833017 -0.521863
O32   O     O_R   0.737944 0.002096 0.533682 -0.647821
H14   H     H_    0.745229 0.000271 0.390305 0.256875
C35   C     C_2   0.829254 0.498367 0.676343 0.842369
O33   O     O_2   0.829265 0.495131 0.852958 -0.527629
O34   O     O_R   0.744352 0.497895 0.548628 -0.661805
H15   H     H_    0.687913 0.492137 0.619354 0.285178
C36   C     C_2   0.170199 0.501409 0.323486 0.839953
O35   O     O_2   0.170023 0.504463 0.146799 -0.528719
O36   O     O_R   0.255186 0.502140 0.450921 -0.663421
H16   H     H_    0.311537 0.507879 0.379922 0.284236

loop_
_geom_bond_atom_site_label_1
_geom_bond_atom_site_label_2
_ccdc_geom_bond_type
H4    C27   S    
O34   H15   S    
O3    V4    S    
O17   V4    S    
C6    C9    A    
C32   O28   S    
C32   O27   D    
C11   C31   S    
C27   C28   S    
C34   O31   D    
C25   C26   S    
C13   C24   S    
O9    V1    S    
C14   C23   S    
C22   C26   D    
C1    C6    S    
O18   C16   A    
C35   O33   D    
C8    C20   A    
C11   C19   A    
C12   C32   S    
O4    V3    S    
C10   C18   A    
O15   C13   A    
C29   O22   S    
O4    C1    A    
C31   O26   S    
O5    V1    S    
O6    V2    S    
C30   O24   S    
O9    C16   A    
O18   V3    S    
O10   C15   A    
C20   C36   S    
C36   O36   S    
C9    C29   S    
O7    C3    A    
O8    C4    A    
V3    O19   S    
C2    C5    S    
C29   O21   D    
V4    O20   S    
C34   O32   S    
C33   O30   S    
C3    C8    S    
O16   C14   A    
C35   O34   S    
O24   H10   S    
O13   V3    S    
O36   H16   S    
O12   V1    S    
C33   O29   D    
C17   C33   S    
V2    O20   S    
O7    V2    S    
O22   H9    S    
O28   H12   S    
C10   C30   S    
C24   H7    S    
O6    C2    A    
O32   H14   S    
C8    C11   A    
C15   C22   S    
O1    C4    A    
C5    C17   A    
O2    C3    A    
O3    C2    A    
C7    C19   A    
O1    V3    S    
H1    C26   S    
C18   C34   S    
O17   C15   A    
C19   C35   S    
C36   O35   D    
O14   V4    S    
O10   V2    S    
O15   V3    S    
C22   H5    S    
O5    C1    A    
O11   C14   A    
O13   V1    S    
O14   V2    S    
C5    C10   A    
C7    C12   A    
C6    C18   A    
O26   H11   S    
O11   V2    S    
O2    V4    S    
C4    C7    S    
C21   C25   D    
H2    C25   S    
C12   C20   A    
C23   C27   D    
C31   O25   D    
C21   H6    S    
O30   H13   S    
V1    O19   S    
C9    C17   A    
C30   O23   D    
O8    V1    S    
O16   V4    S    
C23   H8    S    
O12   C13   A    
C16   C21   S    
C24   C28   D    
H3    C28   S    
