data_mof_unit_38349.cif
_audit_creation_date              2012-10-26T19:25:52-0400
_audit_creation_method            fapswitch 2.2
_symmetry_space_group_name_H-M    P1
_symmetry_Int_Tables_number       1
_space_group_crystal_system       triclinic
_cell_length_a                    15.043509
_cell_length_b                    13.708407
_cell_length_c                    11.706481
_cell_angle_alpha                 90.091895
_cell_angle_beta                  89.803538
_cell_angle_gamma                 89.52521
_cell_volume                      2414.03999906

loop_
_atom_site_label
_atom_site_type_symbol
_atom_type_description
_atom_site_fract_x
_atom_site_fract_y
_atom_site_fract_z
_atom_type_partial_charge
C1    C     C_R   0.329010 0.500547 0.501946 0.592597
C2    C     C_R   0.557785 0.206596 0.431108 0.032605
C3    C     C_R   0.558133 0.792299 0.431551 0.034635
C4    C     C_R   0.442207 0.207682 0.568815 0.039006
C5    C     C_R   0.560736 0.895630 0.430008 -0.036972
C6    C     C_R   0.440268 0.104384 0.571050 -0.025726
C7    C     C_R   0.440935 0.896962 0.571232 -0.010573
C8    C     C_R   0.559463 0.103304 0.428381 -0.035744
C9    C     C_R   0.500621 0.948297 0.500397 -0.027883
C10   C     C_R   0.500147 0.051904 0.499984 -0.021956
C11   C     C_R   0.620645 0.947352 0.359067 0.159259
C12   C     C_R   0.670950 0.499355 0.500192 0.629555
C13   C     C_R   0.379986 0.052564 0.641619 0.137435
C14   C     C_R   0.381184 0.949188 0.642537 0.158675
C15   C     C_R   0.619519 0.050404 0.357544 0.158007
C16   C     C_R   0.500715 0.499896 0.283836 0.574456
C17   C     C_R   0.499467 0.500126 0.716164 0.553293
C18   C     C_1   0.500940 0.499702 0.162227 -0.029270
C19   C     C_1   0.499245 0.500457 0.837765 -0.033124
C20   C     C_1   0.500497 0.499952 0.059827 -0.056461
C21   C     C_1   0.499669 0.500351 0.940164 -0.055626
C22   C     C_R   0.812901 0.500773 0.394831 0.077731
C23   C     C_R   0.907201 0.494711 0.393937 0.031522
C24   C     C_R   0.186831 0.499303 0.609784 0.079827
C25   C     C_R   0.767249 0.496756 0.499209 0.019451
C26   C     C_R   0.232624 0.502373 0.504732 -0.002995
C27   C     C_R   0.812018 0.483595 0.602293 0.210094
C28   C     C_R   0.187343 0.511096 0.401372 0.220135
C29   C     C_R   0.904911 0.490282 0.604126 -0.031109
C30   C     C_R   0.094668 0.502634 0.400150 -0.033645
C31   C     C_R   0.952926 0.495221 0.500592 -0.064436
C32   C     C_R   0.046736 0.498968 0.503965 -0.069253
C33   C     C_3   0.756233 0.608781 0.247097 -0.265188
C34   C     C_R   0.092466 0.499738 0.610593 0.051270
C35   C     C_3   0.263986 0.588404 0.757376 -0.264608
C36   C     C_3   0.763345 0.367566 0.725463 -0.013452
C37   C     C_3   0.702605 0.347846 0.826784 -0.366117
C38   C     C_3   0.232970 0.625305 0.274016 -0.009263
C39   C     C_3   0.295694 0.645071 0.174662 -0.369306
C40   C     C_3   0.044492 0.564631 0.898280 -0.013522
C41   C     C_3   0.109972 0.591058 0.991687 -0.366397
C42   C     C_3   0.940124 0.383270 0.140697 -0.024506
C43   C     C_3   0.874734 0.356410 0.047121 -0.383226
C44   C     C_3   0.652660 0.873184 0.175975 -0.298869
C45   C     C_R   0.949721 0.492236 0.708393 -0.128180
C46   C     C_3   0.237004 0.132607 0.662169 -0.316794
C47   C     C_3   0.360727 0.871567 0.825583 -0.319033
C48   C     C_3   0.764305 0.122574 0.332577 -0.297214
C49   C     C_R   0.049909 0.495483 0.296133 -0.115126
C50   C     C_R   0.042562 0.499978 0.713989 0.274775
C51   C     C_R   0.957532 0.487824 0.291600 0.254753
C52   C     C_R   0.442124 0.793759 0.568457 0.045437
Cu1   Cu    Cu3+1 0.500000 0.597420 0.500000 0.938270
Cu2   Cu    Cu3+1 0.500000 0.402580 0.500000 0.943085
H1    H     H_    0.911817 0.487821 0.786674 0.139237
H2    H     H_    0.707336 0.610559 0.176290 0.134426
H3    H     H_    0.286523 0.443514 0.713692 0.242127
H4    H     H_    0.290243 0.579143 0.845229 0.136903
H5    H     H_    0.207335 0.640879 0.759682 0.165007
H6    H     H_    0.317454 0.618897 0.703423 0.139431
H7    H     H_    0.831239 0.341101 0.747655 0.119189
H8    H     H_    0.738688 0.324611 0.651241 0.142800
H9    H     H_    0.632323 0.358032 0.801384 0.173992
H10   H     H_    0.711916 0.271479 0.856192 0.090546
H11   H     H_    0.717774 0.398258 0.898266 0.160679
H12   H     H_    0.086887 0.493904 0.216849 0.147826
H13   H     H_    0.254308 0.671143 0.347648 0.144914
H14   H     H_    0.164868 0.648345 0.248287 0.118087
H15   H     H_    0.284996 0.591744 0.104722 0.159025
H16   H     H_    0.283977 0.719902 0.141460 0.083764
H17   H     H_    0.365490 0.639574 0.203774 0.172061
H18   H     H_    0.987680 0.528111 0.940453 0.147603
H19   H     H_    0.021321 0.633555 0.857051 0.118992
H20   H     H_    0.161837 0.640260 0.957849 0.125637
H21   H     H_    0.074436 0.629512 0.062053 0.103901
H22   H     H_    0.141911 0.523971 0.025932 0.175678
H23   H     H_    0.396696 0.752452 0.620664 0.146442
H24   H     H_    0.938000 0.324638 0.206721 0.123728
H25   H     H_    0.007732 0.385538 0.102140 0.142205
H26   H     H_    0.871322 0.415122 0.982127 0.157625
H27   H     H_    0.896498 0.287619 0.004845 0.103215
H28   H     H_    0.807495 0.345456 0.084062 0.133409
H29   H     H_    0.717499 0.841125 0.328788 0.225193
H30   H     H_    0.597098 0.820450 0.181106 0.123220
H31   H     H_    0.707748 0.839595 0.125834 0.136237
H32   H     H_    0.629842 0.940053 0.130861 0.175310
H33   H     H_    0.347827 0.156726 0.764435 0.242405
H34   H     H_    0.602712 0.248791 0.379190 0.130155
H35   H     H_    0.249324 0.188630 0.595657 0.143561
H36   H     H_    0.191685 0.164141 0.727811 0.152366
H37   H     H_    0.203770 0.068998 0.622457 0.148113
H38   H     H_    0.259977 0.927716 0.724439 0.272731
H39   H     H_    0.313214 0.825678 0.873984 0.128050
H40   H     H_    0.374589 0.938454 0.876034 0.163744
H41   H     H_    0.423353 0.829177 0.813704 0.148305
H42   H     H_    0.651600 0.155635 0.236429 0.230786
H43   H     H_    0.807977 0.155285 0.266513 0.133521
H44   H     H_    0.797246 0.055458 0.365394 0.173109
H45   H     H_    0.601590 0.749326 0.377606 0.126385
H46   H     H_    0.755571 0.175771 0.403542 0.120388
H47   H     H_    0.397808 0.250731 0.621578 0.129554
H48   H     H_    0.765819 0.455279 0.235032 0.285123
H49   H     H_    0.821922 0.632000 0.213927 0.181075
H50   H     H_    0.733823 0.660832 0.314102 0.135226
N1    N     N_R   0.500000 0.743810 0.500000 -0.251525
N2    N     N_R   0.500000 0.256190 0.500000 -0.245886
N3    N     N_2   0.761509 0.511216 0.293477 -0.502073
N4    N     N_2   0.235931 0.494759 0.713727 -0.450687
N5    N     N_2   0.683969 0.897384 0.289093 -0.500977
N6    N     N_2   0.319519 0.102781 0.715450 -0.530066
N7    N     N_2   0.322580 0.897368 0.716342 -0.535771
N8    N     N_2   0.679297 0.099188 0.282617 -0.499327
O1    O     O_R   0.370260 0.582280 0.500020 -0.516045
O2    O     O_3   0.235125 0.524715 0.301166 -0.562085
O3    O     O_3   0.085736 0.500097 0.819205 -0.529134
O4    O     O_3   0.917007 0.475757 0.186476 -0.580128
O5    O     O_R   0.629740 0.417720 0.499980 -0.512872
O6    O     O_R   0.629740 0.582280 0.499980 -0.492609
O7    O     O_R   0.370260 0.417720 0.500020 -0.500502
O8    O     O_R   0.500010 0.582270 0.337200 -0.508529
O9    O     O_R   0.499990 0.417730 0.662800 -0.513415
O10   O     O_R   0.499990 0.582270 0.662800 -0.499683
O11   O     O_R   0.500010 0.417730 0.337200 -0.486811
O12   O     O_3   0.763645 0.468794 0.701754 -0.565177

loop_
_geom_bond_atom_site_label_1
_geom_bond_atom_site_label_2
_ccdc_geom_bond_type
Cu2   O11   S    
C11   N5    S    
C33   H50   S    
C33   N3    S    
Cu1   O8    S    
H33   N6    S    
Cu1   Cu2   S    
C3    N1    A    
C48   H43   S    
H42   N8    S    
C35   H4    S    
C36   C37   S    
C19   C21   T    
C16   O11   A    
C24   C26   A    
C7    C52   A    
C5    C11   A    
Cu1   O10   S    
C16   O8    A    
C38   C39   S    
C38   O2    S    
C44   H32   S    
C40   O3    S    
C27   C29   A    
C22   N3    S    
C40   H19   S    
C35   H5    S    
C50   O3    S    
C1    O7    A    
C35   N4    S    
C41   H20   S    
C11   C15   A    
C39   H16   S    
C7    C14   A    
C49   C51   A    
C22   C25   A    
C37   H11   S    
H29   N5    S    
C2    H34   S    
C24   N4    S    
C9    C10   A    
C44   N5    S    
C33   H2    S    
C42   H25   S    
C13   C14   A    
C1    O1    A    
C36   H8    S    
C37   H9    S    
Cu1   O1    S    
C47   H39   S    
C14   N7    S    
C48   H46   S    
C34   C50   A    
C49   H12   S    
Cu2   N2    S    
C4    C6    A    
C46   H35   S    
Cu1   O6    S    
C46   H37   S    
C44   H30   S    
C43   H26   S    
C4    N2    A    
C2    N2    A    
C24   C34   A    
C29   C45   A    
C35   H6    S    
C32   C34   A    
C5    C9    A    
C13   N6    S    
C3    H45   S    
C41   H21   S    
C23   C51   A    
C31   C32   A    
C4    H47   S    
C39   H15   S    
H48   N3    S    
C16   C18   S    
C38   H13   S    
C28   O2    S    
C12   O6    A    
C44   H31   S    
C42   O4    S    
C40   C41   S    
C48   N8    S    
Cu2   O9    S    
C38   H14   S    
C52   N1    A    
C42   H24   S    
C8    C15   A    
C46   N6    S    
C1    C26   S    
C43   H27   S    
C42   C43   S    
C52   H23   S    
C37   H10   S    
C17   O9    A    
C7    C9    A    
C39   H17   S    
C40   H18   S    
C36   O12   S    
C33   H49   S    
C15   N8    S    
C30   C49   A    
C2    C8    A    
C3    C5    A    
C6    C10   A    
C27   O12   S    
H38   N7    S    
C46   H36   S    
C25   C27   A    
C48   H44   S    
C26   C28   A    
C51   O4    S    
C12   C25   S    
C28   C30   A    
C29   C31   A    
C41   H22   S    
C30   C32   A    
C45   C50   A    
C47   N7    S    
C17   C19   S    
C47   H40   S    
C18   C20   T    
C12   O5    A    
Cu1   N1    S    
C17   O10   A    
H3    N4    S    
C20   C21   S    
C45   H1    S    
C8    C10   A    
Cu2   O5    S    
C43   H28   S    
C47   H41   S    
C22   C23   A    
Cu2   O7    S    
C36   H7    S    
C23   C31   A    
C6    C13   A    
