data_mof_unit_26904.cif
_audit_creation_date              2012-12-10T17:34:58-0500
_audit_creation_method            fapswitch 2.2
_symmetry_space_group_name_H-M    P1
_symmetry_Int_Tables_number       1
_space_group_crystal_system       triclinic
_cell_length_a                    12.522105
_cell_length_b                    13.219319
_cell_length_c                    13.828324
_cell_angle_alpha                 108.688657
_cell_angle_beta                  73.342875
_cell_angle_gamma                 117.681966
_cell_volume                      1894.0894507

loop_
_atom_site_label
_atom_site_type_symbol
_atom_type_description
_atom_site_fract_x
_atom_site_fract_y
_atom_site_fract_z
_atom_type_partial_charge
C1    C     C_R   0.143972 0.713409 0.505124 0.876912
C2    C     C_1   0.973059 0.508236 0.793015 -0.166025
C3    C     C_R   0.731142 0.964175 0.362452 -0.184444
C4    C     C_R   0.774483 0.160694 0.465707 -0.045115
C5    C     C_R   0.181381 0.925602 0.556857 0.476628
C6    C     C_R   0.263420 0.042435 0.578327 -0.217118
C7    C     C_R   0.388128 0.073823 0.548949 -0.276430
C8    C     C_R   0.435028 0.989312 0.491181 0.030878
C9    C     C_R   0.351265 0.872531 0.456809 0.017798
C10   C     C_R   0.562661 0.018420 0.463451 0.084961
C11   C     C_R   0.605163 0.935347 0.392516 0.131000
C12   C     C_R   0.983531 0.504828 0.686646 0.855178
C13   C     C_R   0.521970 0.826918 0.347805 -0.299219
C14   C     C_R   0.396303 0.796328 0.376176 0.175143
C15   C     C_R   0.649791 0.128559 0.503378 -0.257474
C16   C     C_R   0.815534 0.076938 0.397812 -0.207100
C17   C     C_R   0.225333 0.837967 0.502346 -0.233113
C18   C     C_R   0.626455 0.649729 0.687885 -0.347511
C19   C     C_R   0.253568 0.346354 0.360292 0.343195
C20   C     C_R   0.329858 0.293198 0.350239 -0.229489
C21   C     C_R   0.415828 0.341669 0.414108 -0.174573
C22   C     C_R   0.437352 0.450578 0.481833 -0.027613
C23   C     C_R   0.856252 0.285552 0.485871 0.745872
C24   C     C_R   0.342998 0.492386 0.505834 0.131099
C25   C     C_R   0.541598 0.511120 0.534912 -0.105999
C26   C     C_R   0.532219 0.590340 0.629378 0.008984
C27   C     C_R   0.431915 0.617138 0.663111 -0.313817
C28   C     C_R   0.348928 0.585727 0.597464 0.505626
C29   C     C_R   0.656668 0.501002 0.497185 0.588809
C30   C     C_R   0.734829 0.635665 0.650624 0.305930
C31   C     C_R   0.016671 0.495467 0.313387 0.783682
C32   C     C_1   0.028048 0.493281 0.207183 -0.154027
C33   C     C_2   0.042191 0.491141 0.012781 -0.164921
C34   C     C_2   0.960402 0.512279 0.987640 -0.157853
C35   C     C_1   0.966225 0.510497 0.882061 0.000390
C36   C     C_1   0.035714 0.492041 0.118253 0.001669
Cu1   Cu    Cu3+1 0.899780 0.525060 0.522890 0.988092
Cu2   Cu    Cu3+1 0.100220 0.474940 0.477110 0.961130
H1    H     H_    0.888528 0.530548 0.046059 0.161751
H2    H     H_    0.424782 0.673196 0.739100 0.157339
H3    H     H_    0.617908 0.710393 0.761120 0.149080
H4    H     H_    0.456831 0.287698 0.415875 0.145075
H5    H     H_    0.321874 0.212983 0.292685 0.154918
H6    H     H_    0.114015 0.472776 0.954364 0.157085
H7    H     H_    0.911920 0.099875 0.368357 0.147182
H8    H     H_    0.554529 0.766616 0.287640 0.145355
H9    H     H_    0.764222 0.901095 0.307902 0.136515
H10   H     H_    0.623203 0.192933 0.562128 0.145492
H11   H     H_    0.445056 0.166005 0.569379 0.146571
H12   H     H_    0.230100 0.109260 0.621676 0.160083
N1    N     N_R   0.748810 0.563010 0.557590 -0.208532
N2    N     N_R   0.250540 0.437620 0.443020 -0.209926
O1    O     O_R   0.025040 0.682470 0.528790 -0.516109
O2    O     O_R   0.194310 0.640150 0.490130 -0.510412
O3    O     O_R   0.903380 0.524130 0.659910 -0.564086
O4    O     O_R   0.072660 0.481800 0.621240 -0.518342
O5    O     O_R   0.805690 0.359850 0.509870 -0.600939
O6    O     O_R   0.974960 0.317530 0.471210 -0.598900
O7    O     O_R   0.927340 0.518200 0.378760 -0.536881
O8    O     O_R   0.096620 0.475870 0.340090 -0.602303
N3    N     N_3   0.316454 0.695004 0.313494 -0.578268
H13   H     H_    0.334164 0.623613 0.309231 0.240847
H14   H     H_    0.338894 0.708860 0.238555 0.203782
N4    N     N_3   0.832650 0.699797 0.709339 -0.487875
H15   H     H_    0.801024 0.677370 0.781473 0.191382
H16   H     H_    0.853939 0.788953 0.722239 0.226903
O9    O     O_3   0.687452 0.459667 0.391639 -0.570219
C37   C     C_3   0.675059 0.342542 0.367127 -0.216495
H17   H     H_    0.628054 0.296839 0.432274 0.123552
H18   H     H_    0.764267 0.337138 0.336138 0.182983
H19   H     H_    0.623133 0.292411 0.301789 0.144884
N5    N     N_3   0.181006 0.302251 0.280846 -0.616163
H20   H     H_    0.211123 0.366319 0.238862 0.231829
H21   H     H_    0.088628 0.276037 0.311179 0.250101
O10   O     O_3   0.269299 0.639948 0.629340 -0.534963
C38   C     C_3   0.326127 0.762338 0.670018 -0.312622
H22   H     H_    0.417054 0.804703 0.623582 0.162823
H23   H     H_    0.332306 0.781182 0.752863 0.150558
H24   H     H_    0.267250 0.803498 0.669102 0.174914
O11   O     O_3   0.059112 0.897352 0.597333 -0.573456
C39   C     C_3   0.005095 0.912381 0.529358 -0.285989
H25   H     H_    0.014894 0.856323 0.450604 0.164803
H26   H     H_    0.044030 0.005860 0.525073 0.150261
H27   H     H_    0.905854 0.885129 0.559450 0.185275

loop_
_geom_bond_atom_site_label_1
_geom_bond_atom_site_label_2
_ccdc_geom_bond_type
C2    C35   T    
C24   N2    A    
C23   O6    A    
C30   N1    A    
C30   N4    S    
C19   C20   A    
C18   C26   A    
C38   H24   S    
C9    C14   A    
C2    C12   S    
C39   H27   S    
C39   H25   S    
C7    C8    A    
C26   C27   A    
C32   C36   T    
C38   H23   S    
C10   C15   A    
C5    C6    A    
Cu1   N1    S    
C5    C17   A    
C33   C36   S    
C34   C35   S    
C31   O7    A    
N3    H14   S    
C1    O1    A    
C29   O9    S    
C19   N2    A    
C37   H17   S    
C22   C25   A    
C18   C30   A    
Cu1   O1    S    
Cu2   O6    S    
C13   C14   A    
C19   N5    S    
C15   H10   S    
C39   H26   S    
C25   C29   A    
C34   H1    S    
C38   H22   S    
C7    H11   S    
N5    H21   S    
C18   H3    S    
C4    C23   S    
N5    H20   S    
C25   C26   A    
C14   N3    S    
O9    C37   S    
N4    H16   S    
C31   O8    A    
C4    C16   A    
O10   C38   S    
Cu1   Cu2   S    
C31   C32   S    
Cu2   O2    S    
C27   H2    S    
C33   C34   D    
C8    C9    A    
Cu2   O4    S    
C12   O4    A    
C6    H12   S    
C5    O11   S    
Cu1   O7    S    
C1    O2    A    
Cu2   O8    S    
C9    C17   A    
C22   C24   A    
C20   H5    S    
C29   N1    A    
C23   O5    A    
C33   H6    S    
C24   C28   A    
O11   C39   S    
C16   H7    S    
C6    C7    A    
C1    C17   S    
N4    H15   S    
C4    C15   A    
C11   C13   A    
C13   H8    S    
C37   H19   S    
C3    H9    S    
N3    H13   S    
C12   O3    A    
C3    C11   A    
C10   C11   A    
C21   H4    S    
Cu1   O3    S    
Cu2   N2    S    
C20   C21   A    
C8    C10   A    
C27   C28   A    
C37   H18   S    
C21   C22   A    
C28   O10   S    
Cu1   O5    S    
C3    C16   A    
