data_mof_unit_33762.cif
_audit_creation_date              2012-10-26T19:20:34-0400
_audit_creation_method            fapswitch 2.2
_symmetry_space_group_name_H-M    P1
_symmetry_Int_Tables_number       1
_space_group_crystal_system       triclinic
_cell_length_a                    10.761825
_cell_length_b                    11.017074
_cell_length_c                    9.918307
_cell_angle_alpha                 111.264732
_cell_angle_beta                  98.317266
_cell_angle_gamma                 91.507236
_cell_volume                      1080.39775503

loop_
_atom_site_label
_atom_site_type_symbol
_atom_type_description
_atom_site_fract_x
_atom_site_fract_y
_atom_site_fract_z
_atom_type_partial_charge
C1    C     C_R   0.490262 0.254190 0.440565 0.527367
C2    C     C_R   0.736693 0.499814 0.499073 0.521787
C3    C     C_R   0.142480 0.737416 0.551809 -0.095462
C4    C     C_R   0.857624 0.262895 0.449782 -0.106542
C5    C     C_R   0.083824 0.852885 0.574835 -0.123488
C6    C     C_R   0.916345 0.147531 0.427353 -0.126624
C7    C     C_R   0.954243 0.852273 0.571617 -0.121461
C8    C     C_R   0.045899 0.148089 0.430338 -0.121138
C9    C     C_R   0.882872 0.736220 0.545544 -0.085693
C10   C     C_R   0.117193 0.263999 0.455653 -0.083571
C11   C     C_R   0.940675 0.617832 0.522561 0.008620
C12   C     C_R   0.509268 0.745841 0.559486 0.532676
C13   C     C_R   0.059347 0.382304 0.478161 0.010937
C14   C     C_R   0.071891 0.618402 0.525552 0.005372
C15   C     C_R   0.928144 0.381760 0.475283 0.001624
C16   C     C_R   0.870343 0.499512 0.497443 -0.016099
C17   C     C_R   0.129644 0.500547 0.502859 -0.010365
C18   C     C_3   0.752944 0.486126 0.934064 -0.248250
C19   C     C_3   0.478699 0.231264 0.982148 -0.264964
C20   C     C_2   0.484084 0.114382 0.407369 -0.146455
C21   C     C_2   0.514049 0.885711 0.592941 -0.144777
C22   C     C_2   0.500136 0.069797 0.516398 -0.167446
C23   C     C_2   0.494270 0.930432 0.484223 -0.163215
C24   C     C_2   0.496480 0.525735 0.085947 0.392709
C25   C     C_2   0.474195 0.508198 0.923593 0.389186
C26   C     C_R   0.263291 0.500192 0.500968 0.524998
Cu1   Cu    Cu3+1 0.521920 0.521810 0.644910 0.983193
Cu2   Cu    Cu3+1 0.478080 0.478190 0.355090 0.987716
H1    H     H_    0.091360 0.058372 0.412561 0.114073
H2    H     H_    0.518264 0.136301 0.630530 0.161806
H3    H     H_    0.534010 0.952476 0.706854 0.093007
H4    H     H_    0.466348 0.047563 0.293407 0.098833
H5    H     H_    0.297243 0.455746 0.901980 0.311699
H6    H     H_    0.567821 0.703837 0.144364 0.301258
H7    H     H_    0.720547 0.658949 0.903020 0.270983
H8    H     H_    0.715750 0.429890 0.994491 0.142055
H9    H     H_    0.850930 0.525445 0.988594 0.132430
H10   H     H_    0.754602 0.419525 0.819443 0.162862
H11   H     H_    0.324302 0.287711 0.084293 0.271272
H12   H     H_    0.908828 0.942063 0.589851 0.111723
H13   H     H_    0.426665 0.136423 0.909057 0.119349
H14   H     H_    0.541840 0.216045 0.072564 0.159331
H15   H     H_    0.536344 0.265056 0.916448 0.134739
H16   H     H_    0.243399 0.742622 0.555537 0.119930
H17   H     H_    0.756728 0.257738 0.446303 0.118508
H18   H     H_    0.139261 0.943149 0.595626 0.115768
H19   H     H_    0.860980 0.057386 0.407204 0.116103
H20   H     H_    0.782394 0.740429 0.543954 0.131641
H21   H     H_    0.217658 0.259769 0.457163 0.130606
H22   H     H_    0.473847 0.864028 0.370183 0.174710
N1    N     N_2   0.445130 0.445420 0.137360 -0.125526
N2    N     N_2   0.554870 0.554580 0.862640 -0.130133
N3    N     N_2   0.676736 0.593279 0.936802 -0.443658
N4    N     N_2   0.389706 0.325183 0.040204 -0.442548
O1    O     O_R   0.511700 0.332340 0.577400 -0.474724
O2    O     O_3   0.569636 0.634440 0.185889 -0.666842
O3    O     O_R   0.488300 0.667660 0.422600 -0.446172
O4    O     O_R   0.474680 0.295500 0.332650 -0.517328
O5    O     O_R   0.525320 0.704500 0.667350 -0.510805
O6    O     O_R   0.338170 0.518410 0.622370 -0.437976
O7    O     O_R   0.661830 0.481590 0.377630 -0.463470
O8    O     O_R   0.301150 0.481570 0.377630 -0.512625
O9    O     O_R   0.698850 0.518430 0.622370 -0.520716
O10   O     O_3   0.361437 0.446604 0.837492 -0.660798

loop_
_geom_bond_atom_site_label_1
_geom_bond_atom_site_label_2
_ccdc_geom_bond_type
C7    H12   S    
C19   H14   S    
C1    O4    A    
H6    O2    S    
Cu2   O4    S    
C24   O2    S    
C2    C16   S    
C5    H18   S    
C2    O7    A    
C13   C17   A    
C9    C11   A    
N1    N4    S    
Cu2   O7    S    
C26   O6    A    
C24   N1    D    
C13   C15   A    
Cu1   O6    S    
C18   H10   S    
C25   N2    D    
C20   H4    S    
Cu1   O5    S    
Cu2   O3    S    
C24   C25   S    
C21   H3    S    
C14   C17   A    
C12   O3    A    
C10   H21   S    
C3    C14   A    
Cu1   O9    S    
C4    C15   A    
H5    O10   S    
C17   C26   S    
C19   N4    S    
C4    C6    A    
C11   C14   A    
C18   H9    S    
C20   C22   D    
C26   O8    A    
C4    H17   S    
C21   C23   D    
C1    O1    A    
Cu1   N2    S    
Cu2   N1    S    
Cu1   O1    S    
C3    H16   S    
H11   N4    S    
H7    N3    S    
C6    H19   S    
C8    H1    S    
C15   C16   A    
C7    C9    A    
N2    N3    S    
C9    H20   S    
C8    C10   A    
C11   C16   A    
Cu1   Cu2   S    
C5    C7    A    
C2    O9    A    
C1    C20   S    
C6    C8    A    
C22   H2    S    
C18   N3    S    
C3    C5    A    
C22   C23   S    
C12   O5    A    
C18   H8    S    
C12   C21   S    
C10   C13   A    
C19   H13   S    
C19   H15   S    
C23   H22   S    
C25   O10   S    
Cu2   O8    S    
