data_mof_unit_53194.cif
_audit_creation_date              2013-03-05T15:46:12-0500
_audit_creation_method            fapswitch 2.2
_symmetry_space_group_name_H-M    P1
_symmetry_Int_Tables_number       1
_space_group_crystal_system       triclinic
_cell_length_a                    10.532703
_cell_length_b                    10.715345
_cell_length_c                    17.133529
_cell_angle_alpha                 80.453443
_cell_angle_beta                  89.925798
_cell_angle_gamma                 119.483957
_cell_volume                      1652.21345443

loop_
_atom_site_label
_atom_site_type_symbol
_atom_site_description
_atom_site_fract_x
_atom_site_fract_y
_atom_site_fract_z
_atom_type_partial_charge
O1    O     O_R   0.521780 0.757110 0.108900 -0.509006
O2    O     O_R   0.275160 0.783810 0.101120 -0.477878
C1    C     C_R   0.223260 0.854771 0.128784 0.552652
O3    O     O_R   0.237900 0.972600 0.090980 -0.508198
O4    O     O_R   0.511190 0.220540 0.061620 -0.510000
C2    C     C_R   0.611418 0.210442 0.102173 0.545094
O5    O     O_R   0.736920 0.257720 0.063840 -0.441213
O6    O     O_R   0.710450 0.984050 0.081720 -0.486097
C3    C     C_R   0.641038 0.858324 0.125234 0.539843
O7    O     O_R   0.524090 0.765520 0.933110 -0.523421
O8    O     O_R   0.277300 0.791600 0.938160 -0.493035
C4    C     C_R   0.225457 0.864585 0.898683 0.551775
O9    O     O_R   0.240210 0.981010 0.915190 -0.483593
O10   O     O_R   0.513330 0.228330 0.898660 -0.487702
C5    C     C_R   0.637445 0.284677 0.860874 0.549903
O11   O     O_R   0.739230 0.266130 0.888050 -0.482146
O12   O     O_R   0.712580 0.991850 0.918770 -0.446554
C6    C     C_R   0.649226 0.865749 0.900196 0.558439
Cr1   Cr    Cr6+3 0.402240 0.783890 0.019450 1.074545
Cr2   Cr    Cr6+3 0.382360 0.097900 0.991800 1.080541
Cr3   Cr    Cr6+3 0.715380 0.118170 0.988700 1.136748
O13   O     O_3   0.499990 0.999980 0.999980 -0.315900
C7    C     C_R   0.508642 0.258144 0.217163 -0.159439
H1    H     H_    0.420034 0.254992 0.183955 0.170924
C8    C     C_R   0.519744 0.294984 0.292036 -0.140386
H2    H     H_    0.444605 0.325926 0.313748 0.156635
C9    C     C_R   0.634098 0.301337 0.335510 -0.021276
C10   C     C_R   0.727680 0.257256 0.307028 -0.104424
H3    H     H_    0.815016 0.258161 0.340788 0.176720
C11   C     C_R   0.728939 0.237518 0.229607 0.184802
C12   C     C_R   0.617685 0.237652 0.183342 -0.008686
C13   C     C_1   0.669085 0.847591 0.205291 0.012124
C14   C     C_1   0.679752 0.837139 0.274759 0.020573
C15   C     C_1   0.181080 0.826235 0.211280 -0.017715
C16   C     C_1   0.151538 0.820014 0.279825 -0.021442
C17   C     C_1   0.643913 0.323234 0.778074 0.003925
C18   C     C_1   0.651099 0.345054 0.707533 0.007101
C19   C     C_R   0.600810 0.711348 0.803918 -0.151463
H4    H     H_    0.530495 0.616347 0.848969 0.187009
C20   C     C_R   0.571652 0.704329 0.726031 0.183530
C21   C     C_R   0.663852 0.825094 0.665703 -0.035208
C22   C     C_R   0.774136 0.954291 0.686504 -0.153386
H5    H     H_    0.850203 0.044313 0.640705 0.176839
C23   C     C_R   0.791129 0.966203 0.766149 0.181066
C24   C     C_R   0.695319 0.845563 0.825197 -0.029959
C25   C     C_R   0.246431 0.968896 0.758974 -0.104751
H6    H     H_    0.299663 0.077627 0.772670 0.178138
C26   C     C_R   0.231992 0.956010 0.680593 -0.128886
H7    H     H_    0.267609 0.053793 0.635706 0.149821
C27   C     C_R   0.161218 0.817401 0.661245 0.027949
C28   C     C_R   0.118101 0.692088 0.720208 -0.081141
H8    H     H_    0.062562 0.583676 0.706166 0.191786
C29   C     C_R   0.135688 0.705442 0.799140 -0.118630
H9    H     H_    0.100630 0.608799 0.844753 0.158650
C30   C     C_R   0.194143 0.843514 0.818707 0.024320
O14   O     O_R   0.083770 0.911170 0.376030 -0.495443
O15   O     O_R   0.808770 0.880340 0.383890 -0.470999
C31   C     C_R   0.686392 0.809229 0.357079 0.552557
O16   O     O_R   0.584340 0.689460 0.394160 -0.518297
O17   O     O_R   0.614320 0.443940 0.423590 -0.503075
C32   C     C_R   0.680980 0.382238 0.400270 0.543408
O18   O     O_R   0.805020 0.410040 0.421340 -0.520050
O19   O     O_R   0.049240 0.685450 0.403290 -0.490598
C33   C     C_R   0.103660 0.810283 0.359195 0.549434
O20   O     O_R   0.077520 0.903010 0.551800 -0.518280
O21   O     O_R   0.802980 0.872780 0.546830 -0.515536
C34   C     C_R   0.676778 0.800024 0.585908 0.549869
O22   O     O_R   0.578090 0.681300 0.569920 -0.445714
O23   O     O_R   0.608530 0.436370 0.586530 -0.481917
C35   C     C_R   0.678432 0.382222 0.624485 0.541500
O24   O     O_R   0.798770 0.401880 0.597100 -0.498170
O25   O     O_R   0.043450 0.677890 0.566230 -0.493779
C36   C     C_R   0.100571 0.802358 0.585698 0.544489
Cr4   Cr    Cr6+3 0.936650 0.882420 0.465510 1.059267
Cr5   Cr    Cr6+3 0.605770 0.565620 0.493360 1.082718
Cr6   Cr    Cr6+3 0.921340 0.550490 0.496380 1.069518
O26   O     O_3   0.821250 0.666180 0.485090 -0.275984
N1    N     N_R   0.854932 0.237684 0.197184 0.085819
O27   O     O_R   0.894985 0.149001 0.234914 -0.356497
O28   O     O_R   0.954228 0.355703 0.150435 -0.294293
N2    N     N_R   0.444221 0.576205 0.710245 0.109503
O29   O     O_R   0.345584 0.590139 0.670156 -0.307841
O30   O     O_R   0.412190 0.447384 0.748771 -0.331013
N3    N     N_R   0.906456 0.098630 0.785882 0.100614
O31   O     O_R   0.981500 0.092510 0.845230 -0.296944
O32   O     O_R   0.950664 0.223372 0.738244 -0.314183

loop_
_geom_bond_atom_site_label_1
_geom_bond_atom_site_label_2
_geom_bond_distance
_ccdc_geom_bond_type
O11   Cr3   2.061685 S    
C21   C22   1.405210 A    
O25   Cr6   1.941043 S    
N2    O29   1.301507 A    
C21   C34   1.455062 S    
O4    Cr2   1.941544 S    
C29   H9    1.083476 S    
O22   Cr5   2.058209 S    
O8    Cr1   1.937010 S    
C14   C31   1.401646 S    
O4    C2    1.303197 A    
C10   H3    1.084110 S    
N3    O32   1.301584 A    
O24   Cr6   2.059008 S    
N1    O28   1.301746 A    
O19   Cr6   1.939504 S    
C5    O11   1.259352 A    
O21   Cr4   1.933435 S    
O20   C36   1.268783 A    
C15   C16   1.197155 T    
C19   C24   1.399210 A    
C9    C32   1.457943 S    
C3    C13   1.401467 S    
O6    C3    1.265380 A    
Cr4   O26   1.981819 S    
C25   C30   1.403520 A    
C7    H1    1.082871 S    
O14   C33   1.273556 A    
O23   Cr5   1.942586 S    
C16   C33   1.419116 S    
C26   C27   1.394868 A    
O21   C34   1.275716 A    
Cr3   O13   1.969128 S    
O18   Cr6   2.061525 S    
C32   O18   1.256864 A    
C22   C23   1.395138 A    
N2    O30   1.301420 A    
O12   C6    1.275923 A    
C29   C30   1.395974 A    
C25   C26   1.373694 A    
O1    Cr1   2.057000 S    
O14   Cr4   2.052749 S    
C34   O22   1.260382 A    
O10   Cr2   1.938962 S    
Cr1   O13   1.982166 S    
O1    C3    1.262128 A    
Cr6   O26   1.973060 S    
C27   C36   1.442023 S    
N1    O27   1.300174 A    
C1    C15   1.417757 S    
C27   C28   1.406574 A    
C31   O16   1.255356 A    
O5    Cr3   2.061618 S    
O12   Cr3   1.940952 S    
O20   Cr4   2.056121 S    
C28   H8    1.083375 S    
O17   C32   1.278110 A    
C28   C29   1.386531 A    
C7    C12   1.411314 A    
O15   Cr4   1.938038 S    
O7    Cr1   2.052946 S    
O6    Cr3   1.942866 S    
N3    O31   1.301544 A    
Cr5   O26   1.968094 S    
C35   O24   1.254552 A    
C20   C21   1.415171 A    
Cr2   O13   1.971523 S    
C22   H5    1.083824 S    
C1    O3    1.254697 A    
C6    C24   1.458634 S    
O16   Cr5   2.061157 S    
C5    C17   1.401979 S    
C23   C24   1.411527 A    
C25   H6    1.083917 S    
C26   H7    1.084019 S    
O9    Cr2   2.058605 S    
O2    Cr1   1.934741 S    
C20   N2    1.438653 S    
O25   C36   1.268959 A    
C23   N3    1.437658 S    
O8    C4    1.270097 A    
C2    O5    1.289784 A    
O3    Cr2   2.056940 S    
C8    C9    1.395922 A    
O17   Cr5   1.941496 S    
C13   C14   1.187566 T    
C10   C11   1.378499 A    
O2    C1    1.276576 A    
C8    H2    1.083094 S    
C19   C20   1.375654 A    
C11   C12   1.416040 A    
O15   C31   1.266453 A    
C19   H4    1.084583 S    
O7    C6    1.269818 A    
C2    C12   1.462626 S    
C7    C8    1.392154 A    
O23   C35   1.264205 A    
C4    C30   1.438016 S    
O19   C33   1.263935 A    
C11   N1    1.437046 S    
C4    O9    1.259679 A    
C17   C18   1.187338 T    
C9    C10   1.402254 A    
O10   C5    1.258500 A    
C18   C35   1.401519 S    
