data_mof_unit_44679.cif
_audit_creation_date              2012-12-11T14:15:24-0500
_audit_creation_method            fapswitch 2.2
_symmetry_space_group_name_H-M    P1
_symmetry_Int_Tables_number       1
_space_group_crystal_system       triclinic
_cell_length_a                    11.173456
_cell_length_b                    12.759377
_cell_length_c                    23.622436
_cell_angle_alpha                 90.969637
_cell_angle_beta                  97.248772
_cell_angle_gamma                 68.364612
_cell_volume                      3103.88131849

loop_
_atom_site_label
_atom_site_type_symbol
_atom_type_description
_atom_site_fract_x
_atom_site_fract_y
_atom_site_fract_z
_atom_type_partial_charge
C1    C     C_R   0.148830 0.616245 0.428605 0.541320
C2    C     C_R   0.675078 0.549343 0.308903 -0.120795
C3    C     C_R   0.715158 0.723575 0.316749 -0.135828
C4    C     C_R   0.707825 0.731118 0.257458 0.014229
C5    C     C_R   0.692108 0.643047 0.223996 0.045809
C6    C     C_R   0.690432 0.650731 0.165301 -0.138187
C7    C     C_R   0.707162 0.835659 0.171542 -0.008591
C8    C     C_R   0.719773 0.824159 0.231390 -0.117971
C9    C     C_1   0.232534 0.172406 0.119798 -0.015319
C10   C     C_2   0.174766 0.264321 0.218952 -0.127177
C11   C     C_2   0.128284 0.212914 0.254703 -0.124607
C12   C     C_R   0.751556 0.602605 0.403311 0.536865
C13   C     C_1   0.109589 0.252187 0.311713 -0.049286
C14   C     C_1   0.205373 0.217151 0.164289 -0.059025
C15   C     C_1   0.097270 0.284760 0.359654 -0.001235
C16   C     C_1   0.169134 0.749701 0.123693 -0.018985
C17   C     C_2   0.145518 0.685094 0.227006 -0.140015
C18   C     C_2   0.233999 0.679966 0.272183 -0.134286
C19   C     C_1   0.215181 0.653631 0.329165 -0.047357
C20   C     C_1   0.158158 0.719136 0.170417 -0.067966
C21   C     C_1   0.192241 0.634550 0.375878 -0.005204
C22   C     C_1   0.597149 0.768758 0.859954 -0.021739
C23   C     C_R   0.086821 0.326053 0.416450 0.555559
C24   C     C_2   0.611568 0.755833 0.749661 -0.151695
C25   C     C_2   0.684295 0.658771 0.729188 -0.148765
C26   C     C_1   0.690720 0.646136 0.669246 -0.064939
C27   C     C_1   0.606381 0.763936 0.809870 -0.084078
C28   C     C_1   0.707999 0.630293 0.620250 -0.007234
C29   C     C_R   0.190854 0.189229 0.858596 -0.009308
C30   C     C_R   0.119073 0.236703 0.645525 0.012705
C31   C     C_R   0.025513 0.169100 0.716688 -0.144980
C32   C     C_R   0.027649 0.194609 0.660245 -0.148635
C33   C     C_R   0.219182 0.245458 0.688336 -0.011049
C34   C     C_R   0.149258 0.617067 0.591004 0.539543
C35   C     C_R   0.218908 0.215253 0.745560 0.049273
C36   C     C_R   0.115601 0.184273 0.759300 0.023910
C37   C     C_R   0.107188 0.164771 0.816172 -0.135198
C38   C     C_R   0.269309 0.244762 0.844501 -0.115168
C39   C     C_R   0.310948 0.224767 0.791223 -0.003889
C40   C     C_R   0.129569 0.742378 0.853104 0.002135
C41   C     C_R   0.187262 0.642064 0.649494 -0.010519
C42   C     C_R   0.329912 0.597296 0.738798 0.000580
C43   C     C_R   0.308514 0.583474 0.679884 -0.142699
C44   C     C_R   0.091286 0.722781 0.676661 -0.127647
C45   C     C_R   0.750198 0.602198 0.565712 0.544896
C46   C     C_R   0.105829 0.733002 0.735174 0.020521
C47   C     C_R   0.223498 0.664548 0.767137 0.031506
C48   C     C_R   0.234321 0.672348 0.826058 -0.155873
C49   C     C_R   0.007050 0.796663 0.821669 0.017480
C50   C     C_R   0.002136 0.807532 0.762195 -0.000887
C51   C     C_R   0.265644 0.110958 0.068957 0.543791
C52   C     C_R   0.602352 0.774524 0.080976 0.534115
C53   C     C_R   0.190160 0.788098 0.069940 0.538865
C54   C     C_R   0.238374 0.118717 0.909878 0.549729
C55   C     C_R   0.569029 0.777995 0.917289 0.539645
C56   C     C_R   0.100551 0.284559 0.587408 0.547619
C57   C     C_R   0.163798 0.785617 0.907563 0.546608
C58   C     C_R   0.678601 0.751787 0.138433 -0.001721
C59   C     C_R   0.703744 0.630585 0.342741 -0.005664
C60   C     C_R   0.672494 0.552191 0.249852 -0.007486
Cr1   Cr    Cr6+3 0.189770 0.415650 0.511620 0.999115
Cr2   Cr    Cr6+3 0.930400 0.667320 0.496770 1.009809
Cr3   Cr    Cr6+3 0.879870 0.417010 0.491650 1.019156
Cr4   Cr    Cr6+3 0.149500 0.973980 0.985330 0.995603
Cr5   Cr    Cr6+3 0.457000 0.976510 0.994660 0.988070
Cr6   Cr    Cr6+3 0.411170 0.724270 0.995270 0.999115
H1    H     H_    0.681736 0.582990 0.139238 0.135444
H2    H     H_    0.553077 0.827706 0.721486 0.136794
H3    H     H_    0.042258 0.124759 0.827051 0.122546
H4    H     H_    0.326266 0.268687 0.879025 0.117886
H5    H     H_    0.386225 0.529480 0.657637 0.111006
H6    H     H_    0.734203 0.889463 0.257978 0.106730
H7    H     H_    0.663209 0.478539 0.328853 0.138096
H8    H     H_    0.109208 0.137638 0.242164 0.132367
O1    O     O_R   0.196340 0.303200 0.448500 -0.502560
O2    O     O_R   0.811960 0.658090 0.547150 -0.498317
O3    O     O_R   0.757930 0.506140 0.547110 -0.509518
O4    O     O_R   0.988670 0.321620 0.556040 -0.492421
O5    O     O_3   0.000020 0.499990 0.500010 -0.261758
O6    O     O_R   0.113660 0.883270 0.047820 -0.524032
O7    O     O_R   0.186930 0.068530 0.043990 -0.497526
O8    O     O_R   0.377770 0.089040 0.054220 -0.521215
O9    O     O_R   0.562800 0.872960 0.056970 -0.508538
O10   O     O_R   0.555390 0.700940 0.062700 -0.523443
O11   O     O_R   0.295020 0.731920 0.049950 -0.496769
O12   O     O_R   0.199310 0.519670 0.454880 -0.506352
O13   O     O_R   0.094290 0.884230 0.921550 -0.519687
O14   O     O_R   0.168980 0.069410 0.926940 -0.503856
O15   O     O_R   0.358400 0.089990 0.927950 -0.531193
O16   O     O_R   0.544850 0.873850 0.939920 -0.503610
O17   O     O_R   0.536020 0.701900 0.936430 -0.526139
O18   O     O_R   0.277070 0.732810 0.932890 -0.513271
O19   O     O_3   0.339220 0.891590 0.991750 -0.230394
O20   O     O_R   0.045660 0.691380 0.441680 -0.507262
O21   O     O_R   0.811930 0.659460 0.430950 -0.503418
O22   O     O_R   0.757900 0.507620 0.421760 -0.526309
O23   O     O_R   0.988630 0.322990 0.439840 -0.491803
O24   O     O_R   0.196380 0.301720 0.573850 -0.533947
O25   O     O_R   0.199350 0.518300 0.571080 -0.520386
O26   O     O_R   0.045700 0.689900 0.567030 -0.521345
H9    H     H_    0.059875 0.667077 0.232584 0.140510
H10   H     H_    0.741687 0.587126 0.757762 0.132913
H11   H     H_    0.949785 0.141823 0.727347 0.098673
C61   C     C_3   0.457751 0.175989 0.788178 -0.255901
C62   C     C_3   0.547803 0.160628 0.844921 -0.308783
C63   C     C_3   0.688922 0.124054 0.834428 -0.482339
H12   H     H_    0.719073 0.039347 0.816218 0.150672
H13   H     H_    0.702172 0.183657 0.804345 0.151701
H14   H     H_    0.750738 0.121996 0.875322 0.134755
H15   H     H_    0.523995 0.241358 0.867361 0.154818
H16   H     H_    0.537893 0.095827 0.872702 0.201662
H17   H     H_    0.481913 0.092113 0.768470 0.145653
H18   H     H_    0.486485 0.229489 0.761853 0.143298
H19   H     H_    0.953126 0.186895 0.628220 0.124214
C64   C     C_3   0.307715 0.307965 0.676284 -0.215703
C65   C     C_3   0.429174 0.231513 0.649318 -0.276036
C66   C     C_3   0.508910 0.298230 0.632964 -0.446894
H20   H     H_    0.449492 0.366230 0.601109 0.175850
H21   H     H_    0.544374 0.335035 0.671347 0.134406
H22   H     H_    0.593998 0.241928 0.613370 0.131284
H23   H     H_    0.492224 0.160415 0.678371 0.132240
H24   H     H_    0.403532 0.189344 0.610971 0.196942
H25   H     H_    0.251644 0.385496 0.650552 0.192346
H26   H     H_    0.334030 0.350564 0.714161 0.116463
H27   H     H_    0.326745 0.628036 0.851240 0.145889
C67   C     C_3   0.718367 0.938446 0.144340 -0.240686
C68   C     C_3   0.830715 0.969859 0.174074 -0.319652
C69   C     C_3   0.854779 0.057595 0.138727 -0.443627
H28   H     H_    0.882433 0.023709 0.096669 0.170713
H29   H     H_    0.766114 0.135517 0.131962 0.144497
H30   H     H_    0.935219 0.079336 0.161632 0.151624
H31   H     H_    0.807949 0.005916 0.216275 0.155235
H32   H     H_    0.920853 0.893474 0.180664 0.183608
H33   H     H_    0.737102 0.921192 0.099446 0.163914
H34   H     H_    0.625360 0.011436 0.144666 0.164940
C70   C     C_3   0.885416 0.797155 0.844868 -0.251406
C71   C     C_3   0.844109 0.865311 0.898293 -0.286508
C72   C     C_3   0.886793 0.792546 0.953485 -0.390807
H35   H     H_    0.838469 0.730394 0.951992 0.133801
H36   H     H_    0.992902 0.745434 0.960342 0.161949
H37   H     H_    0.858608 0.847138 0.990439 0.140816
H38   H     H_    0.874714 0.938135 0.901778 0.190634
H39   H     H_    0.736568 0.903477 0.893476 0.152752
H40   H     H_    0.802632 0.830808 0.810972 0.142405
H41   H     H_    0.896104 0.708099 0.852189 0.143242
C73   C     C_3   0.468344 0.555490 0.767894 -0.259464
C74   C     C_3   0.507605 0.446472 0.803547 -0.316307
C75   C     C_3   0.622293 0.434781 0.849049 -0.457060
H42   H     H_    0.653177 0.353681 0.873414 0.141527
H43   H     H_    0.705886 0.437004 0.828791 0.151243
H44   H     H_    0.594203 0.504290 0.879487 0.178914
H45   H     H_    0.425513 0.442379 0.824297 0.164597
H46   H     H_    0.538417 0.375337 0.774601 0.155337
H47   H     H_    0.536194 0.539969 0.735464 0.148226
H48   H     H_    0.481070 0.623553 0.794660 0.172490
C76   C     C_3   0.905041 0.913767 0.730662 -0.264939
C77   C     C_3   0.782812 0.898871 0.700045 -0.309159
C78   C     C_3   0.732112 0.969795 0.644682 -0.457016
H49   H     H_    0.717708 0.059054 0.653280 0.148002
H50   H     H_    0.802178 0.938230 0.613177 0.160021
H51   H     H_    0.637951 0.964839 0.626235 0.145797
H52   H     H_    0.802972 0.809214 0.690029 0.186310
H53   H     H_    0.705039 0.926653 0.728090 0.148454
H54   H     H_    0.876885 0.983812 0.760650 0.130361
H55   H     H_    0.955160 0.942312 0.699847 0.147298
H56   H     H_    0.998809 0.770933 0.652637 0.151991
C79   C     C_3   0.649828 0.456562 0.216685 -0.265988
C80   C     C_3   0.509498 0.493361 0.187223 -0.294592
C81   C     C_3   0.488812 0.399765 0.151060 -0.443941
H57   H     H_    0.552889 0.378653 0.116864 0.148473
H58   H     H_    0.510079 0.323011 0.178087 0.153482
H59   H     H_    0.386223 0.428443 0.130902 0.152472
H60   H     H_    0.442452 0.514246 0.220227 0.171104
H61   H     H_    0.484309 0.569759 0.159417 0.186437
H62   H     H_    0.720747 0.424353 0.185585 0.137979
H63   H     H_    0.668309 0.383226 0.245906 0.139081
H64   H     H_    0.736159 0.787122 0.342720 0.126997
H65   H     H_    0.195590 0.338750 0.231580 0.134733
H66   H     H_    0.318896 0.699354 0.266911 0.138699

loop_
_geom_bond_atom_site_label_1
_geom_bond_atom_site_label_2
_ccdc_geom_bond_type
C30   C32   A    
C62   H15   S    
C38   H4    S    
C1    C21   S    
C77   C78   S    
C57   O18   A    
C37   H3    S    
C81   H58   S    
C81   H57   S    
C6    C58   A    
C62   C63   S    
C35   C36   A    
C9    C51   S    
C75   H44   S    
C56   O24   A    
C4    C8    A    
C69   H28   S    
Cr6   O11   S    
C80   H61   S    
C7    C8    A    
Cr3   O5    S    
Cr1   O1    S    
Cr5   O15   S    
C67   C68   S    
C65   H24   S    
C45   O2    A    
C76   C77   S    
C19   C21   T    
C75   H43   S    
Cr4   O19   S    
C55   O16   A    
C66   H21   S    
C5    C6    A    
C2    C60   A    
C25   H10   S    
Cr5   O9    S    
C63   H12   S    
C40   C49   A    
C17   C20   S    
C56   O4    A    
C65   C66   S    
C18   C19   S    
Cr5   O16   S    
C52   O10   A    
C17   H9    S    
C16   C53   S    
C63   H14   S    
C55   O17   A    
C78   H51   S    
C48   H27   S    
C68   H31   S    
C12   C59   S    
C73   H48   S    
Cr1   O24   S    
C50   C76   S    
C1    O20   A    
C29   C38   A    
C34   O26   A    
C24   C27   S    
C12   O21   A    
C40   C57   S    
C77   H53   S    
C7    C58   A    
C70   H41   S    
C30   C33   A    
C15   C23   S    
C71   H39   S    
Cr2   O21   S    
C78   H50   S    
Cr4   O6    S    
Cr2   O2    S    
Cr1   O25   S    
C34   C41   S    
C61   C62   S    
C44   C46   A    
C34   O25   A    
C80   H60   S    
C28   C45   S    
C33   C64   S    
C71   H38   S    
C8    H6    S    
C65   H23   S    
C74   C75   S    
C60   C79   S    
Cr2   O5    S    
C39   C61   S    
C53   O6    A    
C64   H25   S    
C24   C25   D    
C54   O15   A    
Cr1   O12   S    
C66   H22   S    
C79   C80   S    
C61   H17   S    
C2    C59   A    
C70   C71   S    
Cr6   O18   S    
C25   C26   S    
C30   C56   S    
Cr3   O22   S    
C72   H37   S    
C57   O13   A    
C31   H11   S    
C52   O9    A    
C35   C39   A    
C9    C14   T    
C47   C48   A    
C73   H47   S    
C64   C65   S    
C16   C20   T    
C17   C18   D    
C44   H56   S    
C75   H42   S    
C51   O8    A    
C67   H33   S    
C22   C55   S    
C2    H7    S    
C52   C58   S    
Cr6   O19   S    
Cr2   O26   S    
C80   C81   S    
C23   O23   A    
C49   C70   S    
C18   H66   S    
C22   C27   T    
C13   C15   T    
C10   C14   S    
C78   H49   S    
C41   C44   A    
C42   C43   A    
C3    C4    A    
C42   C73   S    
C69   H30   S    
C10   H65   S    
C79   H62   S    
C73   C74   S    
Cr3   O3    S    
C1    O12   A    
C40   C48   A    
C51   O7    A    
C46   C47   A    
C36   C37   A    
C43   H5    S    
C64   H26   S    
Cr4   O13   S    
C5    C60   A    
C31   C32   A    
C41   C43   A    
C68   H32   S    
C23   O1    A    
C4    C5    A    
C11   H8    S    
C69   H29   S    
C67   H34   S    
C53   O11   A    
Cr6   O17   S    
C72   H36   S    
C71   C72   S    
C46   C50   A    
C26   C28   T    
C10   C11   D    
Cr2   O20   S    
C74   H45   S    
C3    H64   S    
Cr3   O23   S    
C6    H1    S    
C66   H20   S    
C54   O14   A    
C11   C13   S    
Cr5   O8    S    
C38   C39   A    
C63   H13   S    
C76   H55   S    
Cr1   O5    S    
Cr5   O19   S    
C33   C35   A    
C42   C47   A    
C7    C67   S    
C62   H16   S    
C74   H46   S    
Cr4   O7    S    
C72   H35   S    
C24   H2    S    
Cr6   O10   S    
C61   H18   S    
C76   H54   S    
C70   H40   S    
C49   C50   A    
C29   C54   S    
C29   C37   A    
C31   C36   A    
C12   O22   A    
C45   O3    A    
C81   H59   S    
C32   H19   S    
C77   H52   S    
Cr4   O14   S    
C68   C69   S    
C79   H63   S    
Cr3   O4    S    
C3    C59   A    
