data_mof_unit_51097.cif
_audit_creation_date              2012-12-11T14:07:20-0500
_audit_creation_method            fapswitch 2.2
_symmetry_space_group_name_H-M    P1
_symmetry_Int_Tables_number       1
_space_group_crystal_system       triclinic
_cell_length_a                    19.738538
_cell_length_b                    17.010206
_cell_length_c                    15.328188
_cell_angle_alpha                 89.836269
_cell_angle_beta                  53.237032
_cell_angle_gamma                 89.608365
_cell_volume                      4122.88673771

loop_
_atom_site_label
_atom_site_type_symbol
_atom_type_description
_atom_site_fract_x
_atom_site_fract_y
_atom_site_fract_z
_atom_type_partial_charge
C1    C     C_R   0.375792 0.198202 0.994143 -0.115474
C2    C     C_R   0.343485 0.821738 0.043282 -0.086137
C3    C     C_R   0.875791 0.698202 0.994144 -0.115477
C4    C     C_R   0.843487 0.321736 0.043278 -0.086145
C5    C     C_R   0.672208 0.919602 0.044120 -0.099815
C6    C     C_R   0.630939 0.104836 0.108470 -0.171312
C7    C     C_R   0.172208 0.419602 0.044120 -0.099820
C8    C     C_R   0.130937 0.604836 0.108473 -0.171291
C9    C     C_R   0.646418 0.184034 0.079210 -0.009240
C10   C     C_R   0.714848 0.856718 0.971401 -0.017951
C11   C     C_R   0.146418 0.684033 0.079212 -0.009254
C12   C     C_R   0.214848 0.356718 0.971401 -0.017953
C13   C     C_R   0.608247 0.815290 0.697045 -0.006353
C14   C     C_R   0.692658 0.136696 0.678266 -0.008733
C15   C     C_R   0.108248 0.315290 0.697044 -0.006353
C16   C     C_R   0.192657 0.636698 0.678267 -0.008730
C17   C     C_3   0.194328 0.126831 0.523875 -0.391975
C18   C     C_3   0.247629 0.784380 0.461287 -0.390018
C19   C     C_3   0.694328 0.626831 0.523875 -0.391975
C20   C     C_3   0.747632 0.284393 0.461302 -0.390026
C21   C     C_3   0.138925 0.176308 0.628408 -0.404981
C22   C     C_3   0.193879 0.734024 0.562740 -0.400647
C23   C     C_3   0.638925 0.676308 0.628408 -0.404980
C24   C     C_3   0.693881 0.234046 0.562765 -0.400626
C25   C     C_3   0.303413 0.235571 0.437489 -0.387894
C26   C     C_3   0.367286 0.781627 0.478729 -0.401354
C27   C     C_3   0.803413 0.735571 0.437490 -0.387893
C28   C     C_3   0.867304 0.281608 0.478713 -0.401336
C29   C     C_3   0.684748 0.733187 0.417851 -0.397466
C30   C     C_3   0.857843 0.175991 0.371955 -0.404635
C31   C     C_3   0.184748 0.233188 0.417851 -0.397466
C32   C     C_3   0.357860 0.675993 0.371960 -0.404619
C33   C     C_3   0.247520 0.181807 0.423194 0.384853
C34   C     C_3   0.342327 0.764762 0.401584 0.395571
C35   C     C_3   0.747520 0.681807 0.423194 0.384854
C36   C     C_3   0.842328 0.264759 0.401582 0.395561
C37   C     C_3   0.654443 0.765169 0.599725 0.398505
C38   C     C_3   0.750764 0.180969 0.577282 0.399312
C39   C     C_3   0.154444 0.265170 0.599724 0.398504
C40   C     C_3   0.250762 0.680971 0.577283 0.399316
C41   C     C_3   0.748994 0.783685 0.541278 -0.392654
C42   C     C_3   0.811983 0.233065 0.583603 -0.406139
C43   C     C_3   0.248994 0.283685 0.541277 -0.392653
C44   C     C_3   0.311956 0.733092 0.583623 -0.406156
C45   C     C_R   0.397050 0.800972 0.209616 -0.133772
C46   C     C_R   0.349078 0.171254 0.219023 -0.136373
C47   C     C_R   0.897051 0.300972 0.209615 -0.133783
C48   C     C_R   0.849078 0.671254 0.219023 -0.136373
C49   C     C_3   0.630332 0.783309 0.521835 -0.408219
C50   C     C_3   0.805650 0.126246 0.476349 -0.399936
C51   C     C_3   0.130332 0.283309 0.521835 -0.408221
C52   C     C_3   0.305672 0.626249 0.476358 -0.399937
C53   C     C_2   0.188370 0.743536 0.100012 0.530934
C54   C     C_2   0.294771 0.321881 0.939357 0.538344
C55   C     C_2   0.688372 0.243537 0.100003 0.530932
C56   C     C_2   0.794771 0.821881 0.939357 0.538345
C57   C     C_2   0.731203 0.298379 0.021984 -0.371160
C58   C     C_2   0.812918 0.747786 0.900172 -0.387549
C59   C     C_2   0.231189 0.798389 0.022006 -0.371144
C60   C     C_2   0.312918 0.247786 0.900172 -0.387541
C61   C     C_R   0.333221 0.909804 0.944534 -0.175963
C62   C     C_R   0.366829 0.111998 0.895032 -0.172185
C63   C     C_R   0.833226 0.409800 0.944525 -0.175963
C64   C     C_R   0.866829 0.611997 0.895032 -0.172183
C65   C     C_R   0.357467 0.077927 0.314831 -0.132962
C66   C     C_R   0.406262 0.892655 0.304778 -0.145279
C67   C     C_R   0.857467 0.577927 0.314831 -0.132960
C68   C     C_R   0.906261 0.392653 0.304779 -0.145280
C69   C     C_R   0.349703 0.189038 0.929636 0.195491
C70   C     C_R   0.293173 0.846872 0.014552 0.214047
C71   C     C_R   0.849703 0.689038 0.929636 0.195490
C72   C     C_R   0.793179 0.346867 0.014540 0.214074
C73   C     C_R   0.388185 0.814902 0.304608 -0.006739
C74   C     C_R   0.306546 0.137715 0.321846 -0.005758
C75   C     C_R   0.888185 0.314901 0.304607 -0.006735
C76   C     C_R   0.806546 0.637715 0.321846 -0.005758
C77   C     C_R   0.618921 0.200208 0.017127 -0.166875
C78   C     C_R   0.662571 0.824583 0.948600 -0.171546
C79   C     C_R   0.118922 0.700208 0.017127 -0.166882
C80   C     C_R   0.162571 0.324583 0.948600 -0.171544
C81   C     C_R   0.600786 0.800841 0.791048 -0.151938
C82   C     C_R   0.650750 0.170226 0.781245 -0.143818
C83   C     C_R   0.100786 0.300841 0.791047 -0.151939
C84   C     C_R   0.150749 0.670226 0.781247 -0.143821
C85   C     C_R   0.642242 0.076944 0.684945 -0.137080
C86   C     C_R   0.591793 0.893848 0.696323 -0.149144
C87   C     C_R   0.142242 0.576946 0.684944 -0.137084
C88   C     C_R   0.091794 0.393848 0.696323 -0.149141
H1    H     H_    0.383584 0.252243 0.023473 0.153660
H2    H     H_    0.338514 0.768442 0.084640 0.085435
H3    H     H_    0.883584 0.752243 0.023473 0.153658
H4    H     H_    0.838512 0.268441 0.084641 0.085428
H5    H     H_    0.153828 0.087982 0.514674 0.160938
H6    H     H_    0.228569 0.773763 0.407088 0.163362
H7    H     H_    0.653828 0.587981 0.514674 0.160940
H8    H     H_    0.728559 0.273778 0.407115 0.163361
H9    H     H_    0.571013 0.662270 0.670497 0.156557
H10   H     H_    0.650817 0.197457 0.555612 0.166118
H11   H     H_    0.071014 0.162271 0.670497 0.156555
H12   H     H_    0.150842 0.697415 0.555558 0.166128
H13   H     H_    0.155338 0.159831 0.683898 0.146410
H14   H     H_    0.153368 0.773046 0.634848 0.161753
H15   H     H_    0.655337 0.659830 0.683899 0.146410
H16   H     H_    0.653397 0.273076 0.634872 0.161747
H17   H     H_    0.349149 0.199791 0.441137 0.155926
H18   H     H_    0.357741 0.844585 0.502568 0.145218
H19   H     H_    0.849149 0.699791 0.441137 0.155927
H20   H     H_    0.857764 0.344563 0.502560 0.145219
H21   H     H_    0.767673 0.770081 0.595406 0.155325
H22   H     H_    0.776617 0.274632 0.653288 0.147625
H23   H     H_    0.267674 0.270081 0.595406 0.155324
H24   H     H_    0.276569 0.774667 0.653295 0.147639
H25   H     H_    0.718595 0.773636 0.347019 0.153885
H26   H     H_    0.926237 0.161527 0.326238 0.157967
H27   H     H_    0.218595 0.273637 0.347019 0.153887
H28   H     H_    0.426256 0.661540 0.326250 0.157962
H29   H     H_    0.643530 0.695153 0.409023 0.157042
H30   H     H_    0.838471 0.160439 0.319425 0.145046
H31   H     H_    0.143531 0.195153 0.409023 0.157041
H32   H     H_    0.338497 0.660427 0.319425 0.145041
H33   H     H_    0.562100 0.771195 0.563358 0.153260
H34   H     H_    0.766296 0.085438 0.467985 0.145489
H35   H     H_    0.062101 0.271195 0.563358 0.153261
H36   H     H_    0.266334 0.585422 0.467989 0.145489
H37   H     H_    0.641539 0.846086 0.497035 0.152724
H38   H     H_    0.848536 0.089703 0.484534 0.157865
H39   H     H_    0.141539 0.346087 0.497034 0.152728
H40   H     H_    0.348561 0.589727 0.484557 0.157869
H41   H     H_    0.341008 0.276162 0.366829 0.161103
H42   H     H_    0.435236 0.767141 0.437049 0.156557
H43   H     H_    0.841007 0.776163 0.366830 0.161101
H44   H     H_    0.935255 0.267118 0.437017 0.156551
H45   H     H_    0.394372 0.744951 0.178916 0.074484
H46   H     H_    0.331315 0.223018 0.196384 0.095986
H47   H     H_    0.894374 0.244951 0.178912 0.074491
H48   H     H_    0.831314 0.723018 0.196384 0.095985
H49   H     H_    0.761206 0.847365 0.520620 0.157629
H50   H     H_    0.852581 0.195789 0.595181 0.153452
H51   H     H_    0.261207 0.347366 0.520618 0.157629
H52   H     H_    0.352548 0.695836 0.595232 0.153451
H53   H     H_    0.734672 0.298283 0.948545 0.105789
H54   H     H_    0.786218 0.723506 0.861800 0.106689
H55   H     H_    0.234646 0.798307 0.948575 0.105786
H56   H     H_    0.286218 0.223506 0.861800 0.106687
H57   H     H_    0.315167 0.940998 0.899670 0.103720
H58   H     H_    0.363355 0.086042 0.833462 0.096442
H59   H     H_    0.815176 0.440991 0.899655 0.103718
H60   H     H_    0.863355 0.586041 0.833462 0.096441
H61   H     H_    0.348057 0.042540 0.379626 0.087922
H62   H     H_    0.412581 0.922598 0.361526 0.085494
H63   H     H_    0.848057 0.542540 0.379626 0.087920
H64   H     H_    0.912578 0.422596 0.361530 0.085492
H65   H     H_    0.609629 0.257436 0.994635 0.097077
H66   H     H_    0.674583 0.775988 0.896101 0.098423
H67   H     H_    0.109627 0.757436 0.994639 0.097073
H68   H     H_    0.174583 0.275988 0.896101 0.098422
H69   H     H_    0.603263 0.744537 0.821782 0.084841
H70   H     H_    0.668759 0.220801 0.805222 0.093394
H71   H     H_    0.103263 0.244537 0.821782 0.084841
H72   H     H_    0.168758 0.720800 0.805226 0.093400
H73   H     H_    0.651725 0.042236 0.619728 0.094538
H74   H     H_    0.585023 0.924181 0.639948 0.088103
H75   H     H_    0.151726 0.542239 0.619725 0.094534
H76   H     H_    0.085025 0.424182 0.639947 0.088098
H77   H     H_    0.695277 0.954918 0.079590 0.112263
H78   H     H_    0.635517 0.075116 0.166901 0.103261
H79   H     H_    0.195277 0.454919 0.079590 0.112259
H80   H     H_    0.135508 0.575116 0.166909 0.103270
H81   H     H_    0.235410 0.088402 0.532961 0.147113
H82   H     H_    0.235228 0.847637 0.484950 0.156957
H83   H     H_    0.735410 0.588402 0.532961 0.147112
H84   H     H_    0.735244 0.347651 0.484957 0.156951
N1    N     N_R   0.408680 0.130160 0.995800 -0.054159
N2    N     N_R   0.408680 0.869840 0.995800 -0.053398
N3    N     N_R   0.908680 0.630160 0.995800 -0.054158
N4    N     N_R   0.908680 0.369840 0.995800 -0.053396
N5    N     N_R   0.421680 0.867580 0.153120 -0.032314
N6    N     N_R   0.421680 0.132420 0.153120 -0.035734
N7    N     N_R   0.921680 0.367580 0.153120 -0.032312
N8    N     N_R   0.921680 0.632420 0.153120 -0.035734
N9    N     N_R   0.403730 0.921770 0.935950 -0.042375
N10   N     N_R   0.403730 0.078230 0.935950 -0.039013
N11   N     N_R   0.903730 0.421770 0.935950 -0.042376
N12   N     N_R   0.903730 0.578230 0.935950 -0.039013
N13   N     N_R   0.426630 0.075970 0.212960 -0.033984
N14   N     N_R   0.426630 0.924030 0.212960 -0.031593
N15   N     N_R   0.926630 0.575970 0.212960 -0.033983
N16   N     N_R   0.926630 0.424030 0.212960 -0.031592
N17   N     N_R   0.591320 0.134600 0.004200 -0.031392
N18   N     N_R   0.591320 0.865400 0.004200 -0.032933
N19   N     N_R   0.091320 0.634600 0.004200 -0.031391
N20   N     N_R   0.091320 0.365400 0.004200 -0.032932
N21   N     N_R   0.578320 0.867660 0.846880 -0.031717
N22   N     N_R   0.578320 0.132340 0.846880 -0.038147
N23   N     N_R   0.078320 0.367660 0.846880 -0.031717
N24   N     N_R   0.078320 0.632340 0.846880 -0.038147
N25   N     N_R   0.573370 0.074390 0.787040 -0.035680
N26   N     N_R   0.573370 0.925610 0.787040 -0.030783
N27   N     N_R   0.073370 0.574390 0.787040 -0.035680
N28   N     N_R   0.073370 0.425610 0.787040 -0.030783
N29   N     N_R   0.596270 0.927870 0.064040 -0.042543
N30   N     N_R   0.596270 0.072130 0.064040 -0.034003
N31   N     N_R   0.096270 0.427870 0.064040 -0.042542
N32   N     N_R   0.096270 0.572130 0.064040 -0.034006
Ni1   Ni    Ni4+2 0.500000 0.131190 0.000000 0.206777
Ni2   Ni    Ni4+2 0.500000 0.868810 0.000000 0.208417
Ni3   Ni    Ni4+2 0.000000 0.631190 0.000000 0.206774
Ni4   Ni    Ni4+2 0.000000 0.368810 0.000000 0.208418
Ni5   Ni    Ni4+2 0.488650 0.000000 0.862740 0.207435
Ni6   Ni    Ni4+2 0.988650 0.500000 0.862740 0.207432
Ni7   Ni    Ni4+2 0.511350 0.000000 0.137260 0.212772
Ni8   Ni    Ni4+2 0.011350 0.500000 0.137260 0.212771
O1    O     O_3   0.171760 0.754714 0.201275 -0.651634
C89   C     C_3   0.194694 0.688969 0.235299 0.183111
H85   H     H_    0.239106 0.709572 0.252082 0.105252
H86   H     H_    0.229510 0.641962 0.172665 0.058408
C90   C     C_3   0.116399 0.657289 0.342455 -0.248917
H87   H     H_    0.090566 0.703610 0.406119 0.199035
H88   H     H_    0.066538 0.642470 0.332759 0.193441
C91   C     C_3   0.137795 0.584558 0.380317 -1.089562
H89   H     H_    0.161410 0.536507 0.319463 0.272763
H90   H     H_    0.080240 0.563974 0.459139 0.270936
H91   H     H_    0.186759 0.598744 0.391871 0.269207
O2    O     O_3   0.336838 0.357054 0.975551 -0.685160
C92   C     C_3   0.390791 0.416168 0.901031 0.164959
H92   H     H_    0.398817 0.460701 0.947022 0.125563
H93   H     H_    0.363680 0.448221 0.864569 0.082995
C93   C     C_3   0.477965 0.381570 0.811459 -0.286172
H94   H     H_    0.504400 0.350991 0.849302 0.198010
H95   H     H_    0.471635 0.337887 0.763013 0.195926
C94   C     C_3   0.539202 0.445562 0.735181 -1.047805
H96   H     H_    0.514734 0.475995 0.694903 0.269862
H97   H     H_    0.601549 0.418776 0.671381 0.267322
H98   H     H_    0.548111 0.489265 0.781187 0.265983
O3    O     O_3   0.671747 0.254734 0.201271 -0.651635
C95   C     C_3   0.694660 0.188996 0.235330 0.183122
H99   H     H_    0.739056 0.209605 0.252138 0.105284
H100  H     H_    0.729486 0.141983 0.172708 0.058384
C96   C     C_3   0.616346 0.157324 0.342474 -0.248924
H101  H     H_    0.590481 0.203660 0.406122 0.199068
H102  H     H_    0.566513 0.142477 0.332738 0.193434
C97   C     C_3   0.637725 0.084622 0.380399 -1.089638
H103  H     H_    0.661397 0.036565 0.319548 0.272777
H104  H     H_    0.580152 0.064030 0.459195 0.270954
H105  H     H_    0.686640 0.098846 0.392025 0.269224
O4    O     O_3   0.836837 0.857054 0.975552 -0.685162
C98   C     C_3   0.890796 0.916162 0.901027 0.164962
H106  H     H_    0.898821 0.960698 0.947016 0.125562
H107  H     H_    0.863692 0.948214 0.864556 0.082993
C99   C     C_3   0.977970 0.881558 0.811465 -0.286175
H108  H     H_    0.004398 0.850981 0.849318 0.198010
H109  H     H_    0.971641 0.837873 0.763021 0.195924
C100  C     C_3   0.039213 0.945545 0.735183 -1.047808
H110  H     H_    0.014752 0.975976 0.694895 0.269863
H111  H     H_    0.101560 0.918755 0.671391 0.267320
H112  H     H_    0.048121 0.989251 0.781187 0.265984

loop_
_geom_bond_atom_site_label_1
_geom_bond_atom_site_label_2
_ccdc_geom_bond_type
C61   C70   A    
C42   H22   S    
N4    N11   A    
C87   H75   S    
C6    H78   S    
C51   H35   S    
C12   C80   A    
C42   H50   S    
C61   H57   S    
C27   H43   S    
C48   C76   A    
C39   C51   S    
C96   H101  S    
C78   N18   A    
N3    Ni3   S    
N30   Ni7   S    
C48   N8    A    
C45   C73   A    
C25   H41   S    
O2    C92   S    
C25   C43   S    
C6    C9    A    
C93   H95   S    
C84   H72   S    
C26   C44   S    
C23   H9    S    
C54   C60   D    
O1    C89   S    
N5    Ni2   S    
C68   C75   A    
C1    N1    A    
C17   C33   S    
C37   C41   S    
C24   H10   S    
C28   H44   S    
C3    H3    S    
C36   C75   S    
C19   H83   S    
C38   C42   S    
N1    Ni1   S    
C5    N29   A    
C100  H110  S    
C82   H70   S    
C17   H81   S    
C58   C71   S    
N22   N25   A    
C14   C38   S    
C99   H109  S    
N21   N26   A    
N6    Ni1   S    
C13   C81   A    
C16   C84   A    
C92   C93   S    
C85   H73   S    
C95   H99   S    
N9    Ni5   S    
C64   C71   A    
C63   H59   S    
C2    H2    S    
N26   Ni5   S    
C46   N6    A    
C32   C52   S    
C47   N7    A    
C8    H80   S    
C81   H69   S    
C77   H65   S    
N7    Ni4   S    
N6    N13   A    
C7    H79   S    
N18   Ni2   S    
C23   H15   S    
N23   Ni4   S    
C20   C24   S    
N17   Ni1   S    
C12   C54   S    
C50   H34   S    
C13   C86   A    
C16   C87   A    
C1    H1    S    
O3    C95   S    
C31   C33   S    
C90   C91   S    
C43   H51   S    
C50   H38   S    
C5    H77   S    
C24   C38   S    
C96   C97   S    
N8    Ni3   S    
C10   C56   S    
C13   C37   S    
C11   C53   S    
C45   N5    A    
C52   H36   S    
C21   H13   S    
C99   C100  S    
C98   H107  S    
C20   H8    S    
C59   H55   S    
C44   H52   S    
C79   N19   A    
N14   Ni7   S    
C64   H60   S    
C77   N17   A    
C83   N23   A    
C80   N20   A    
C26   H18   S    
C43   H23   S    
C32   H32   S    
N24   N27   A    
C2    C70   A    
N2    N9    A    
C31   H27   S    
C93   H94   S    
C19   C35   S    
C67   N15   A    
C80   H68   S    
C34   C73   S    
C18   H82   S    
C10   C78   A    
C7    C12   A    
C30   C50   S    
C65   N13   A    
C35   C76   S    
C97   H105  S    
C63   N11   A    
C81   N21   A    
C25   H17   S    
C8    N32   A    
C22   H12   S    
C96   H102  S    
C31   C51   S    
C97   H104  S    
C100  H111  S    
C89   H85   S    
C78   H66   S    
C20   C36   S    
C29   C49   S    
N7    N16   A    
C30   H30   S    
C27   C35   S    
C99   H108  S    
C40   C52   S    
C66   C73   A    
C56   O4    S    
N10   Ni5   S    
C1    C69   A    
N5    N14   A    
C62   C69   A    
N11   Ni6   S    
C32   C34   S    
C3    C71   A    
C68   H64   S    
N8    N15   A    
C46   H46   S    
C56   C58   D    
C37   C49   S    
C45   H45   S    
C27   C41   S    
C54   O2    S    
C21   C39   S    
C27   H19   S    
C88   H76   S    
C22   C40   S    
N32   Ni8   S    
N13   Ni7   S    
C92   H92   S    
C47   H47   S    
C94   H97   S    
C87   N27   A    
N19   Ni3   S    
C32   H28   S    
N12   Ni6   S    
C18   C34   S    
C46   C74   A    
C15   C39   S    
C11   C79   A    
C86   N26   A    
C86   H74   S    
C44   H24   S    
C85   N25   A    
C20   H84   S    
C16   C40   S    
N1    N10   A    
N20   Ni4   S    
C66   N14   A    
C4    N4    A    
C18   H6    S    
C68   N16   A    
N31   Ni8   S    
C17   H5    S    
C7    N31   A    
C14   C82   A    
C4    C72   A    
C19   H7    S    
C19   C23   S    
N23   N28   A    
C30   H26   S    
C98   C99   S    
C3    N3    A    
N22   Ni1   S    
C29   H25   S    
O4    C98   S    
C53   O1    S    
C58   H54   S    
C66   H62   S    
C26   C34   S    
C91   H91   S    
C18   C22   S    
C41   H49   S    
C62   N10   A    
C48   H48   S    
C14   C85   A    
C55   O3    S    
N15   Ni8   S    
C89   C90   S    
C26   H42   S    
C52   H40   S    
C100  H112  S    
C15   C83   A    
C98   H106  S    
N18   N29   A    
C6    N30   A    
C38   C50   S    
C30   C36   S    
N17   N30   A    
C90   H88   S    
C49   H37   S    
C53   C59   D    
C29   C35   S    
C61   N9    A    
C22   H14   S    
C95   C96   S    
C57   H53   S    
C91   H90   S    
N27   Ni6   S    
C51   H39   S    
N4    Ni4   S    
N24   Ni3   S    
C55   C57   D    
C9    C77   A    
C47   C75   A    
C5    C10   A    
C23   C37   S    
C60   H56   S    
N16   Ni8   S    
C88   N28   A    
C29   H29   S    
C60   C69   S    
C84   N24   A    
C8    C11   A    
C21   H11   S    
C97   H103  S    
C90   H87   S    
C28   C42   S    
C92   H93   S    
N20   N31   A    
C95   H100  S    
C91   H89   S    
C94   H98   S    
C89   H86   S    
C49   H33   S    
C57   C72   S    
C65   H61   S    
C9    C55   S    
C28   H20   S    
N28   Ni6   S    
C82   N22   A    
N25   Ni5   S    
N19   N32   A    
C65   C74   A    
C59   C70   S    
C79   H67   S    
C64   N12   A    
C33   C74   S    
C40   C44   S    
C83   H71   S    
C63   C72   A    
C28   C36   S    
C62   H58   S    
C39   C43   S    
C94   H96   S    
N2    Ni2   S    
C67   H63   S    
C15   C88   A    
C41   H21   S    
N21   Ni2   S    
C24   H16   S    
C31   H31   S    
N29   Ni7   S    
C93   C94   S    
C2    N2    A    
C67   C76   A    
C25   C33   S    
N3    N12   A    
C4    H4    S    
C17   C21   S    
