data_mof_unit_29597.cif
_audit_creation_date              2013-03-05T15:56:27-0500
_audit_creation_method            fapswitch 2.2
_symmetry_space_group_name_H-M    P1
_symmetry_Int_Tables_number       1
_space_group_crystal_system       triclinic
_cell_length_a                    6.929401
_cell_length_b                    14.535747
_cell_length_c                    16.021077
_cell_angle_alpha                 90.161328
_cell_angle_beta                  90.020846
_cell_angle_gamma                 89.954489
_cell_volume                      1613.70026547

loop_
_atom_site_label
_atom_site_type_symbol
_atom_site_description
_atom_site_fract_x
_atom_site_fract_y
_atom_site_fract_z
_atom_type_partial_charge
O1    O     O_R   0.494400 0.415640 0.412830 -0.612563
O2    O     O_R   0.823920 0.405510 0.586560 -0.580291
O3    O     O_R   0.994250 0.584360 0.587170 -0.578712
C1    C     C_R   0.654942 0.383376 0.615504 0.994199
O4    O     O_R   0.824110 0.404610 0.413450 -0.597769
O5    O     O_R   0.994440 0.583460 0.412820 -0.573104
C2    C     C_R   0.655085 0.382314 0.384236 0.917986
O6    O     O_R   0.494210 0.416540 0.587180 -0.598894
O7    O     O_3   0.660810 0.558680 0.500000 -0.270349
V1    V     V_3+5 0.935650 0.489110 0.500000 1.222599
O8    O     O_R   0.324150 0.594490 0.413440 -0.618260
C3    C     C_R   0.155034 0.615720 0.383644 1.014998
O9    O     O_R   0.323970 0.595390 0.586550 -0.578316
C4    C     C_R   0.154772 0.618348 0.614896 1.099621
V2    V     V_3+5 0.435660 0.510890 0.500000 1.208608
O10   O     O_3   0.160630 0.441320 0.500000 -0.290411
C5    C     C_3   0.142522 0.638687 0.772989 0.815177
C6    C     C_3   0.141099 0.714166 0.844377 -0.637251
H1    H     H_    0.277896 0.710655 0.880720 0.197312
H2    H     H_    0.025047 0.701560 0.890783 0.189175
H3    H     H_    0.825466 0.702980 0.676899 0.196531
H4    H     H_    0.813432 0.791639 0.791851 0.114341
C7    C     C_3   0.955017 0.747981 0.678218 -0.454818
C8    C     C_3   0.321715 0.756550 0.683406 0.222746
C9    C     C_3   0.143314 0.689017 0.685289 -0.341717
H5    H     H_    0.453428 0.715186 0.696703 0.122357
C10   C     C_3   0.121716 0.812856 0.808643 -0.190359
C11   C     C_3   0.936433 0.815764 0.752793 0.246806
C12   C     C_3   0.303673 0.829771 0.753831 -0.366179
H6    H     H_    0.435750 0.825958 0.793250 0.180156
H7    H     H_    0.301850 0.900584 0.728202 0.236654
H8    H     H_    0.950530 0.785404 0.618099 0.258331
C13   C     C_R   0.985440 0.741432 0.187728 -0.297442
H9    H     H_    0.875877 0.734192 0.139932 0.144204
C14   C     C_R   0.994525 0.676597 0.253068 0.629315
C15   C     C_R   0.142799 0.682857 0.313631 -0.292582
C16   C     C_R   0.277946 0.754550 0.307378 -0.182464
H10   H     H_    0.390541 0.761961 0.353770 0.173695
C17   C     C_R   0.268433 0.818131 0.241911 -0.125328
H11   H     H_    0.374930 0.872537 0.239004 0.135139
C18   C     C_R   0.121154 0.812771 0.181798 -0.172752
C19   C     C_R   0.811758 0.272207 0.714589 -0.068942
H12   H     H_    0.952056 0.288763 0.688977 0.130066
C20   C     C_R   0.800719 0.207393 0.778755 -0.079688
H13   H     H_    0.933029 0.175853 0.800550 0.128399
C21   C     C_R   0.621601 0.183475 0.813986 -0.124047
C22   C     C_R   0.453824 0.226145 0.783396 -0.137863
H14   H     H_    0.313545 0.209639 0.809050 0.125335
C23   C     C_R   0.464869 0.290973 0.719231 -0.126415
H15   H     H_    0.332574 0.322567 0.697472 0.140718
C24   C     C_R   0.643951 0.314716 0.683863 -0.122807
C25   C     C_R   0.812195 0.274551 0.280934 -0.110359
H16   H     H_    0.953027 0.293134 0.304900 0.120529
C26   C     C_R   0.801090 0.210642 0.215453 -0.130662
H17   H     H_    0.933941 0.181846 0.191203 0.123678
C27   C     C_R   0.621414 0.184174 0.181948 -0.123551
C28   C     C_R   0.453181 0.223574 0.215806 -0.133869
H18   H     H_    0.312354 0.205010 0.191824 0.120890
C29   C     C_R   0.464292 0.287490 0.281288 -0.130075
H19   H     H_    0.331457 0.316318 0.305525 0.124978
C30   C     C_R   0.643949 0.313810 0.314899 -0.117277
O11   O     O_R   0.771300 0.080930 0.910090 -0.586437
O12   O     O_R   0.441270 0.092800 0.083770 -0.604336
O13   O     O_R   0.271080 0.913920 0.084380 -0.599350
C31   C     C_R   0.610290 0.115331 0.112861 0.909250
O14   O     O_R   0.441580 0.091910 0.910670 -0.605402
O15   O     O_R   0.271390 0.913020 0.910040 -0.590479
C32   C     C_R   0.610585 0.114410 0.882018 0.989232
O16   O     O_R   0.770990 0.081830 0.084440 -0.600900
O17   O     O_3   0.604750 0.938760 0.997250 -0.267207
V3    V     V_3+5 0.329850 0.008280 0.997210 1.165651
O18   O     O_R   0.941680 0.901940 0.910610 -0.587044
C33   C     C_R   0.110465 0.881879 0.880049 0.989051
O19   O     O_R   0.941370 0.902830 0.083720 -0.598352
C34   C     C_R   0.110422 0.880809 0.112791 0.948962
V4    V     V_3+5 0.829860 0.986420 0.997150 1.184946
O20   O     O_3   0.104830 0.056030 0.997180 -0.286075
N1    N     N_R   0.971241 0.577748 0.778584 0.202010
O21   O     O_R   0.974431 0.496575 0.744096 -0.441959
O22   O     O_R   0.810905 0.605940 0.812507 -0.462283
N2    N     N_R   0.890240 0.909125 0.723863 0.243550
O23   O     O_R   0.732048 0.948840 0.748778 -0.409111
O24   O     O_R   0.997142 0.950431 0.668738 -0.366646
O25   O     O_3   0.873631 0.600806 0.252284 -0.642431
C35   C     C_3   0.684091 0.629248 0.271070 -0.158270
H20   H     H_    0.678535 0.667810 0.331160 0.145676
H21   H     H_    0.592576 0.567181 0.278128 0.159083
H22   H     H_    0.621485 0.670979 0.219717 0.120667
O26   O     O_3   0.315614 0.585510 0.778642 -0.648806
C36   C     C_3   0.320424 0.526435 0.848908 -0.090855
H23   H     H_    0.283635 0.455322 0.829134 0.160177
H24   H     H_    0.222907 0.547510 0.900738 0.099474
H25   H     H_    0.469621 0.525181 0.873956 0.183927
N3    N     N_R   0.355715 0.802058 0.602611 0.253723
O27   O     O_R   0.244107 0.789202 0.538296 -0.429871
O28   O     O_R   0.510908 0.851278 0.593151 -0.348994

loop_
_geom_bond_atom_site_label_1
_geom_bond_atom_site_label_2
_geom_bond_distance
_ccdc_geom_bond_type
O14   C32   1.300390 A    
O12   C31   1.302138 A    
C10   C12   1.556881 S    
C14   C15   1.415739 A    
O18   V4    2.005063 S    
N2    O23   1.300848 A    
C28   H18   1.082718 S    
C17   C18   1.405022 A    
C35   H20   1.113305 S    
C20   H13   1.082902 S    
C16   H10   1.082598 S    
O19   V4    2.001056 S    
C15   C16   1.405432 A    
C8    H5    1.113378 S    
C25   C30   1.406631 A    
O5    C3    1.295838 A    
N1    O22   1.302368 A    
C28   C29   1.401511 A    
C27   C31   1.492065 S    
C27   C28   1.406725 A    
O16   V4    2.008514 S    
C6    H1    1.113492 S    
O13   V3    2.002393 S    
C8    C12   1.553888 S    
C2    C30   1.491757 S    
C21   C22   1.405941 A    
O8    V2    2.001034 S    
O25   C35   1.408980 S    
C22   H14   1.082859 S    
C25   C26   1.401433 A    
C23   C24   1.407967 A    
O17   V3    2.155627 S    
O15   C33   1.295548 A    
C3    C15   1.491196 S    
O7    V1    2.155598 S    
O15   V3    2.005342 S    
C1    O6    1.295690 A    
C19   C24   1.405841 A    
C29   H19   1.082760 S    
H4    C11   1.114933 S    
O9    C4    1.300433 A    
O11   V4    2.001716 S    
C19   C20   1.398525 A    
N2    O24   1.301299 A    
C20   C21   1.407940 A    
C13   H9    1.083089 S    
C35   H21   1.109240 S    
C26   C27   1.409041 A    
C29   C30   1.408992 A    
O19   C34   1.300565 A    
C1    C24   1.485808 S    
C5    O26   1.429386 S    
C8    C9    1.579508 S    
C22   C23   1.398652 A    
C17   H11   1.083199 S    
O4    C2    1.302015 A    
N1    O21   1.301643 A    
O2    C1    1.300549 A    
C21   C32   1.485925 S    
C12   H6    1.113202 S    
C8    N3    1.474411 S    
C18   C34   1.487246 S    
C36   H24   1.112932 S    
O14   V3    2.002800 S    
C14   O25   1.384555 S    
C5    C6    1.582669 S    
C7    C11   1.551810 S    
V4    O20   2.158085 S    
N3    O28   1.301253 A    
O3    C4    1.295341 A    
O1    V2    2.005394 S    
O12   V3    2.004936 S    
O6    V2    2.001444 S    
O9    V2    2.005006 S    
O17   V4    1.707302 S    
C19   H12   1.082881 S    
O2    V1    2.002757 S    
V3    O20   1.706253 S    
C25   H16   1.082724 S    
C36   H25   1.109009 S    
C35   H22   1.111383 S    
C26   H17   1.082750 S    
C11   N2    1.470272 S    
O1    C2    1.297131 A    
C6    C10   1.551754 S    
O18   C33   1.300673 A    
O5    V1    2.002434 S    
O8    C3    1.302402 A    
O11   C32   1.295897 A    
C13   C18   1.403875 A    
C7    H8    1.107897 S    
H3    C7    1.111332 S    
O7    V2    1.708322 S    
C5    C9    1.585940 S    
O4    V1    2.004969 S    
C16   C17   1.401396 A    
O3    V1    2.005437 S    
V1    O10   1.706236 S    
C36   H23   1.110127 S    
C31   O16   1.297195 A    
C5    N1    1.484425 S    
C13   C14   1.411873 A    
O13   C34   1.296393 A    
C6    H2    1.111058 S    
C7    C9    1.564789 S    
C4    C9    1.525396 S    
N3    O27   1.301282 A    
C12   H7    1.109326 S    
C23   H15   1.082964 S    
C10   C11   1.565280 S    
O26   C36   1.418131 S    
C10   C33   1.521469 S    
V2    O10   2.158180 S    
