data_mof_unit_5380.cif
_audit_creation_date              2012-12-10T21:26:07-0500
_audit_creation_method            fapswitch 2.2
_symmetry_space_group_name_H-M    P1
_symmetry_Int_Tables_number       1
_space_group_crystal_system       triclinic
_cell_length_a                    8.572897
_cell_length_b                    16.117194
_cell_length_c                    16.800171
_cell_angle_alpha                 86.727832
_cell_angle_beta                  90.754881
_cell_angle_gamma                 101.132672
_cell_volume                      2273.89788996

loop_
_atom_site_label
_atom_site_type_symbol
_atom_type_description
_atom_site_fract_x
_atom_site_fract_y
_atom_site_fract_z
_atom_type_partial_charge
C1    C     C_R   0.494919 0.487738 0.652588 0.865900
C2    C     C_R   0.370698 0.148932 0.434414 -0.302544
C3    C     C_R   0.619533 0.763330 0.562181 -0.001409
C4    C     C_R   0.379033 0.236489 0.438505 -0.003211
C5    C     C_R   0.800902 0.521844 0.502020 0.965622
C6    C     C_R   0.199084 0.477936 0.500259 0.958423
C7    C     C_2   0.966927 0.533741 0.503228 -0.392509
C8    C     C_2   0.033096 0.465776 0.502899 -0.396130
C9    C     C_R   0.478752 0.476300 0.737934 -0.081813
C10   C     C_R   0.506829 0.521411 0.260916 -0.082342
C11   C     C_R   0.357384 0.504903 0.777933 0.057959
C12   C     C_R   0.505802 0.512222 0.347126 0.872994
C13   C     C_R   0.600135 0.478765 0.215345 0.067644
C14   C     C_R   0.350809 0.493916 0.860499 -0.218296
C15   C     C_R   0.579394 0.481233 0.133374 -0.216120
C16   C     C_R   0.464853 0.456928 0.902728 0.238841
C17   C     C_R   0.467182 0.524111 0.096345 0.237771
C18   C     C_R   0.582648 0.425667 0.862626 0.105947
C19   C     C_R   0.384620 0.572879 0.140912 0.100517
C20   C     C_R   0.586191 0.434708 0.779423 -0.267678
C21   C     C_R   0.405719 0.570685 0.223805 -0.268487
C22   C     C_3   0.727676 0.433874 0.250570 -0.416731
C23   C     C_R   0.423756 0.757364 0.461029 -0.020522
C24   C     C_3   0.871102 0.497941 0.278475 -0.340598
C25   C     C_3   0.011457 0.455325 0.299907 -0.861142
C26   C     C_3   0.233138 0.546050 0.734798 -0.405881
C27   C     C_3   0.278266 0.642853 0.735317 -0.303531
C28   C     C_3   0.165884 0.685102 0.682963 -0.869185
C29   C     C_3   0.706893 0.388392 0.911102 -0.402957
C30   C     C_3   0.841384 0.364441 0.862954 -0.371720
C31   C     C_3   0.964796 0.334025 0.917770 -0.870929
C32   C     C_3   0.270670 0.622322 0.098291 -0.398188
C33   C     C_3   0.205440 0.684448 0.148872 -0.368840
C34   C     C_R   0.576416 0.242622 0.538861 -0.016547
C35   C     C_3   0.098473 0.733001 0.099308 -0.880184
C36   C     C_R   0.427419 0.844771 0.463555 -0.273659
C37   C     C_R   0.571881 0.155094 0.536726 -0.274005
C38   C     C_R   0.530878 0.893099 0.517155 0.329506
C39   C     C_R   0.467260 0.106629 0.483685 0.328856
C40   C     C_R   0.626961 0.850757 0.566680 -0.302901
H1    H     H_    0.034185 0.598319 0.502721 0.174526
H2    H     H_    0.350212 0.873758 0.423953 0.153087
H3    H     H_    0.707703 0.885464 0.608677 0.145383
H4    H     H_    0.288957 0.114106 0.392896 0.146243
H5    H     H_    0.694119 0.731388 0.600679 0.130553
H6    H     H_    0.303914 0.268377 0.400281 0.135261
H7    H     H_    0.975529 0.402107 0.344934 0.265812
H8    H     H_    0.056090 0.430806 0.245907 0.258649
H9    H     H_    0.109195 0.502118 0.324987 0.241849
H10   H     H_    0.908084 0.547409 0.230071 0.222087
H11   H     H_    0.838316 0.529211 0.331244 0.217480
H12   H     H_    0.965730 0.401197 0.503263 0.179222
H13   H     H_    0.680307 0.387812 0.299994 0.227681
H14   H     H_    0.769114 0.395638 0.204973 0.195724
H15   H     H_    0.175597 0.669635 0.619873 0.271974
H16   H     H_    0.041109 0.663532 0.703299 0.253814
H17   H     H_    0.198404 0.754900 0.686508 0.247679
H18   H     H_    0.273162 0.662718 0.797376 0.208592
H19   H     H_    0.401552 0.665130 0.712998 0.239931
H20   H     H_    0.216620 0.525989 0.672643 0.208396
H21   H     H_    0.115985 0.524275 0.764308 0.181035
H22   H     H_    0.019496 0.384853 0.957178 0.259228
H23   H     H_    0.651833 0.449520 0.097670 0.146617
H24   H     H_    0.908741 0.277167 0.954969 0.261161
H25   H     H_    0.060127 0.317256 0.881314 0.255646
H26   H     H_    0.791492 0.313003 0.823166 0.224916
H27   H     H_    0.902293 0.420555 0.826239 0.216515
H28   H     H_    0.762261 0.435827 0.953787 0.204581
H29   H     H_    0.645236 0.331219 0.946308 0.202846
H30   H     H_    0.166253 0.770397 0.049030 0.261370
H31   H     H_    0.995665 0.688382 0.075367 0.262656
H32   H     H_    0.052786 0.777124 0.137324 0.251305
H33   H     H_    0.134205 0.649575 0.199165 0.218459
H34   H     H_    0.258896 0.515980 0.892404 0.154763
H35   H     H_    0.305733 0.730530 0.173168 0.228068
H36   H     H_    0.334245 0.659502 0.046587 0.208158
H37   H     H_    0.169488 0.576249 0.074688 0.200699
H38   H     H_    0.675270 0.412422 0.745870 0.143332
H39   H     H_    0.339394 0.604201 0.260818 0.151699
H40   H     H_    0.656643 0.279487 0.579597 0.128048
H41   H     H_    0.344292 0.720569 0.419934 0.126713
H42   H     H_    0.649419 0.126133 0.576152 0.153344
N1    N     N_2   0.470998 0.455910 0.986279 -0.206979
N2    N     N_2   0.442467 0.521770 0.013253 -0.206816
N3    N     N_R   0.519180 0.718290 0.509780 -0.085667
N4    N     N_R   0.480820 0.281710 0.490220 -0.089314
N5    N     N_2   0.543062 0.982762 0.523467 -0.189400
N6    N     N_2   0.454807 0.016930 0.477484 -0.189152
O1    O     O_R   0.493140 0.422050 0.612640 -0.620214
O2    O     O_R   0.506860 0.577950 0.387360 -0.623566
O3    O     O_R   0.505450 0.562230 0.618920 -0.621969
O4    O     O_R   0.494550 0.437770 0.381080 -0.623771
O5    O     O_R   0.723530 0.446300 0.497600 -0.617231
O6    O     O_R   0.276470 0.553700 0.502400 -0.623025
O7    O     O_R   0.735850 0.586490 0.503880 -0.627440
O8    O     O_R   0.264150 0.413510 0.496120 -0.622358
Zn1   Zn    Zn3+2 0.491780 0.406400 0.495810 0.932563
Zn2   Zn    Zn3+2 0.508220 0.593600 0.504190 0.927316

loop_
_geom_bond_atom_site_label_1
_geom_bond_atom_site_label_2
_ccdc_geom_bond_type
N5    N6    D    
C3    N3    A    
C34   C37   A    
C36   H2    S    
C28   H16   S    
O7    Zn2   S    
C7    C8    D    
C22   H14   S    
C4    H6    S    
C28   H17   S    
C35   H32   S    
C14   H34   S    
C12   O2    A    
C19   C21   A    
C26   H21   S    
C30   C31   S    
C11   C14   A    
C4    N4    A    
O6    Zn2   S    
C31   H25   S    
C34   N4    A    
N4    Zn1   S    
N3    Zn2   S    
C34   H40   S    
C32   H37   S    
C2    C39   A    
C33   H35   S    
C40   H3    S    
C35   H30   S    
C2    H4    S    
C6    O6    A    
C25   H7    S    
C18   C20   A    
C30   H27   S    
C24   H11   S    
C35   H31   S    
C1    O3    A    
C31   H22   S    
C39   N6    S    
C19   C32   S    
C5    O7    A    
C28   H15   S    
O4    Zn1   S    
C22   H13   S    
C29   H29   S    
C10   C21   A    
C24   H10   S    
C1    C9    S    
C24   C25   S    
C5    C7    S    
C17   C19   A    
C6    C8    S    
C11   C26   S    
C3    H5    S    
C16   N1    S    
O1    Zn1   S    
C2    C4    A    
C29   C30   S    
C29   H28   S    
C9    C20   A    
N1    N2    D    
O8    Zn1   S    
C21   H39   S    
C26   C27   S    
C18   C29   S    
C9    C11   A    
C25   H8    S    
C30   H26   S    
C10   C12   S    
C33   H33   S    
C3    C40   A    
C6    O8    A    
C13   C15   A    
C14   C16   A    
C37   H42   S    
O5    Zn1   S    
C15   C17   A    
C8    H12   S    
C1    O1    A    
C23   H41   S    
C31   H24   S    
C12   O4    A    
C10   C13   A    
C32   H36   S    
C5    O5    A    
C20   H38   S    
C38   N5    S    
C17   N2    S    
C32   C33   S    
C36   C38   A    
C37   C39   A    
C27   H19   S    
C38   C40   A    
C27   H18   S    
C33   C35   S    
C13   C22   S    
C22   C24   S    
C7    H1    S    
O3    Zn2   S    
C25   H9    S    
C16   C18   A    
C23   C36   A    
C23   N3    A    
C27   C28   S    
C15   H23   S    
C26   H20   S    
O2    Zn2   S    
