data_mof_unit_50185.cif
_audit_creation_date              2012-12-11T17:05:27-0500
_audit_creation_method            fapswitch 2.2
_symmetry_space_group_name_H-M    P1
_symmetry_Int_Tables_number       1
_space_group_crystal_system       triclinic
_cell_length_a                    6.998221
_cell_length_b                    14.804009
_cell_length_c                    15.832471
_cell_angle_alpha                 90.098253
_cell_angle_beta                  90.039687
_cell_angle_gamma                 89.864134
_cell_volume                      1640.26392068

loop_
_atom_site_label
_atom_site_type_symbol
_atom_type_description
_atom_site_fract_x
_atom_site_fract_y
_atom_site_fract_z
_atom_type_partial_charge
O1    O     O_R   0.494380 0.415640 0.412830 -0.542192
O2    O     O_R   0.823960 0.405540 0.586560 -0.550809
O3    O     O_R   0.994270 0.584360 0.587170 -0.542744
C1    C     C_R   0.655881 0.386690 0.617565 0.676429
O4    O     O_R   0.824090 0.404620 0.413450 -0.548613
O5    O     O_R   0.994400 0.583430 0.412820 -0.501777
C2    C     C_R   0.655792 0.384277 0.383284 0.731207
O6    O     O_R   0.494250 0.416570 0.587180 -0.543112
O7    O     O_3   0.660800 0.558670 0.500000 -0.349112
V1    V     V_3+5 0.935650 0.489120 0.500000 1.409537
O8    O     O_R   0.324110 0.594460 0.413440 -0.528864
C3    C     C_R   0.155048 0.613070 0.382060 0.728019
O9    O     O_R   0.323980 0.595380 0.586550 -0.545352
C4    C     C_R   0.156313 0.613481 0.618358 0.693025
V2    V     V_3+5 0.435660 0.510880 0.500000 1.425674
O10   O     O_3   0.160640 0.441330 0.500000 -0.390679
C5    C     C_3   0.019867 0.647179 0.764114 -0.342745
H1    H     H_    0.874355 0.631411 0.739884 0.163572
H2    H     H_    0.079702 0.583467 0.790417 0.119405
C6    C     C_3   0.003121 0.719129 0.835627 -0.324561
H3    H     H_    0.039732 0.689125 0.897386 0.089736
H4    H     H_    0.850447 0.738428 0.842396 0.240019
C7    C     C_3   0.065833 0.770923 0.657400 -0.403890
C8    C     C_3   0.350178 0.700398 0.728352 -0.384960
C9    C     C_3   0.148699 0.681238 0.690693 0.023758
C10   C     C_3   0.123701 0.804845 0.814559 -0.076687
C11   C     C_3   0.039342 0.841788 0.729753 0.327444
C12   C     C_3   0.338452 0.777634 0.794563 0.295289
H5    H     H_    0.161972 0.799221 0.608119 0.094451
H6    H     H_    0.120874 0.903544 0.714133 0.034108
C13   C     C_R   0.277543 0.804589 0.232227 0.016338
C14   C     C_R   0.122506 0.807738 0.176476 -0.159922
C15   C     C_R   0.975297 0.744311 0.188407 -0.251449
C16   C     C_R   0.987766 0.677609 0.252111 0.512064
C17   C     C_R   0.142086 0.677735 0.310332 -0.252249
C18   C     C_R   0.285318 0.741467 0.297855 -0.088980
C19   C     C_3   0.491152 0.722290 0.280227 0.375367
C20   C     C_3   0.483575 0.792563 0.210363 -0.454466
H7    H     H_    0.508928 0.652756 0.254816 0.123068
H8    H     H_    0.502837 0.762942 0.146419 0.146149
C21   C     C_R   0.490492 0.320724 0.745268 0.032051
C22   C     C_R   0.650238 0.326249 0.692184 -0.099499
C23   C     C_R   0.807754 0.271386 0.712979 -0.192251
H9    H     H_    0.934884 0.273369 0.674778 0.148514
C24   C     C_R   0.796824 0.207885 0.778950 -0.195040
H10   H     H_    0.918126 0.166119 0.792555 0.184544
C25   C     C_R   0.624647 0.191154 0.821387 -0.101023
C26   C     C_R   0.474622 0.250705 0.803934 0.030124
C27   C     C_3   0.271506 0.234395 0.780419 0.289723
C28   C     C_3   0.284150 0.317827 0.723043 -0.502316
C29   C     C_R   0.490060 0.314471 0.257282 0.024056
C30   C     C_R   0.649099 0.319736 0.311227 -0.139466
C31   C     C_R   0.796851 0.256248 0.298822 -0.314089
H11   H     H_    0.917689 0.255362 0.341428 0.145119
C32   C     C_R   0.779962 0.186360 0.237965 0.414822
C33   C     C_R   0.621369 0.182305 0.183294 -0.159336
C34   C     C_R   0.473774 0.244209 0.197844 -0.077284
C35   C     C_3   0.276040 0.223573 0.228348 0.384073
C36   C     C_3   0.286026 0.308362 0.283226 -0.498140
H12   H     H_    0.170037 0.229699 0.176390 0.098563
H13   H     H_    0.263833 0.301486 0.352021 0.165391
H14   H     H_    0.202390 0.365216 0.256162 0.126144
O11   O     O_R   0.771490 0.080820 0.910070 -0.543329
O12   O     O_R   0.441590 0.092730 0.083780 -0.539813
O13   O     O_R   0.271350 0.913900 0.084390 -0.533745
C37   C     C_R   0.609974 0.113397 0.114140 0.721746
O14   O     O_R   0.441780 0.091820 0.910670 -0.531890
O15   O     O_R   0.271540 0.912980 0.910040 -0.525456
C38   C     C_R   0.610899 0.116790 0.884564 0.685814
O16   O     O_R   0.771300 0.081740 0.084420 -0.518922
O17   O     O_3   0.604960 0.938700 0.997240 -0.363653
V3    V     V_3+5 0.330090 0.008230 0.997220 1.494584
O18   O     O_R   0.941820 0.901930 0.910640 -0.514014
C39   C     C_R   0.111354 0.877608 0.883508 0.691391
O19   O     O_R   0.941630 0.902840 0.083750 -0.549536
C40   C     C_R   0.111408 0.877889 0.109615 0.716070
V4    V     V_3+5 0.830090 0.986410 0.997190 1.491658
O20   O     O_3   0.105080 0.055990 0.997200 -0.373571
H15   H     H_    0.399005 0.837581 0.761797 0.094607
H16   H     H_    0.855544 0.742902 0.145190 0.136106
O21   O     O_3   0.851491 0.610412 0.253637 -0.545101
C41   C     C_3   0.925386 0.530806 0.216161 0.071952
H17   H     H_    0.964660 0.482656 0.266925 0.138540
H18   H     H_    0.053944 0.541605 0.175535 0.080488
C42   C     C_3   0.771348 0.487964 0.161616 -0.746306
H19   H     H_    0.817952 0.419712 0.140755 0.184460
H20   H     H_    0.636313 0.481970 0.197879 0.223343
H21   H     H_    0.745235 0.530471 0.105137 0.210157
O22   O     O_3   0.621897 0.738819 0.347551 -0.516233
C43   C     C_3   0.581535 0.817229 0.395423 0.169505
H22   H     H_    0.434209 0.817167 0.421677 0.113533
H23   H     H_    0.604367 0.878542 0.357099 0.106171
C44   C     C_3   0.717128 0.821456 0.469702 -0.750596
H24   H     H_    0.866842 0.809914 0.449033 0.223337
H25   H     H_    0.704788 0.889653 0.497923 0.148175
H26   H     H_    0.677834 0.769586 0.517181 0.216311
H27   H     H_    0.567068 0.854851 0.221124 0.159366
H28   H     H_    0.177736 0.245464 0.836042 0.071559
O23   O     O_3   0.241658 0.147490 0.742443 -0.554028
C45   C     C_3   0.306958 0.138964 0.657950 0.137032
H29   H     H_    0.455032 0.164467 0.650628 0.137968
H30   H     H_    0.208708 0.174367 0.613886 0.105722
C46   C     C_3   0.306016 0.040317 0.631700 -0.801111
H31   H     H_    0.395751 0.030715 0.574715 0.182065
H32   H     H_    0.363968 0.997790 0.683181 0.228407
H33   H     H_    0.158447 0.018834 0.616186 0.210285
H34   H     H_    0.207399 0.377175 0.749808 0.139622
H35   H     H_    0.258411 0.309747 0.654606 0.168665
O24   O     O_3   0.905900 0.114865 0.238735 -0.526115
C47   C     C_3   0.860837 0.058436 0.307721 0.126359
H36   H     H_    0.704728 0.050056 0.316232 0.096147
H37   H     H_    0.922569 0.086357 0.366873 0.117001
C48   C     C_3   0.942412 0.965344 0.291660 -0.666044
H38   H     H_    0.089045 0.970957 0.266259 0.255806
H39   H     H_    0.946226 0.925878 0.350975 0.166508
H40   H     H_    0.852150 0.929756 0.244932 0.199959
O25   O     O_3   0.266649 0.136806 0.268479 -0.518743
C49   C     C_3   0.330566 0.133461 0.353604 0.172407
H41   H     H_    0.223672 0.164976 0.396359 0.096036
H42   H     H_    0.470599 0.167021 0.361532 0.108015
C50   C     C_3   0.354687 0.035617 0.381453 -0.813905
H43   H     H_    0.392686 0.992486 0.326624 0.228683
H44   H     H_    0.470094 0.030474 0.429327 0.166155
H45   H     H_    0.221416 0.009967 0.410530 0.210948
H46   H     H_    0.926542 0.756702 0.626361 0.171022
O26   O     O_3   0.842776 0.863337 0.738859 -0.531537
C51   C     C_3   0.778970 0.917389 0.670668 0.062811
H47   H     H_    0.634305 0.894423 0.651702 0.132984
H48   H     H_    0.872109 0.914119 0.613836 0.105283
C52   C     C_3   0.769196 0.014624 0.698046 -0.722055
H49   H     H_    0.910253 0.034981 0.723196 0.240248
H50   H     H_    0.731868 0.058388 0.643608 0.178722
H51   H     H_    0.659473 0.021178 0.747725 0.228404
H52   H     H_    0.450853 0.720954 0.677450 0.138562
H53   H     H_    0.410083 0.637633 0.756259 0.149412
O27   O     O_3   0.466496 0.765181 0.863714 -0.532102
C53   C     C_3   0.405701 0.701570 0.924169 0.162240
H54   H     H_    0.345446 0.639591 0.895048 0.104148
H55   H     H_    0.300492 0.733547 0.967440 0.100803
C54   C     C_3   0.576125 0.672971 0.977480 -0.771338
H56   H     H_    0.650611 0.733329 0.002995 0.230395
H57   H     H_    0.526309 0.630769 0.030964 0.169067
H58   H     H_    0.677744 0.632880 0.938688 0.206202

loop_
_geom_bond_atom_site_label_1
_geom_bond_atom_site_label_2
_ccdc_geom_bond_type
C32   C33   A    
C44   H24   S    
O18   C39   A    
O2    C1    A    
C17   C18   A    
C54   H58   S    
C1    O6    A    
O12   V3    S    
O21   C41   S    
C34   C35   S    
C42   H19   S    
C53   H55   S    
C10   C11   S    
O26   C51   S    
O13   C40   A    
C1    C22   S    
C41   C42   S    
C7    H5    S    
C18   C19   S    
C54   H57   S    
C2    C30   S    
O14   V3    S    
O5    C3    A    
C11   O26   S    
O15   C39   A    
V2    O10   S    
C5    C6    S    
C33   C34   A    
C16   C17   A    
C21   C22   A    
C24   C25   A    
C12   H15   S    
C49   H41   S    
C25   C38   S    
C50   H45   S    
V3    O20   S    
C5    H2    S    
C27   H28   S    
C47   H36   S    
O8    V2    S    
C13   C14   A    
C29   C34   A    
C16   O21   S    
C7    C11   S    
O7    V1    S    
C7    H46   S    
C48   H40   S    
C42   H20   S    
C44   H25   S    
O1    C2    A    
O9    C4    A    
C32   O24   S    
C11   H6    S    
C28   H35   S    
C20   H27   S    
C5    H1    S    
C47   H37   S    
C31   C32   A    
C53   C54   S    
C36   H13   S    
C29   C30   A    
C25   C26   A    
O11   C38   A    
C8    C9    S    
O4    C2    A    
C35   C36   S    
V4    O20   S    
C45   C46   S    
O14   C38   A    
C49   C50   S    
O12   C37   A    
C52   H50   S    
O19   C40   A    
C51   H48   S    
C14   C40   S    
C19   C20   S    
C27   O23   S    
O19   V4    S    
C43   H23   S    
O23   C45   S    
O15   V3    S    
C45   H30   S    
C15   C16   A    
C46   H32   S    
C54   H56   S    
C3    C17   S    
C23   C24   A    
C47   C48   S    
C50   H43   S    
O3    C4    A    
O1    V2    S    
C8    H53   S    
C26   C27   S    
C6    H4    S    
C41   H17   S    
O6    V2    S    
C41   H18   S    
O9    V2    S    
C23   H9    S    
C28   H34   S    
C52   H51   S    
C29   C36   S    
C22   C23   A    
C51   H47   S    
O2    V1    S    
C21   C28   S    
O17   V4    S    
C30   C31   A    
C43   C44   S    
C48   H38   S    
O11   V4    S    
C42   H21   S    
C8    H52   S    
C36   H14   S    
C12   O27   S    
C8    C12   S    
O27   C53   S    
O5    V1    S    
O8    C3    A    
C15   H16   S    
C31   H11   S    
C44   H26   S    
O13   V3    S    
C53   H54   S    
C10   C12   S    
C13   C20   S    
C19   O22   S    
C5    C9    S    
C14   C15   A    
C52   H49   S    
O7    V2    S    
C51   C52   S    
O17   V3    S    
C19   H7    S    
O3    V1    S    
V1    O10   S    
O25   C49   S    
C20   H8    S    
C43   H22   S    
C37   O16   A    
C6    C10   S    
C33   C37   S    
C45   H29   S    
C10   C39   S    
C21   C26   A    
C46   H33   S    
C35   O25   S    
C4    C9    S    
C49   H42   S    
C50   H44   S    
C24   H10   S    
O4    V1    S    
C7    C9    S    
C6    H3    S    
C27   C28   S    
C46   H31   S    
O18   V4    S    
C13   C18   A    
C48   H39   S    
O22   C43   S    
O24   C47   S    
C35   H12   S    
O16   V4    S    
