data_mof_unit_18606.cif
_audit_creation_date              2012-12-10T20:53:05-0500
_audit_creation_method            fapswitch 2.2
_symmetry_space_group_name_H-M    P1
_symmetry_Int_Tables_number       1
_space_group_crystal_system       triclinic
_cell_length_a                    18.238114
_cell_length_b                    18.264302
_cell_length_c                    18.271323
_cell_angle_alpha                 60.133604
_cell_angle_beta                  60.11198
_cell_angle_gamma                 60.117636
_cell_volume                      4315.46480874

loop_
_atom_site_label
_atom_site_type_symbol
_atom_type_description
_atom_site_fract_x
_atom_site_fract_y
_atom_site_fract_z
_atom_type_partial_charge
C1    C     C_R   0.389855 0.109957 0.110200 0.480850
C2    C     C_R   0.357748 0.809666 0.040454 0.320370
C3    C     C_R   0.033828 0.556645 0.912319 -0.010734
C4    C     C_R   0.440236 0.086306 0.968150 -0.011182
C5    C     C_R   0.559304 0.913421 0.031996 0.000993
C6    C     C_R   0.945878 0.946004 0.554806 0.017594
C7    C     C_R   0.053872 0.054133 0.445469 0.016771
C8    C     C_R   0.946035 0.554533 0.945891 0.017844
C9    C     C_R   0.053947 0.445383 0.054086 0.017062
C10   C     C_R   0.554281 0.946284 0.945681 0.014811
C11   C     C_R   0.445711 0.053714 0.054239 0.021943
C12   C     C_3   0.799530 0.302151 0.631351 -0.116886
C13   C     C_R   0.177369 0.986838 0.646669 0.322866
C14   C     C_3   0.147904 0.688082 0.413230 -0.116599
C15   C     C_3   0.303545 0.599456 0.855717 -0.117542
C16   C     C_3   0.695157 0.404669 0.139474 -0.115568
C17   C     C_3   0.651645 0.770195 0.300378 -0.091338
C18   C     C_3   0.345588 0.224837 0.702405 -0.097733
C19   C     C_3   0.063694 0.672537 0.036265 -0.072083
C20   C     C_3   0.936280 0.326329 0.963512 -0.072676
C21   C     C_3   0.786331 0.122063 0.865076 -0.086109
C22   C     C_3   0.319766 0.960032 0.962854 -0.069214
C23   C     C_3   0.031522 0.079520 0.671476 -0.085364
C24   C     C_R   0.823509 0.010026 0.354270 0.320159
C25   C     C_3   0.967635 0.913800 0.332726 -0.072932
C26   C     C_R   0.994513 0.621609 0.258883 0.174721
C27   C     C_R   0.005711 0.378111 0.740887 0.179493
C28   C     C_R   0.624381 0.270060 0.965004 0.161934
C29   C     C_R   0.378746 0.736034 0.018662 0.174896
C30   C     C_R   0.255437 0.003222 0.622775 0.174511
C31   C     C_R   0.745037 0.994247 0.378383 0.173412
C32   C     C_R   0.963457 0.556813 0.339541 0.002564
C33   C     C_R   0.610150 0.890087 0.889725 0.481254
C34   C     C_R   0.036695 0.443155 0.660490 0.005020
C35   C     C_R   0.548879 0.347745 0.953999 0.000915
C36   C     C_R   0.448150 0.655962 0.041815 0.002554
C37   C     C_R   0.335655 0.968099 0.559987 0.003186
C38   C     C_R   0.664689 0.031295 0.439755 0.001747
C39   C     C_R   0.911432 0.517335 0.344186 -0.137989
C40   C     C_R   0.088647 0.482450 0.656236 -0.140242
C41   C     C_R   0.495553 0.355951 0.913698 -0.132339
C42   C     C_R   0.494395 0.649693 0.088302 -0.133096
C43   C     C_R   0.337522 0.915112 0.523546 -0.132745
C44   C     C_R   0.110337 0.109886 0.389742 0.484097
C45   C     C_R   0.663207 0.085281 0.474791 -0.132973
C46   C     C_R   0.889550 0.542466 0.269960 -0.176787
C47   C     C_R   0.110551 0.456894 0.730574 -0.174358
C48   C     C_R   0.516586 0.288132 0.884621 -0.166291
C49   C     C_R   0.471456 0.721563 0.112623 -0.159798
C50   C     C_R   0.260952 0.896348 0.549638 -0.162072
C51   C     C_R   0.740332 0.103171 0.448636 -0.161293
C52   C     C_R   0.920589 0.606061 0.189942 -0.113946
C53   C     C_R   0.079574 0.393064 0.810342 -0.115842
C54   C     C_R   0.590831 0.211156 0.895691 -0.112745
C55   C     C_R   0.889430 0.890299 0.610315 0.485413
C56   C     C_R   0.403350 0.801038 0.089352 -0.107384
C57   C     C_R   0.181324 0.931576 0.611042 -0.101965
C58   C     C_R   0.820022 0.066246 0.388428 -0.100434
C59   C     C_R   0.934645 0.581488 0.474027 -0.131607
C60   C     C_R   0.065793 0.418724 0.525766 -0.126673
C61   C     C_R   0.578770 0.476836 0.931011 -0.130580
C62   C     C_R   0.420983 0.523480 0.068764 -0.129627
C63   C     C_R   0.472382 0.936712 0.582803 -0.118791
C64   C     C_R   0.527541 0.063305 0.417297 -0.116318
C65   C     C_R   0.948542 0.553619 0.554003 0.022865
C66   C     C_R   0.109654 0.389736 0.110568 0.485579
C67   C     C_R   0.051776 0.446510 0.445882 0.030242
C68   C     C_R   0.553555 0.554094 0.948318 0.021741
C69   C     C_R   0.446305 0.446079 0.051561 0.021591
C70   C     C_R   0.554025 0.948363 0.553586 0.033047
C71   C     C_R   0.445925 0.051623 0.446478 0.034284
C72   C     C_R   0.014959 0.471787 0.580164 -0.011739
C73   C     C_R   0.985418 0.528387 0.419674 -0.010482
C74   C     C_R   0.474024 0.578017 0.017654 -0.014727
C75   C     C_R   0.525404 0.422614 0.981620 -0.011356
C76   C     C_R   0.581984 0.012399 0.470290 -0.009252
C77   C     C_R   0.890316 0.610258 0.889445 0.485710
C78   C     C_R   0.417971 0.987545 0.529768 -0.008099
C79   C     C_R   0.108873 0.390146 0.389984 0.510087
C80   C     C_R   0.891231 0.609874 0.610002 0.506108
C81   C     C_R   0.390139 0.390004 0.108843 0.501305
C82   C     C_R   0.609838 0.610032 0.891147 0.503552
C83   C     C_R   0.390039 0.108832 0.390114 0.509004
C84   C     C_R   0.609953 0.891144 0.609900 0.511658
C85   C     C_R   0.176897 0.929928 0.390941 -0.157728
C86   C     C_R   0.822977 0.069825 0.609856 -0.158633
C87   C     C_R   0.930707 0.388136 0.175336 -0.157370
C88   C     C_R   0.974911 0.644699 0.183160 0.323500
C89   C     C_R   0.069399 0.611376 0.824403 -0.157598
C90   C     C_R   0.382313 0.172841 0.934647 -0.152469
C91   C     C_R   0.616036 0.826247 0.066050 -0.141868
C92   C     C_R   0.210126 0.842416 0.391788 -0.093307
C93   C     C_R   0.789815 0.157071 0.609560 -0.122054
C94   C     C_R   0.844213 0.386563 0.207183 -0.094501
C95   C     C_R   0.156104 0.612488 0.792276 -0.096573
C96   C     C_R   0.377775 0.204281 0.849742 -0.125284
C97   C     C_R   0.620044 0.794419 0.151260 -0.116963
C98   C     C_R   0.156497 0.788296 0.445692 0.278754
C99   C     C_R   0.025305 0.354612 0.816748 0.321804
C100  C     C_R   0.843747 0.211310 0.555423 0.277360
C101  C     C_R   0.790589 0.439570 0.153101 0.276583
C102  C     C_R   0.209788 0.559271 0.846289 0.275961
C103  C     C_R   0.431339 0.150505 0.794910 0.283235
C104  C     C_R   0.567308 0.848557 0.205771 0.297171
C105  C     C_R   0.069868 0.821637 0.501639 -0.111582
C106  C     C_R   0.930013 0.178168 0.499619 -0.094768
C107  C     C_R   0.823006 0.497639 0.067794 -0.112016
C108  C     C_R   0.177207 0.501773 0.931871 -0.111571
C109  C     C_R   0.491632 0.066741 0.825834 -0.085836
C110  C     C_R   0.646180 0.202242 0.934351 0.315397
C111  C     C_R   0.508227 0.933078 0.174176 -0.051501
C112  C     C_R   0.033984 0.911115 0.500269 -0.051590
C113  C     C_R   0.965828 0.088905 0.500344 -0.055699
C114  C     C_R   0.911677 0.498456 0.033079 -0.052945
C115  C     C_R   0.088405 0.501238 0.966777 -0.053551
C116  C     C_R   0.495455 0.032439 0.913122 -0.062639
C117  C     C_R   0.504562 0.967523 0.086795 -0.037464
C118  C     C_R   0.088286 0.965848 0.444582 -0.008899
C119  C     C_R   0.911508 0.034162 0.555906 -0.010366
C120  C     C_R   0.966226 0.443077 0.087552 -0.011079
H1    H     H_    0.882448 0.643718 0.454982 0.154158
H2    H     H_    0.031338 0.653164 0.778959 0.137080
H3    H     H_    0.340971 0.218364 0.972565 0.140435
H4    H     H_    0.656747 0.780560 0.028306 0.137265
H5    H     H_    0.278236 0.816376 0.350511 0.140855
H6    H     H_    0.721463 0.182946 0.650482 0.124373
H7    H     H_    0.818664 0.343900 0.274489 0.143115
H8    H     H_    0.181781 0.654879 0.724845 0.142532
H9    H     H_    0.333740 0.271500 0.826604 0.113194
H10   H     H_    0.663092 0.726711 0.174779 0.110230
H11   H     H_    0.031970 0.776181 0.546763 0.123553
H12   H     H_    0.117990 0.356490 0.544802 0.153999
H13   H     H_    0.968195 0.223510 0.456012 0.137528
H14   H     H_    0.777501 0.542391 0.029941 0.124901
H15   H     H_    0.222712 0.457395 0.969782 0.125286
H16   H     H_    0.535073 0.028970 0.780181 0.146340
H17   H     H_    0.465169 0.971080 0.219636 0.142476
H18   H     H_    0.901807 0.625694 0.133476 0.123418
H19   H     H_    0.098374 0.373091 0.866906 0.121684
H20   H     H_    0.605232 0.158247 0.874455 0.127814
H21   H     H_    0.385591 0.855460 0.110198 0.117725
H22   H     H_    0.122980 0.915221 0.631385 0.122785
H23   H     H_    0.638706 0.460341 0.875865 0.151336
H24   H     H_    0.878858 0.081890 0.367935 0.124941
H25   H     H_    0.887250 0.467473 0.405718 0.150838
H26   H     H_    0.112841 0.532420 0.594913 0.135782
H27   H     H_    0.437742 0.415325 0.904409 0.138413
H28   H     H_    0.547691 0.588599 0.106554 0.138405
H29   H     H_    0.398651 0.887895 0.475197 0.149925
H30   H     H_    0.602014 0.113807 0.522201 0.149647
H31   H     H_    0.847995 0.512900 0.274631 0.140292
H32   H     H_    0.152117 0.486277 0.726163 0.140682
H33   H     H_    0.475212 0.295464 0.853273 0.141608
H34   H     H_    0.360682 0.540467 0.123426 0.155840
H35   H     H_    0.506146 0.715331 0.150259 0.139202
H36   H     H_    0.263475 0.853986 0.522505 0.140915
H37   H     H_    0.738226 0.146108 0.474820 0.142344
H38   H     H_    0.862324 0.262063 0.648539 0.119988
H39   H     H_    0.742989 0.279174 0.687156 0.112197
H40   H     H_    0.782952 0.372491 0.623146 0.164691
H41   H     H_    0.150046 0.736560 0.344513 0.143121
H42   H     H_    0.077457 0.692840 0.457601 0.113087
H43   H     H_    0.182732 0.619835 0.408329 0.162185
H44   H     H_    0.294673 0.558747 0.927536 0.118258
H45   H     H_    0.451966 0.886254 0.646119 0.154005
H46   H     H_    0.254604 0.668700 0.848932 0.143162
H47   H     H_    0.371753 0.604310 0.823794 0.163771
H48   H     H_    0.628265 0.396507 0.173211 0.162115
H49   H     H_    0.746424 0.337479 0.138765 0.139160
H50   H     H_    0.698742 0.451280 0.070024 0.117543
H51   H     H_    0.702942 0.800780 0.243385 0.157254
H52   H     H_    0.671375 0.699470 0.307293 0.119698
H53   H     H_    0.649741 0.769603 0.362305 0.165127
H54   H     H_    0.322339 0.295822 0.696732 0.124097
H55   H     H_    0.296706 0.191212 0.759660 0.141052
H56   H     H_    0.548005 0.113710 0.353954 0.153984
H57   H     H_    0.347929 0.225074 0.640447 0.168133
H58   H     H_    0.096643 0.721359 0.978892 0.171730
H59   H     H_    0.027456 0.659857 0.012015 0.114899
H60   H     H_    0.117706 0.610160 0.057547 0.142222
H61   H     H_    0.972124 0.339464 0.987807 0.114687
H62   H     H_    0.903768 0.277147 0.020819 0.172214
H63   H     H_    0.881994 0.388411 0.942329 0.143311
H64   H     H_    0.805920 0.183267 0.828625 0.131897
H65   H     H_    0.766242 0.112640 0.822828 0.087472
H66   H     H_    0.846528 0.063921 0.877413 0.187859
H67   H     H_    0.222105 0.968291 0.348722 0.134832
H68   H     H_    0.381884 0.944222 0.906176 0.145892
H69   H     H_    0.330861 0.983019 0.001362 0.113606
H70   H     H_    0.267916 0.016627 0.933454 0.178763
H71   H     H_    0.004597 0.042910 0.662428 0.109279
H72   H     H_    0.054790 0.130601 0.606900 0.153419
H73   H     H_    0.975393 0.115963 0.717928 0.148896
H74   H     H_    0.942613 0.862531 0.395896 0.142048
H75   H     H_    0.993854 0.948560 0.345014 0.114158
H76   H     H_    0.024714 0.877894 0.286188 0.177580
H77   H     H_    0.777745 0.031486 0.651841 0.137254
H78   H     H_    0.968692 0.346424 0.220848 0.137920
I1    I     I_    0.074907 0.682352 0.247894 -0.312414
I2    I     I_    0.925581 0.317498 0.751190 -0.348176
I3    I     I_    0.705636 0.252275 0.028910 -0.293830
I4    I     I_    0.307372 0.749491 0.946990 -0.306098
I5    I     I_    0.248751 0.085069 0.679014 -0.304526
I6    I     I_    0.751294 0.910137 0.325017 -0.272895
O1    O     O_3   0.250000 0.250000 0.250000 -0.442443
O2    O     O_R   0.865800 0.694910 0.573470 -0.553687
O3    O     O_R   0.305090 0.426530 0.134200 -0.551190
O4    O     O_R   0.694910 0.573470 0.865800 -0.549457
O5    O     O_R   0.426530 0.134200 0.305090 -0.534957
O6    O     O_R   0.573470 0.865800 0.694910 -0.540244
O7    O     O_R   0.134190 0.426530 0.134200 -0.560420
O8    O     O_R   0.865810 0.573470 0.865800 -0.560199
O9    O     O_R   0.426530 0.134200 0.134190 -0.529670
O10   O     O_R   0.573470 0.865800 0.865810 -0.558619
O11   O     O_R   0.134200 0.134190 0.426530 -0.560503
O12   O     O_3   0.750000 0.750000 0.750000 -0.437928
O13   O     O_R   0.865800 0.865810 0.573470 -0.561855
O14   O     O_R   0.426530 0.305080 0.134210 -0.519150
O15   O     O_R   0.573470 0.694920 0.865790 -0.525093
O16   O     O_R   0.305080 0.134210 0.426530 -0.531243
O17   O     O_R   0.694920 0.865790 0.573470 -0.530071
O18   O     O_R   0.134210 0.426530 0.305080 -0.526247
O19   O     O_R   0.865790 0.573470 0.694920 -0.522345
O20   O     O_3   0.810756 0.299595 0.550411 -0.571588
O21   O     O_3   0.192618 0.700258 0.448824 -0.568742
O22   O     O_3   0.296792 0.558771 0.811897 -0.572481
O23   O     O_R   0.305080 0.134200 0.134200 -0.551066
O24   O     O_3   0.703736 0.439423 0.187599 -0.570609
O25   O     O_3   0.565141 0.819601 0.292909 -0.575345
O26   O     O_3   0.432855 0.179353 0.708076 -0.572973
O27   O     O_3   0.003735 0.710066 0.105168 -0.517162
O28   O     O_3   0.996566 0.289026 0.894489 -0.521053
O29   O     O_3   0.718050 0.124700 0.948270 -0.514104
O30   O     O_3   0.287845 0.886886 0.019385 -0.522959
O31   O     O_3   0.099766 0.019744 0.710043 -0.523343
O32   O     O_3   0.901247 0.975515 0.292081 -0.519495
O33   O     O_R   0.694920 0.865800 0.865800 -0.540253
O34   O     O_R   0.134200 0.134200 0.305080 -0.541772
O35   O     O_R   0.865800 0.865800 0.694920 -0.544048
O36   O     O_R   0.134200 0.305080 0.134200 -0.543525
O37   O     O_R   0.865800 0.694920 0.865800 -0.542954
O38   O     O_R   0.134200 0.305090 0.426530 -0.545509
Zn1   Zn    Zn3+2 0.206620 0.206630 0.380140 0.930860
Zn2   Zn    Zn3+2 0.793380 0.793370 0.619860 0.925326
Zn3   Zn    Zn3+2 0.206630 0.380140 0.206620 0.928164
Zn4   Zn    Zn3+2 0.793370 0.619860 0.793380 0.929468
Zn5   Zn    Zn3+2 0.380140 0.206620 0.206630 0.963183
Zn6   Zn    Zn3+2 0.619860 0.793380 0.793370 0.939552
Zn7   Zn    Zn3+2 0.206620 0.206620 0.206620 0.919845
Zn8   Zn    Zn3+2 0.793380 0.793380 0.793380 0.922209

loop_
_geom_bond_atom_site_label_1
_geom_bond_atom_site_label_2
_ccdc_geom_bond_type
C85   H67   S    
C21   H64   S    
C80   O2    A    
C48   H33   S    
C13   O31   S    
O12   Zn2   S    
C20   O28   S    
C19   H59   S    
C14   H42   S    
C40   C47   A    
C44   O11   A    
C90   H3    S    
C36   C42   A    
C63   C78   A    
C1    C11   S    
O6    Zn6   S    
C6    C55   S    
C42   H28   S    
C92   H5    S    
C60   H12   S    
C82   O4    A    
C99   O28   S    
C17   H52   S    
C92   C98   A    
C21   H66   S    
C55   O13   A    
C38   C76   S    
C94   H7    S    
C53   C99   A    
C48   C54   A    
C30   I5    S    
C29   C36   A    
C35   C75   S    
C98   C105  A    
C57   H22   S    
C101  O24   S    
C77   O37   A    
C28   I3    S    
C108  C115  A    
O19   Zn4   S    
C16   H48   S    
C97   H10   S    
C107  H14   S    
O1    Zn3   S    
C84   O17   A    
C5    C10   A    
O3    Zn3   S    
O18   Zn3   S    
C84   O6    A    
C32   C39   A    
C103  C109  A    
C13   C57   A    
C89   H2    S    
C100  O20   S    
C68   C74   A    
C87   C94   A    
C46   C52   A    
C102  O22   S    
C54   C110  A    
C45   H30   S    
C79   O38   A    
C14   H43   S    
O9    Zn5   S    
C12   H38   S    
C9    C66   S    
C12   O20   S    
C38   C45   A    
O11   Zn1   S    
O12   Zn8   S    
C109  C116  A    
C25   H75   S    
C93   H6    S    
C16   H49   S    
C2    O30   S    
C106  H13   S    
C54   H20   S    
C82   O15   A    
C94   C101  A    
C50   H36   S    
C52   H18   S    
C15   H46   S    
C102  C108  A    
C86   C119  A    
C67   C73   A    
C22   H70   S    
C70   C84   S    
C59   C73   A    
C4    C90   A    
C77   O8    A    
C95   C102  A    
C8    C114  A    
C47   C53   A    
C98   O21   S    
C23   O31   S    
C18   H55   S    
C1    O23   A    
C103  O26   S    
C46   H31   S    
O36   Zn7   S    
C64   C71   A    
C65   C80   S    
C22   O30   S    
C60   C67   A    
O35   Zn8   S    
C22   H68   S    
C20   H61   S    
C7    C118  A    
C23   H73   S    
C95   H8    S    
C23   H71   S    
C23   H72   S    
C85   C92   A    
C17   H53   S    
C71   C83   S    
C45   C51   A    
C27   C34   A    
O16   Zn1   S    
C21   O29   S    
C27   I2    S    
C15   O22   S    
C9    C115  A    
C62   C69   A    
C13   C30   A    
C52   C88   A    
C69   C81   S    
C18   H57   S    
C108  H15   S    
O8    Zn4   S    
C3    C8    A    
C18   O26   S    
C32   C73   S    
C17   O25   S    
C26   C32   A    
C106  C113  A    
C28   C110  A    
C51   H37   S    
C61   C75   A    
C62   H34   S    
C30   C37   A    
C5    C117  A    
C22   H69   S    
C89   C95   A    
C107  C114  A    
C24   O32   S    
C86   C93   A    
C105  H11   S    
C112  C118  A    
C15   H44   S    
C41   H27   S    
C63   C70   A    
C27   C99   A    
C39   H25   S    
O38   Zn1   S    
C64   C76   A    
C67   C79   S    
C51   C58   A    
C113  C119  A    
C7    C44   S    
C91   C97   A    
C4    C11   A    
C21   H65   S    
C26   I1    S    
C93   C100  A    
C31   I6    S    
C83   O5    A    
C25   H76   S    
C36   C74   S    
C14   O21   S    
C39   C46   A    
C56   H21   S    
C18   H54   S    
C26   C88   A    
C105  C112  A    
C91   H4    S    
C20   H63   S    
O34   Zn7   S    
C1    O9    A    
C8    C77   S    
C34   C40   A    
O33   Zn8   S    
C64   H56   S    
C11   C117  A    
C15   H47   S    
C34   C72   S    
C6    C119  A    
C10   C116  A    
C111  H17   S    
C79   O18   A    
C20   H62   S    
C110  O29   S    
C28   C35   A    
O5    Zn5   S    
C16   O24   S    
C29   I4    S    
C66   O36   A    
C43   H29   S    
C53   H19   S    
C50   C57   A    
C6    C112  A    
C4    C116  A    
O2    Zn2   S    
O37   Zn8   S    
C12   H40   S    
C44   O34   A    
C104  C111  A    
O10   Zn6   S    
C33   O10   A    
C17   H51   S    
C43   C50   A    
C90   C96   A    
C40   H26   S    
O12   Zn6   S    
C65   C72   A    
C37   C78   S    
C100  C106  A    
O1    Zn5   S    
C81   O3    A    
C3    C89   A    
C68   C82   S    
O14   Zn5   S    
C7    C113  A    
C31   C38   A    
C61   H23   S    
C86   H77   S    
O13   Zn2   S    
C87   C120  A    
C49   C56   A    
C2    C56   A    
C59   C65   A    
C80   O19   A    
C70   C76   A    
C83   O16   A    
C61   C68   A    
O7    Zn3   S    
C104  O25   S    
C19   O27   S    
C14   H41   S    
O1    Zn7   S    
C58   H24   S    
C81   O14   A    
C41   C48   A    
C69   C75   A    
C10   C33   S    
O23   Zn7   S    
C71   C78   A    
C12   H39   S    
C49   H35   S    
C85   C118  A    
C35   C41   A    
O4    Zn4   S    
C24   C31   A    
C97   C104  A    
C33   O33   A    
C42   C49   A    
C111  C117  A    
C59   H1    S    
C16   H50   S    
C63   H45   S    
C88   O27   S    
C2    C29   A    
C47   H32   S    
C5    C91   A    
C24   C58   A    
C96   C103  A    
C19   H58   S    
C101  C107  A    
C9    C120  A    
C60   C72   A    
O15   Zn6   S    
C62   C74   A    
C3    C115  A    
C87   H78   S    
C55   O35   A    
C66   O7    A    
O1    Zn1   S    
O12   Zn4   S    
C19   H60   S    
C25   O32   S    
C37   C43   A    
C114  C120  A    
C25   H74   S    
C96   H9    S    
C109  H16   S    
O17   Zn2   S    
