data_mof_unit_27871.cif
_audit_creation_date              2012-12-11T14:41:00-0500
_audit_creation_method            fapswitch 2.2
_symmetry_space_group_name_H-M    P1
_symmetry_Int_Tables_number       1
_space_group_crystal_system       triclinic
_cell_length_a                    7.070415
_cell_length_b                    17.85892
_cell_length_c                    18.394227
_cell_angle_alpha                 90.000056
_cell_angle_beta                  90.000172
_cell_angle_gamma                 90.000868
_cell_volume                      2322.63859882

loop_
_atom_site_label
_atom_site_type_symbol
_atom_type_description
_atom_site_fract_x
_atom_site_fract_y
_atom_site_fract_z
_atom_type_partial_charge
O1    O     O_R   0.377350 0.828520 0.186660 -0.545584
O2    O     O_R   0.622650 0.171480 0.813340 -0.526925
O3    O     O_R   0.122650 0.171480 0.686660 -0.545585
O4    O     O_R   0.877350 0.828520 0.313340 -0.526925
O5    O     O_R   0.877350 0.671480 0.313340 -0.545601
O6    O     O_R   0.122650 0.328520 0.686660 -0.526927
O7    O     O_R   0.622650 0.328520 0.813340 -0.545598
O8    O     O_R   0.377350 0.671480 0.186660 -0.526926
O9    O     O_R   0.707090 0.671930 0.178410 -0.548840
O10   O     O_R   0.292910 0.328070 0.821590 -0.532003
O11   O     O_R   0.792910 0.328070 0.678410 -0.548840
O12   O     O_R   0.207090 0.671930 0.321590 -0.532001
O13   O     O_R   0.207090 0.828070 0.321590 -0.548831
O14   O     O_R   0.792910 0.171930 0.678410 -0.532014
O15   O     O_R   0.292910 0.171930 0.821590 -0.548830
O16   O     O_R   0.707090 0.828070 0.178410 -0.532014
C1    C     C_R   0.538960 0.644781 0.163126 0.696287
C2    C     C_R   0.461072 0.356344 0.835484 0.710897
C3    C     C_R   0.961040 0.355217 0.663125 0.696281
C4    C     C_R   0.038929 0.643656 0.335485 0.710890
C5    C     C_R   0.038963 0.855218 0.336875 0.696270
C6    C     C_R   0.961069 0.143657 0.664514 0.710914
C7    C     C_R   0.461037 0.144781 0.836874 0.696272
C8    C     C_R   0.538931 0.856343 0.164514 0.710919
O17   O     O_3   0.543850 0.750000 0.294270 -0.372145
O18   O     O_3   0.456150 0.250000 0.705730 -0.372154
O19   O     O_3   0.956150 0.250000 0.794270 -0.372147
O20   O     O_3   0.043850 0.750000 0.205730 -0.372157
V1    V     V_3+5 0.818700 0.750000 0.241790 1.386574
V2    V     V_3+5 0.181300 0.250000 0.758210 1.386597
V3    V     V_3+5 0.681300 0.250000 0.741790 1.386577
V4    V     V_3+5 0.318700 0.750000 0.258210 1.386600
C9    C     C_R   0.967499 0.421852 0.615582 -0.143827
C10   C     C_R   0.025985 0.577187 0.383618 -0.155871
C11   C     C_R   0.532502 0.578147 0.115583 -0.143827
C12   C     C_R   0.474017 0.422812 0.883619 -0.155875
C13   C     C_R   0.467498 0.078146 0.884415 -0.143822
C14   C     C_R   0.525994 0.922810 0.116378 -0.155889
C15   C     C_R   0.032502 0.921854 0.384416 -0.143821
C16   C     C_R   0.974004 0.077190 0.616378 -0.155886
C17   C     C_R   0.012887 0.443356 0.413517 0.317707
C18   C     C_R   0.919959 0.552935 0.581990 0.307866
C19   C     C_R   0.487109 0.556644 0.913518 0.317716
C20   C     C_R   0.580050 0.447064 0.081991 0.307871
C21   C     C_R   0.513042 0.056643 0.086476 0.317724
C22   C     C_R   0.419865 0.947071 0.918018 0.307842
C23   C     C_R   0.986960 0.943357 0.586476 0.317723
C24   C     C_R   0.080135 0.052929 0.418018 0.307842
C25   C     C_R   0.032317 0.500721 0.358635 -0.062617
C26   C     C_R   0.935836 0.497908 0.639376 -0.070830
C27   C     C_R   0.467677 0.499279 0.858637 -0.062620
C28   C     C_R   0.564168 0.502091 0.139376 -0.070832
C29   C     C_R   0.532420 0.999275 0.141357 -0.062606
C30   C     C_R   0.435765 0.002091 0.860627 -0.070832
C31   C     C_R   0.967579 0.000726 0.641357 -0.062607
C32   C     C_R   0.064234 0.997908 0.360627 -0.070832
C33   C     C_R   0.988466 0.592846 0.457061 -0.217020
C34   C     C_R   0.993446 0.405636 0.541545 -0.216089
C35   C     C_R   0.511545 0.407154 0.957061 -0.217019
C36   C     C_R   0.506555 0.594363 0.041546 -0.216090
C37   C     C_R   0.488410 0.907155 0.042942 -0.217009
C38   C     C_R   0.493522 0.094361 0.958449 -0.216085
C39   C     C_R   0.011589 0.092845 0.542941 -0.217012
C40   C     C_R   0.006479 0.905639 0.458449 -0.216085
C41   C     C_R   0.972681 0.536060 0.509542 0.039385
C42   C     C_R   0.998512 0.461790 0.488224 0.036296
C43   C     C_R   0.527329 0.463939 0.009542 0.039388
C44   C     C_R   0.501491 0.538209 0.988225 0.036290
C45   C     C_R   0.472648 0.963942 0.990460 0.039389
C46   C     C_R   0.498579 0.038208 0.011771 0.036276
C47   C     C_R   0.027352 0.036058 0.490460 0.039388
C48   C     C_R   0.001422 0.961792 0.511771 0.036277
H1    H     H_    0.011598 0.347551 0.525728 0.171098
H2    H     H_    0.973801 0.650916 0.473447 0.171061
H3    H     H_    0.488400 0.652448 0.025730 0.171100
H4    H     H_    0.526215 0.349084 0.973446 0.171063
H5    H     H_    0.511737 0.152444 0.974261 0.171108
H6    H     H_    0.473679 0.849087 0.026559 0.171065
H7    H     H_    0.988266 0.847556 0.474262 0.171107
H8    H     H_    0.026319 0.150913 0.526558 0.171065
C49   C     C_R   0.931138 0.522314 0.720497 0.101566
C50   C     C_R   0.941336 0.599313 0.740736 -0.130261
C51   C     C_R   0.945294 0.622689 0.813259 -0.176460
C52   C     C_R   0.946973 0.570536 0.869082 -0.078779
C53   C     C_R   0.938281 0.494984 0.852454 -0.116598
C54   C     C_R   0.928171 0.471265 0.780127 -0.122109
H9    H     H_    0.963312 0.643638 0.702314 0.158697
H10   H     H_    0.955268 0.681761 0.825995 0.126490
H11   H     H_    0.953870 0.588669 0.925176 0.124978
H12   H     H_    0.936827 0.454184 0.896020 0.123060
H13   H     H_    0.915290 0.412347 0.775204 0.129748
C55   C     C_R   0.058982 0.479688 0.278125 0.087052
C56   C     C_R   0.135402 0.409562 0.257273 -0.115308
C57   C     C_R   0.153322 0.388599 0.184239 -0.144329
C58   C     C_R   0.110228 0.439110 0.129322 -0.103406
C59   C     C_R   0.035973 0.508550 0.147332 -0.119153
C60   C     C_R   0.005223 0.527369 0.220129 -0.121603
H14   H     H_    0.187601 0.370121 0.296576 0.164426
H15   H     H_    0.208301 0.333866 0.170355 0.123296
H16   H     H_    0.129447 0.423709 0.072888 0.126063
H17   H     H_    0.994715 0.546969 0.104637 0.121454
H18   H     H_    0.929601 0.577874 0.228408 0.133232
C61   C     C_R   0.568855 0.477684 0.220497 0.101556
C62   C     C_R   0.558622 0.400687 0.240734 -0.130262
C63   C     C_R   0.554651 0.377310 0.313257 -0.176448
C64   C     C_R   0.552985 0.429462 0.369080 -0.078788
C65   C     C_R   0.561710 0.505014 0.352453 -0.116596
C66   C     C_R   0.571841 0.528732 0.280127 -0.122106
H19   H     H_    0.536634 0.356366 0.202311 0.158693
H20   H     H_    0.544655 0.318238 0.325993 0.126493
H21   H     H_    0.546075 0.411330 0.425174 0.124977
H22   H     H_    0.563176 0.545813 0.396019 0.123060
H23   H     H_    0.584753 0.587648 0.275203 0.129744
C67   C     C_R   0.441002 0.520312 0.778128 0.087045
C68   C     C_R   0.364553 0.590435 0.757278 -0.115312
C69   C     C_R   0.346631 0.611400 0.684245 -0.144305
C70   C     C_R   0.389752 0.560893 0.629326 -0.103421
C71   C     C_R   0.464034 0.491456 0.647335 -0.119166
C72   C     C_R   0.494786 0.472635 0.720132 -0.121592
H24   H     H_    0.312340 0.629870 0.796583 0.164424
H25   H     H_    0.291636 0.666132 0.670363 0.123297
H26   H     H_    0.370533 0.576295 0.572893 0.126062
H27   H     H_    0.505312 0.453039 0.604639 0.121455
H28   H     H_    0.570430 0.422134 0.728412 0.133229
C73   C     C_R   0.431023 0.977680 0.779507 0.101578
C74   C     C_R   0.441073 0.900677 0.759273 -0.130303
C75   C     C_R   0.444978 0.877294 0.686751 -0.176470
C76   C     C_R   0.446753 0.929442 0.630925 -0.078759
C77   C     C_R   0.438227 0.004997 0.647547 -0.116604
C78   C     C_R   0.428180 0.028724 0.719873 -0.122102
H29   H     H_    0.462979 0.856347 0.797694 0.158693
H30   H     H_    0.454834 0.818218 0.674019 0.126459
H31   H     H_    0.453606 0.911303 0.574832 0.124980
H32   H     H_    0.436869 0.045793 0.603978 0.123062
H33   H     H_    0.415467 0.087647 0.724789 0.129733
C79   C     C_R   0.559119 0.020300 0.221864 0.087004
C80   C     C_R   0.635687 0.090400 0.242719 -0.115309
C81   C     C_R   0.653625 0.111356 0.315753 -0.144247
C82   C     C_R   0.610406 0.060858 0.370669 -0.103483
C83   C     C_R   0.536005 0.991442 0.352654 -0.119181
C84   C     C_R   0.505229 0.972636 0.279855 -0.121551
H34   H     H_    0.687965 0.129822 0.203414 0.164452
H35   H     H_    0.708709 0.166072 0.329642 0.123349
H36   H     H_    0.629634 0.076253 0.427103 0.126067
H37   H     H_    0.494644 0.953036 0.395346 0.121465
H38   H     H_    0.429475 0.922162 0.271566 0.133227
C85   C     C_R   0.068976 0.022319 0.279506 0.101579
C86   C     C_R   0.058935 0.099322 0.259271 -0.130305
C87   C     C_R   0.055029 0.122704 0.186750 -0.176469
C88   C     C_R   0.053248 0.070556 0.130924 -0.078755
C89   C     C_R   0.061764 0.995001 0.147546 -0.116603
C90   C     C_R   0.071809 0.971274 0.219872 -0.122104
H39   H     H_    0.037032 0.143653 0.297691 0.158692
H40   H     H_    0.045178 0.181781 0.174017 0.126455
H41   H     H_    0.046395 0.088695 0.074831 0.124979
H42   H     H_    0.063115 0.954204 0.103978 0.123060
H43   H     H_    0.084510 0.912349 0.224788 0.129735
C91   C     C_R   0.940879 0.979701 0.721865 0.087004
C92   C     C_R   0.864318 0.909600 0.742718 -0.115308
C93   C     C_R   0.846382 0.888642 0.815752 -0.144250
C94   C     C_R   0.889596 0.939141 0.870668 -0.103481
C95   C     C_R   0.963987 0.008558 0.852654 -0.119180
C96   C     C_R   0.994760 0.027365 0.779856 -0.121551
H44   H     H_    0.812043 0.870177 0.703413 0.164452
H45   H     H_    0.791303 0.833926 0.829640 0.123345
H46   H     H_    0.870368 0.923745 0.927103 0.126067
H47   H     H_    0.005340 0.046965 0.895347 0.121464
H48   H     H_    0.070504 0.077842 0.771569 0.133227
O21   O     O_3   0.991410 0.368667 0.396441 -0.664512
H49   H     H_    0.908138 0.365269 0.353493 0.293886
O22   O     O_3   0.835067 0.621571 0.592219 -0.663397
H50   H     H_    0.732227 0.614892 0.627988 0.296562
O23   O     O_3   0.508575 0.631334 0.896443 -0.664511
H51   H     H_    0.591824 0.634736 0.853488 0.293887
O24   O     O_3   0.664937 0.378427 0.092221 -0.663399
H52   H     H_    0.767754 0.385100 0.127999 0.296570
O25   O     O_3   0.491716 0.131338 0.103552 -0.664497
H53   H     H_    0.408492 0.134763 0.146511 0.293873
O26   O     O_3   0.334898 0.878447 0.907802 -0.663415
H54   H     H_    0.232034 0.885140 0.872048 0.296553
O27   O     O_3   0.008291 0.868663 0.603552 -0.664498
H55   H     H_    0.091516 0.865239 0.646511 0.293875
O28   O     O_3   0.165102 0.121552 0.407802 -0.663416
H56   H     H_    0.267969 0.114859 0.372049 0.296552

loop_
_geom_bond_atom_site_label_1
_geom_bond_atom_site_label_2
_ccdc_geom_bond_type
C33   H2    S    
C95   H47   S    
O22   H50   S    
C28   C61   S    
C74   C75   A    
C65   H22   S    
C38   H5    S    
C58   C59   A    
C20   O24   S    
O14   V3    S    
C23   O27   S    
C12   C35   A    
C76   C77   A    
C67   C68   A    
C87   C88   A    
O5    C4    A    
C72   H28   S    
C15   C40   A    
C14   C29   A    
O11   C3    A    
C56   C57   A    
C16   C39   A    
C51   C52   A    
C57   H15   S    
O20   V1    S    
C63   H20   S    
C77   C78   A    
C81   H35   S    
C53   C54   A    
C62   H19   S    
C64   C65   A    
C18   O22   S    
C50   H9    S    
C69   C70   A    
C38   C46   A    
O21   H49   S    
C71   C72   A    
C22   C45   A    
O13   V4    S    
C85   C86   A    
C35   C43   A    
C75   H30   S    
C73   C78   A    
C34   C42   A    
C31   C91   S    
C92   C93   A    
C19   C44   A    
C18   C41   A    
C8    C14   S    
C89   C90   A    
C61   C66   A    
C61   C62   A    
O4    V1    S    
C21   O25   S    
C39   H8    S    
C14   C37   A    
C4    C10   S    
C20   C28   A    
O17   V4    S    
O15   C7    A    
C51   H10   S    
O11   V3    S    
O18   V3    S    
O16   C8    A    
C87   H40   S    
O23   H51   S    
C59   H17   S    
O12   V4    S    
O19   V2    S    
O12   C4    A    
C57   C58   A    
C29   C79   S    
C17   C25   A    
C62   C63   A    
C55   C60   A    
C49   C50   A    
O5    V1    S    
C64   H21   S    
O17   V1    S    
C30   C73   S    
C80   H34   S    
O7    V3    S    
C69   H25   S    
C35   H4    S    
O19   V3    S    
C43   C44   A    
C27   C67   S    
O20   V4    S    
C83   C84   A    
C3    C9    S    
C58   H16   S    
O16   V1    S    
O27   H55   S    
C17   O21   S    
O1    V4    S    
C77   H32   S    
C11   C36   A    
O8    V4    S    
C66   H23   S    
O3    V2    S    
C70   H26   S    
O28   H56   S    
C79   C84   A    
O6    C3    A    
C25   C55   S    
C10   C33   A    
C82   H36   S    
O10   V2    S    
O24   H52   S    
C5    C15   S    
C37   H6    S    
C65   C66   A    
O7    C2    A    
C6    C16   S    
C59   C60   A    
C22   C30   A    
C49   C54   A    
O13   C5    A    
C15   C32   A    
C89   H42   S    
C52   C53   A    
C71   H27   S    
C12   C27   A    
C84   H38   S    
C18   C26   A    
C13   C30   A    
C91   C96   A    
O9    C1    A    
O6    V2    S    
C78   H33   S    
C39   C47   A    
O25   H53   S    
C88   H41   S    
C73   C74   A    
C40   H7    S    
C53   H12   S    
C52   H11   S    
C24   C47   A    
C75   C76   A    
O2    C7    A    
O15   V2    S    
C23   C31   A    
C95   C96   A    
C80   C81   A    
C37   C45   A    
C24   C32   A    
C90   H43   S    
C10   C25   A    
C21   C46   A    
C88   C89   A    
C22   O26   S    
C94   H46   S    
C33   C41   A    
C79   C80   A    
C20   C43   A    
C16   C31   A    
C83   H37   S    
C24   O28   S    
C82   C83   A    
C68   H24   S    
O18   V2    S    
C17   C42   A    
O9    V1    S    
C34   H1    S    
C63   C64   A    
C36   H3    S    
O8    C1    A    
C9    C34   A    
C54   H13   S    
C93   C94   A    
O14   C6    A    
C32   C85   S    
C93   H45   S    
C96   H48   S    
C9    C26   A    
C47   C48   A    
C7    C13   S    
C76   H31   S    
O4    C5    A    
C19   O23   S    
C19   C27   A    
C91   C92   A    
C67   C72   A    
C94   C95   A    
C74   H29   S    
O10   C2    A    
C56   H14   S    
C55   C56   A    
C85   C90   A    
C86   C87   A    
C41   C42   A    
C26   C49   S    
C45   C46   A    
C23   C48   A    
C81   C82   A    
C21   C29   A    
O26   H54   S    
C36   C44   A    
O1    C8    A    
C50   C51   A    
C86   H39   S    
C11   C28   A    
C13   C38   A    
C92   H44   S    
O2    V3    S    
O3    C6    A    
C1    C11   S    
C70   C71   A    
C2    C12   S    
C60   H18   S    
C68   C69   A    
C40   C48   A    
