data_mof_unit_10561.cif
_audit_creation_date              2012-12-10T18:21:15-0500
_audit_creation_method            fapswitch 2.2
_symmetry_space_group_name_H-M    P1
_symmetry_Int_Tables_number       1
_space_group_crystal_system       triclinic
_cell_length_a                    9.439671
_cell_length_b                    10.651955
_cell_length_c                    17.251949
_cell_angle_alpha                 90.406394
_cell_angle_beta                  86.311625
_cell_angle_gamma                 90.276192
_cell_volume                      1731.04667447

loop_
_atom_site_label
_atom_site_type_symbol
_atom_type_description
_atom_site_fract_x
_atom_site_fract_y
_atom_site_fract_z
_atom_type_partial_charge
C1    C     C_R   0.500566 0.740091 0.500279 0.823207
C2    C     C_R   0.499501 0.259825 0.499756 0.824478
C3    C     C_3   0.444812 0.956409 0.435605 0.168953
C4    C     C_3   0.555818 0.043395 0.564555 0.144218
C5    C     C_3   0.578033 0.042329 0.436242 -0.250491
C6    C     C_3   0.422671 0.957257 0.563946 -0.306647
C7    C     C_3   0.498649 0.123482 0.499753 -0.069017
C8    C     C_3   0.501815 0.876268 0.500361 -0.068529
C9    C     C_3   0.367997 0.037863 0.498381 0.195124
C10   C     C_3   0.632606 0.961704 0.501826 0.194285
C11   C     C_3   0.955227 0.405502 0.462109 0.298830
C12   C     C_3   0.044804 0.594580 0.537898 0.300813
C13   C     C_3   0.046820 0.399157 0.531929 -0.064347
C14   C     C_3   0.953089 0.601026 0.468105 -0.081168
C15   C     C_3   0.059045 0.505602 0.429731 -0.082355
C16   C     C_3   0.940939 0.494561 0.570263 -0.091651
C17   C     C_R   0.481839 0.496533 0.649860 0.803901
C18   C     C_R   0.518161 0.503469 0.350139 0.809364
C19   C     C_R   0.473829 0.483678 0.734352 -0.131593
C20   C     C_R   0.526171 0.516325 0.265646 -0.131795
C21   C     C_R   0.594476 0.445908 0.771026 -0.188586
C22   C     C_R   0.405528 0.554104 0.228973 -0.186075
C23   C     C_R   0.590775 0.433886 0.851139 0.147469
C24   C     C_R   0.409228 0.566124 0.148859 0.147875
C25   C     C_R   0.464064 0.460989 0.896045 0.113422
C26   C     C_R   0.535935 0.539012 0.103953 0.113055
C27   C     C_R   0.340097 0.493992 0.859301 0.192457
C28   C     C_R   0.659899 0.505999 0.140696 0.192305
C29   C     C_R   0.346329 0.505139 0.778382 -0.206672
C30   C     C_R   0.653667 0.494852 0.221614 -0.202840
C31   C     C_2   0.462123 0.458185 0.980937 -0.231141
C32   C     C_2   0.537875 0.541817 0.019061 -0.231280
Cu1   Cu    Cu3+1 0.356850 0.500010 0.499980 0.941757
Cu2   Cu    Cu3+1 0.643150 0.499990 0.500020 0.938030
H1    H     H_    0.692520 0.424782 0.737425 0.168583
H2    H     H_    0.307487 0.575238 0.262574 0.168962
H3    H     H_    0.112228 0.509240 0.370525 0.125393
H4    H     H_    0.887747 0.490868 0.629465 0.124265
H5    H     H_    0.747590 0.467424 0.250160 0.156723
H6    H     H_    0.252404 0.532558 0.749836 0.156288
H7    H     H_    0.606277 0.609245 0.987760 0.159229
H8    H     H_    0.393720 0.390758 0.012238 0.159542
H9    H     H_    0.642282 0.078155 0.384858 0.150165
H10   H     H_    0.358414 0.921404 0.615320 0.151699
H11   H     H_    0.090044 0.315195 0.559466 0.124503
H12   H     H_    0.909491 0.685971 0.441532 0.151824
N1    N     N_3   0.141720 0.500030 0.499940 -0.167943
N2    N     N_3   0.858280 0.499970 0.500060 -0.170374
O1    O     O_R   0.379130 0.683150 0.499960 -0.583484
O2    O     O_R   0.620870 0.316850 0.500040 -0.584662
O3    O     O_R   0.620910 0.683140 0.500000 -0.569530
O4    O     O_R   0.379090 0.316860 0.500000 -0.563884
O5    O     O_R   0.365090 0.500030 0.613580 -0.588705
O6    O     O_R   0.634910 0.499970 0.386420 -0.585965
O7    O     O_R   0.606870 0.500020 0.613610 -0.590427
O8    O     O_R   0.393130 0.499980 0.386390 -0.587878
C33   C     C_3   0.905528 0.292603 0.416549 -0.830353
H13   H     H_    0.998566 0.247632 0.385252 0.216349
H14   H     H_    0.854636 0.222726 0.456797 0.234835
H15   H     H_    0.830149 0.322409 0.373627 0.239441
C34   C     C_3   0.094734 0.707312 0.583560 -0.848966
H16   H     H_    0.001982 0.751745 0.615429 0.198393
H17   H     H_    0.170851 0.677414 0.626058 0.244347
H18   H     H_    0.144837 0.777664 0.543340 0.236737
C35   C     C_3   0.202597 0.521190 0.905543 -0.889209
H19   H     H_    0.169338 0.438166 0.940877 0.231232
H20   H     H_    0.216962 0.603051 0.944437 0.236409
H21   H     H_    0.115782 0.543424 0.867399 0.232491
C36   C     C_3   0.797396 0.478792 0.094453 -0.887026
H22   H     H_    0.783023 0.396932 0.055559 0.236154
H23   H     H_    0.830661 0.561814 0.059119 0.231103
H24   H     H_    0.884210 0.456552 0.132597 0.233080
N3    N     N_3   0.283590 0.608621 0.114808 -0.603858
H25   H     H_    0.243926 0.536033 0.081397 0.223795
H26   H     H_    0.310111 0.684883 0.078828 0.227187
N4    N     N_3   0.716415 0.391395 0.885190 -0.605485
H27   H     H_    0.689899 0.315131 0.921169 0.227079
H28   H     H_    0.756076 0.463983 0.918601 0.223645
C37   C     C_3   0.380295 0.905516 0.363099 -0.850559
H29   H     H_    0.285777 0.847016 0.379871 0.234410
H30   H     H_    0.348042 0.984771 0.326843 0.241452
H31   H     H_    0.459649 0.847212 0.329189 0.227664
C38   C     C_3   0.620473 0.094446 0.636971 -0.880415
H32   H     H_    0.651613 0.015304 0.673637 0.233408
H33   H     H_    0.715738 0.151929 0.620071 0.236345
H34   H     H_    0.541613 0.153755 0.670511 0.234544
N5    N     N_3   0.222144 0.080776 0.495791 -0.574920
H35   H     H_    0.158998 0.001952 0.486495 0.211516
H36   H     H_    0.190872 0.114298 0.551264 0.205616
N6    N     N_3   0.778398 0.918097 0.503802 -0.588494
H37   H     H_    0.843847 0.997394 0.504679 0.208567
H38   H     H_    0.787152 0.872510 0.556703 0.223808

loop_
_geom_bond_atom_site_label_1
_geom_bond_atom_site_label_2
_ccdc_geom_bond_type
C25   C31   S    
N5    H35   S    
C26   C32   S    
C31   H8    S    
C27   C29   A    
C1    C8    S    
N3    H25   S    
C2    C7    S    
C15   N1    S    
C23   N4    S    
C3    C37   S    
C16   N2    S    
C6    C9    S    
N6    H37   S    
C14   H12   S    
C20   C30   A    
Cu1   O4    S    
Cu2   O3    S    
C38   H32   S    
C3    C9    S    
C19   C21   A    
N4    H28   S    
C12   N1    S    
C24   N3    S    
C33   H14   S    
Cu1   O1    S    
C34   H17   S    
C36   H23   S    
C15   H3    S    
C2    O2    A    
C13   N1    S    
C28   C36   S    
C35   H20   S    
C32   H7    S    
C17   O7    A    
C18   O8    A    
Cu1   O8    S    
C5    H9    S    
Cu2   O7    S    
C6    H10   S    
N3    H26   S    
C11   N2    S    
C34   H16   S    
C11   C15   S    
C4    C7    S    
Cu1   O5    S    
Cu2   O2    S    
C12   C16   S    
N4    H27   S    
C4    C6    S    
C3    C8    S    
C37   H30   S    
C33   H15   S    
C6    C8    S    
C36   H24   S    
C27   C35   S    
N6    H38   S    
C31   C32   D    
C35   H21   S    
Cu1   Cu2   S    
C1    O3    A    
C2    O4    A    
C38   H33   S    
C12   C14   S    
Cu2   O6    S    
C21   C23   A    
Cu1   N1    S    
C22   C24   A    
Cu2   N2    S    
C20   C22   A    
C4    C10   S    
C19   C29   A    
C17   O5    A    
C5    C7    S    
C7    C9    S    
C24   C26   A    
C3    C5    S    
C37   H31   S    
C14   N2    S    
C21   H1    S    
C25   C27   A    
C22   H2    S    
C26   C28   A    
C28   C30   A    
C5    C10   S    
C9    N5    S    
C34   H18   S    
C13   H11   S    
C12   C34   S    
C11   C13   S    
C33   H13   S    
C4    C38   S    
C29   H6    S    
C17   C19   S    
C30   H5    S    
C18   C20   S    
C23   C25   A    
C36   H22   S    
C18   O6    A    
C37   H29   S    
C38   H34   S    
C10   N6    S    
C8    C10   S    
C35   H19   S    
C13   C16   S    
N5    H36   S    
C14   C15   S    
C11   C33   S    
C1    O1    A    
C16   H4    S    
