data_mof_unit_64242.cif
_audit_creation_date              2012-12-10T19:35:18-0500
_audit_creation_method            fapswitch 2.2
_symmetry_space_group_name_H-M    P1
_symmetry_Int_Tables_number       1
_space_group_crystal_system       triclinic
_cell_length_a                    30.717956
_cell_length_b                    31.827303
_cell_length_c                    21.639644
_cell_angle_alpha                 89.463082
_cell_angle_beta                  135.215989
_cell_angle_gamma                 90.704534
_cell_volume                      14902.2174394

loop_
_atom_site_label
_atom_site_type_symbol
_atom_type_description
_atom_site_fract_x
_atom_site_fract_y
_atom_site_fract_z
_atom_type_partial_charge
C1    C     C_R   0.499822 0.000104 0.379897 0.894969
C2    C     C_R   0.999840 0.499821 0.379895 0.896961
C3    C     C_3   0.470461 0.735447 0.520297 -0.163047
C4    C     C_3   0.480028 0.263355 0.535572 -0.161525
C5    C     C_3   0.967870 0.235430 0.516093 -0.166453
C6    C     C_3   0.970163 0.763330 0.521107 -0.156518
C7    C     C_3   0.499394 0.708945 0.498335 0.201429
C8    C     C_3   0.500308 0.291026 0.501125 0.192650
C9    C     C_3   0.999164 0.208974 0.497876 0.192825
C10   C     C_3   0.000505 0.791053 0.501683 0.199258
C11   C     C_3   0.528967 0.763759 0.578826 -0.162462
C12   C     C_3   0.537933 0.235951 0.584053 -0.167372
C13   C     C_3   0.026347 0.263693 0.577432 -0.170708
C14   C     C_3   0.028867 0.735831 0.581502 -0.155001
C15   C     C_3   0.557902 0.736470 0.556866 -0.160687
C16   C     C_3   0.558209 0.264411 0.549591 -0.166859
C17   C     C_3   0.057638 0.236463 0.559203 -0.166296
C18   C     C_3   0.059207 0.764357 0.562076 -0.163410
C19   C     C_1   0.499138 0.836593 0.498658 -0.074304
C20   C     C_1   0.500794 0.163384 0.501361 -0.039919
C21   C     C_1   0.999051 0.336611 0.498746 -0.044944
C22   C     C_1   0.000880 0.663402 0.501542 -0.065398
C23   C     C_1   0.499603 0.663433 0.498558 -0.073936
C24   C     C_1   0.500125 0.336548 0.500999 -0.069033
C25   C     C_1   0.999420 0.163452 0.498206 -0.068531
C26   C     C_1   0.000279 0.836567 0.501382 -0.074485
C27   C     C_R   0.464193 0.026700 0.244529 0.067599
C28   C     C_R   0.962871 0.473386 0.243864 0.067077
C29   C     C_R   0.499514 0.998857 0.314217 -0.081208
C30   C     C_R   0.999821 0.500696 0.314419 -0.083221
C31   C     C_R   0.536032 0.969612 0.319495 -0.203820
C32   C     C_R   0.038820 0.528817 0.321326 -0.203056
C33   C     C_R   0.535810 0.969269 0.254550 -0.208175
C34   C     C_R   0.038942 0.528914 0.256752 -0.209183
C35   C     C_R   0.499799 0.918714 0.499770 0.888681
C36   C     C_R   0.500240 0.081279 0.500370 0.925681
C37   C     C_R   0.999799 0.418718 0.499932 0.913805
C38   C     C_R   0.000242 0.581284 0.500289 0.889235
C39   C     C_R   0.500621 0.999078 0.186312 -0.066482
C40   C     C_R   0.001598 0.499923 0.187209 -0.062158
C41   C     C_R   0.465881 0.027377 0.184298 0.051371
C42   C     C_R   0.964917 0.472395 0.184000 0.046018
C43   C     C_3   0.423557 0.063794 0.135530 -0.515717
C44   C     C_3   0.919023 0.437558 0.132537 -0.512925
C45   C     C_3   0.421982 0.063434 0.205230 0.285715
C46   C     C_3   0.917058 0.438178 0.201816 0.287256
C47   C     C_R   0.472865 0.032314 0.690059 0.001664
C48   C     C_R   0.973941 0.532740 0.691101 -0.038707
C49   C     C_R   0.501859 0.000123 0.687680 -0.050384
C50   C     C_R   0.001921 0.500143 0.687705 -0.105853
C51   C     C_R   0.539352 0.971620 0.757646 -0.207962
C52   C     C_R   0.038527 0.471117 0.756772 -0.192596
C53   C     C_R   0.539685 0.971764 0.822309 -0.214560
C54   C     C_R   0.038854 0.471254 0.821432 -0.212503
C55   C     C_R   0.504099 0.001342 0.817901 -0.042016
C56   C     C_R   0.004134 0.501308 0.817906 -0.070064
C57   C     C_R   0.474625 0.033246 0.755350 -0.004328
C58   C     C_R   0.975639 0.533620 0.756315 0.005100
C59   C     C_R   0.500270 0.999547 0.620337 0.877145
C60   C     C_R   0.000279 0.499574 0.620334 0.867149
C61   C     C_3   0.409888 0.048883 0.695798 -0.600493
C62   C     C_3   0.911421 0.550236 0.697213 -0.490134
C63   C     C_3   0.407309 0.047305 0.622793 0.840262
C64   C     C_3   0.908829 0.548748 0.624264 0.832087
C65   C     C_R   0.380014 0.500160 0.379872 0.879076
C66   C     C_R   0.880016 0.000155 0.379873 0.879707
C67   C     C_R   0.499959 0.581309 0.499694 0.902128
C68   C     C_R   0.499923 0.418687 0.500166 0.905673
C69   C     C_R   0.999939 0.081314 0.499666 0.902555
C70   C     C_R   0.999939 0.918692 0.500192 0.905727
C71   C     C_R   0.620053 0.500372 0.620305 0.875496
C72   C     C_R   0.120050 0.000403 0.620306 0.875869
C73   C     C_R   0.620131 0.000185 0.120201 0.885051
C74   C     C_R   0.120128 0.500185 0.120203 0.886002
C75   C     C_R   0.500219 0.999789 0.120375 0.889912
C76   C     C_R   0.000346 0.499872 0.120477 0.888940
C77   C     C_R   0.379688 0.999788 0.879454 0.882603
C78   C     C_R   0.879691 0.499785 0.879436 0.880335
C79   C     C_R   0.500265 0.000244 0.879877 0.886240
C80   C     C_R   0.000243 0.500240 0.879844 0.885340
C81   C     C_R   0.280306 0.476596 0.240305 0.131667
C82   C     C_R   0.780314 0.976501 0.240426 0.132775
C83   C     C_3   0.469549 0.736260 0.417888 -0.160702
C84   C     C_3   0.463054 0.263954 0.418393 -0.156299
C85   C     C_3   0.971755 0.236385 0.418596 -0.149779
C86   C     C_3   0.972483 0.764127 0.421966 -0.165882
C87   C     C_R   0.314544 0.501391 0.314397 -0.096785
C88   C     C_R   0.814550 0.001383 0.314397 -0.098173
C89   C     C_R   0.283040 0.527300 0.324391 -0.211182
C90   C     C_R   0.783052 0.027387 0.324263 -0.211310
C91   C     C_R   0.718312 0.027608 0.259307 -0.215124
C92   C     C_R   0.218300 0.527517 0.259441 -0.216271
C93   C     C_R   0.685548 0.000828 0.186363 -0.097489
C94   C     C_R   0.185542 0.500827 0.186368 -0.093510
C95   C     C_R   0.718444 0.975589 0.179935 0.132000
C96   C     C_R   0.218437 0.475679 0.179814 0.131583
C97   C     C_3   0.712877 0.943443 0.125079 -0.497154
C98   C     C_3   0.212868 0.443644 0.124796 -0.495073
C99   C     C_3   0.284087 0.444336 0.194895 -0.480269
C100  C     C_3   0.784097 0.944130 0.195181 -0.483070
C101  C     C_R   0.717399 0.469274 0.686169 0.106795
C102  C     C_R   0.217377 0.969171 0.686478 0.107226
C103  C     C_R   0.685913 0.499479 0.687890 -0.086782
C104  C     C_R   0.185907 0.999533 0.687902 -0.088660
C105  C     C_R   0.718452 0.525984 0.760867 -0.202873
C106  C     C_R   0.218447 0.026187 0.760676 -0.202180
C107  C     C_3   0.528061 0.764583 0.476426 -0.160814
C108  C     C_3   0.520952 0.236545 0.466864 -0.143082
C109  C     C_3   0.030234 0.264673 0.479942 -0.142894
C110  C     C_3   0.031181 0.736641 0.482350 -0.164718
C111  C     C_R   0.282769 0.026285 0.824805 -0.208395
C112  C     C_R   0.782768 0.526106 0.824958 -0.209850
C113  C     C_R   0.313868 0.998762 0.816921 -0.096038
C114  C     C_R   0.813876 0.498746 0.816856 -0.095717
C115  C     C_R   0.280842 0.968439 0.751099 0.141517
C116  C     C_R   0.780871 0.468558 0.750774 0.144371
C117  C     C_3   0.284353 0.957481 0.687770 -0.495260
C118  C     C_3   0.784388 0.457929 0.687333 -0.502642
C119  C     C_3   0.714246 0.458872 0.615929 -0.456590
C120  C     C_3   0.214212 0.958443 0.616344 -0.463915
C121  C     C_1   0.499339 0.874157 0.499087 -0.173897
C122  C     C_1   0.500688 0.125825 0.501112 -0.128926
C123  C     C_1   0.999324 0.374169 0.499335 -0.142594
C124  C     C_1   0.000709 0.625839 0.501081 -0.171742
C125  C     C_1   0.499786 0.625867 0.498978 -0.180674
C126  C     C_1   0.500010 0.374119 0.500750 -0.181845
C127  C     C_1   0.999678 0.125882 0.498805 -0.179098
C128  C     C_1   0.000100 0.874133 0.500920 -0.184431
C129  C     C_3   0.440613 0.763562 0.439854 -0.160509
C130  C     C_3   0.442780 0.235494 0.452849 -0.148858
C131  C     C_3   0.940464 0.263641 0.436830 -0.149431
C132  C     C_3   0.942145 0.735614 0.441386 -0.157337
C133  C     C_3   0.499126 0.791082 0.498389 0.201135
C134  C     C_3   0.500682 0.208887 0.501334 0.192153
C135  C     C_3   0.998948 0.291111 0.498188 0.194406
C136  C     C_3   0.000843 0.708914 0.501773 0.199719
H1    H     H_    0.551674 0.777308 0.458436 0.137327
H2    H     H_    0.537697 0.224743 0.438663 0.156522
H3    H     H_    0.055766 0.277472 0.465080 0.152485
H4    H     H_    0.056203 0.724928 0.466460 0.136062
H5    H     H_    0.565548 0.948100 0.759660 0.151027
H6    H     H_    0.064006 0.447239 0.758059 0.150095
H7    H     H_    0.566054 0.948317 0.873859 0.152626
H8    H     H_    0.064521 0.447441 0.872262 0.154278
H9    H     H_    0.408438 0.081176 0.713376 0.196652
H10   H     H_    0.378808 0.025803 0.688012 0.188463
H11   H     H_    0.911176 0.582604 0.715833 0.216250
H12   H     H_    0.879556 0.527768 0.688866 0.151644
H13   H     H_    0.308203 0.547383 0.381289 0.160515
H14   H     H_    0.808218 0.047540 0.381067 0.162442
H15   H     H_    0.694125 0.047851 0.266651 0.161936
H16   H     H_    0.194107 0.547683 0.266886 0.155205
H17   H     H_    0.691145 0.956227 0.060503 0.198835
H18   H     H_    0.692977 0.913347 0.122661 0.212171
H19   H     H_    0.191130 0.456526 0.060278 0.199546
H20   H     H_    0.192970 0.413508 0.122239 0.213857
H21   H     H_    0.303556 0.457323 0.170744 0.213860
H22   H     H_    0.305294 0.414692 0.233200 0.200957
H23   H     H_    0.803568 0.957016 0.170974 0.213548
H24   H     H_    0.805300 0.914525 0.233629 0.199647
H25   H     H_    0.694315 0.547936 0.765740 0.159029
H26   H     H_    0.194309 0.048255 0.765359 0.161325
H27   H     H_    0.445196 0.724209 0.351907 0.139033
H28   H     H_    0.432343 0.276201 0.350460 0.144217
H29   H     H_    0.949380 0.224425 0.353468 0.146252
H30   H     H_    0.949355 0.776501 0.356547 0.137151
H31   H     H_    0.308008 0.048315 0.878808 0.160362
H32   H     H_    0.807996 0.548039 0.879109 0.162789
H33   H     H_    0.303377 0.925550 0.699846 0.211801
H34   H     H_    0.306117 0.982757 0.681125 0.196452
H35   H     H_    0.803432 0.426042 0.699094 0.210373
H36   H     H_    0.806144 0.483348 0.680934 0.197354
H37   H     H_    0.692806 0.427534 0.586376 0.202193
H38   H     H_    0.695286 0.484918 0.568133 0.222269
H39   H     H_    0.192748 0.927072 0.587098 0.202241
H40   H     H_    0.195270 0.984358 0.568296 0.219067
H41   H     H_    0.605994 0.724591 0.604838 0.137078
H42   H     H_    0.605536 0.277043 0.589259 0.140524
H43   H     H_    0.105687 0.224556 0.609374 0.140867
H44   H     H_    0.107202 0.776922 0.611559 0.137006
H45   H     H_    0.553320 0.775804 0.644813 0.135961
H46   H     H_    0.568636 0.223689 0.651973 0.141183
H47   H     H_    0.048723 0.275657 0.642558 0.138912
H48   H     H_    0.051986 0.723446 0.646910 0.141853
H49   H     H_    0.446846 0.722725 0.538288 0.137086
H50   H     H_    0.463236 0.275112 0.563730 0.143120
H51   H     H_    0.942294 0.222672 0.530907 0.140698
H52   H     H_    0.945139 0.775045 0.536990 0.141525
H53   H     H_    0.392524 0.775445 0.391887 0.139885
H54   H     H_    0.395457 0.222851 0.413174 0.150662
H55   H     H_    0.892431 0.275576 0.386658 0.148843
H56   H     H_    0.894147 0.723054 0.391899 0.142765
H57   H     H_    0.563978 0.947137 0.372827 0.153983
H58   H     H_    0.068277 0.550753 0.375482 0.153766
H59   H     H_    0.563722 0.946577 0.258522 0.158374
H60   H     H_    0.068454 0.550956 0.261669 0.152862
H61   H     H_    0.379095 0.054860 0.068554 0.202711
H62   H     H_    0.447080 0.091728 0.138584 0.221088
H63   H     H_    0.939798 0.408782 0.133859 0.221727
H64   H     H_    0.875671 0.448034 0.066116 0.208479
O1    O     O_R   0.448310 0.000000 0.356640 -0.596626
O2    O     O_R   0.948310 0.500000 0.356640 -0.593055
O3    O     O_R   0.500000 0.561620 0.551710 -0.620161
O4    O     O_R   0.500000 0.438380 0.551710 -0.610972
O5    O     O_R   0.000000 0.061620 0.551710 -0.618392
O6    O     O_R   0.000000 0.938380 0.551710 -0.612227
O7    O     O_R   0.591480 0.500000 0.539730 -0.623348
O8    O     O_R   0.091480 0.000000 0.539730 -0.624083
O9    O     O_R   0.591580 0.500000 0.643270 -0.618313
O10   O     O_R   0.091580 0.000000 0.643270 -0.618386
O11   O     O_R   0.591630 0.965220 0.091680 -0.626392
O12   O     O_R   0.591630 0.034780 0.091680 -0.621921
O13   O     O_R   0.091630 0.465220 0.091680 -0.622054
O14   O     O_R   0.091630 0.534780 0.091680 -0.625348
O15   O     O_R   0.500040 0.965230 0.091630 -0.625735
O16   O     O_R   0.500040 0.034770 0.091630 -0.620901
O17   O     O_R   0.000040 0.465230 0.091630 -0.615737
O18   O     O_R   0.000040 0.534770 0.091630 -0.630399
O19   O     O_R   0.408450 0.965250 0.908360 -0.617429
O20   O     O_R   0.408450 0.034750 0.908360 -0.623492
O21   O     O_R   0.908450 0.465250 0.908360 -0.619202
O22   O     O_R   0.908450 0.534750 0.908360 -0.622406
O23   O     O_R   0.500040 0.965230 0.908410 -0.629745
O24   O     O_R   0.500040 0.034770 0.908410 -0.614201
O25   O     O_R   0.000040 0.465230 0.908410 -0.631007
O26   O     O_R   0.000040 0.534770 0.908410 -0.612325
O27   O     O_R   0.551720 0.000000 0.460130 -0.623686
O28   O     O_R   0.051720 0.500000 0.460130 -0.624288
O29   O     O_R   0.448310 0.938390 0.448250 -0.613433
O30   O     O_R   0.448310 0.061610 0.448250 -0.582695
O31   O     O_R   0.948310 0.438390 0.448250 -0.595605
O32   O     O_R   0.948310 0.561610 0.448250 -0.612851
O33   O     O_R   0.551720 0.938410 0.551740 -0.625345
O34   O     O_R   0.551720 0.061590 0.551740 -0.623557
O35   O     O_R   0.051720 0.438410 0.551740 -0.622119
O36   O     O_R   0.051720 0.561590 0.551740 -0.620198
O37   O     O_R   0.448310 0.000000 0.539870 -0.562175
O38   O     O_R   0.948310 0.500000 0.539870 -0.596164
O39   O     O_R   0.551720 0.000000 0.643360 -0.639050
O40   O     O_R   0.051720 0.500000 0.643360 -0.624030
O41   O     O_R   0.408300 0.500000 0.356580 -0.621813
O42   O     O_R   0.908300 0.000000 0.356580 -0.621604
O43   O     O_R   0.408400 0.500000 0.460120 -0.622895
O44   O     O_R   0.908400 0.000000 0.460120 -0.623150
O45   O     O_R   0.499900 0.561630 0.448170 -0.614150
O46   O     O_R   0.499900 0.438370 0.448170 -0.618993
O47   O     O_R   0.999900 0.061630 0.448170 -0.614563
O48   O     O_R   0.999900 0.938370 0.448170 -0.619845
Zn1   Zn    Zn3+2 0.430960 0.000000 0.430900 1.060542
Zn2   Zn    Zn3+2 0.930960 0.500000 0.430900 1.042242
Zn3   Zn    Zn3+2 0.569060 0.000000 0.569100 0.966655
Zn4   Zn    Zn3+2 0.069060 0.500000 0.569100 0.969040
Zn5   Zn    Zn3+2 0.499870 0.500000 0.430790 0.962228
Zn6   Zn    Zn3+2 0.999870 0.000000 0.430790 0.958786
Zn7   Zn    Zn3+2 0.500010 0.500000 0.569060 0.972434
Zn8   Zn    Zn3+2 0.000010 0.000000 0.569060 0.972132
Zn9   Zn    Zn3+2 0.500030 0.953570 0.000010 0.953856
Zn10  Zn    Zn3+2 0.500030 0.046430 0.000010 0.964434
Zn11  Zn    Zn3+2 0.000030 0.453570 0.000010 0.959701
Zn12  Zn    Zn3+2 0.000030 0.546430 0.000010 0.960036
I1    I     I_    0.333379 0.047916 0.154220 -0.315615
I2    I     I_    0.464694 0.117225 0.289487 -0.385457
I3    I     I_    0.954091 0.383073 0.282341 -0.376331
I4    I     I_    0.829820 0.456818 0.150968 -0.313886
O49   O     O_3   0.399958 0.086600 0.585898 -0.762261
H65   H     H_    0.432594 0.105970 0.634186 0.306225
O50   O     O_3   0.365862 0.016902 0.558821 -0.729494
H66   H     H_    0.323853 0.027916 0.524383 0.342643
O51   O     O_3   0.904338 0.588736 0.592509 -0.742494
H67   H     H_    0.911060 0.584823 0.554332 0.342305
O52   O     O_3   0.864510 0.520334 0.556278 -0.738231
H68   H     H_    0.871349 0.492452 0.582901 0.312078

loop_
_geom_bond_atom_site_label_1
_geom_bond_atom_site_label_2
_ccdc_geom_bond_type
C58   C62   S    
C54   H8    S    
C21   C123  T    
O17   Zn11  S    
C43   H61   S    
C68   O4    A    
C115  C117  S    
C74   C94   S    
C73   O12   A    
C110  C136  S    
C86   H30   S    
C73   C93   S    
C45   I1    S    
C4    C8    S    
O6    Zn8   S    
C112  C114  A    
C118  H36   S    
C45   I2    S    
C2    O28   A    
C79   O24   A    
C72   O8    A    
O29   Zn1   S    
C130  C134  S    
C108  C134  S    
C65   O43   A    
C28   C46   S    
C14   C136  S    
C33   C39   A    
C42   C44   S    
C99   H21   S    
C34   C40   A    
O24   Zn10  S    
C59   O37   A    
C86   C110  S    
C83   C129  S    
C60   O38   A    
C3    C7    S    
C11   C133  S    
C119  H38   S    
C66   C88   S    
C80   O26   A    
O48   Zn6   S    
C48   C64   S    
C27   C29   A    
C46   I4    S    
O52   H68   S    
C112  H32   S    
C6    H52   S    
C75   O16   A    
O43   Zn7   S    
C37   O31   A    
C8    C16   S    
C5    C131  S    
C4    H50   S    
C57   C61   S    
C61   C63   S    
C14   C18   S    
C118  C119  S    
C94   C96   A    
C61   H9    S    
C102  C115  A    
O11   Zn9   S    
C9    C85   S    
C37   C123  S    
C82   C88   A    
C11   C15   S    
C117  H34   S    
C120  H40   S    
C72   O10   A    
C12   C16   S    
C83   C107  S    
C13   H47   S    
C87   C89   A    
C96   C98   S    
C92   H16   S    
C62   C64   S    
C15   C107  S    
C31   C33   A    
C37   O35   A    
C35   O33   A    
C39   C75   S    
C80   O25   A    
C4    C12   S    
O30   Zn1   S    
O49   H65   S    
C132  H56   S    
C5    C13   S    
C84   H28   S    
C90   H14   S    
C23   C125  T    
C69   O5    A    
C27   C45   S    
C71   O7    A    
C19   C121  T    
C18   H44   S    
C20   C134  S    
C101  C103  A    
C62   H12   S    
O51   H67   S    
O13   Zn11  S    
C24   C126  T    
C13   C135  S    
O37   Zn1   S    
C78   C114  S    
O8    Zn6   S    
O35   Zn4   S    
O36   Zn4   S    
C38   C124  S    
C77   C113  S    
O20   Zn10  S    
C3    H49   S    
C104  C106  A    
C110  H4    S    
C16   H42   S    
C65   C87   S    
C85   C109  S    
C54   C56   A    
C106  C111  A    
C51   H5    S    
C98   H20   S    
C89   H13   S    
C91   H15   S    
C9    C25   S    
C22   C124  T    
C101  C119  S    
C35   C121  S    
C3    C11   S    
C109  C135  S    
O25   Zn11  S    
C39   C41   A    
C116  C118  S    
C64   O51   S    
C117  C120  S    
O26   Zn12  S    
C31   H57   S    
O4    Zn7   S    
O16   Zn10  S    
O38   Zn2   S    
C38   O32   A    
C7    C15   S    
C66   O42   A    
C6    C132  S    
C49   C51   A    
C46   I3    S    
O39   Zn3   S    
C91   C93   A    
C52   H6    S    
C40   C76   S    
C47   C63   S    
C129  H53   S    
C114  C116  A    
C51   C53   A    
C32   C34   A    
C17   H43   S    
C107  H1    S    
C9    C17   S    
C36   C122  S    
C61   H10   S    
C5    C9    S    
C64   O52   S    
C117  H33   S    
O3    Zn7   S    
C6    C14   S    
C55   C79   S    
C27   C41   A    
C120  H39   S    
C50   C52   A    
C82   C100  S    
C65   O41   A    
C76   O17   A    
C132  C136  S    
C33   H59   S    
C34   H60   S    
C63   O50   S    
O40   Zn4   S    
C92   C94   A    
C10   C26   S    
C52   C54   A    
C111  C113  A    
C55   C57   A    
C26   C128  T    
C97   H18   S    
C12   H46   S    
C89   C92   A    
C102  C104  A    
C48   C50   A    
C63   O49   S    
O10   Zn8   S    
C81   C87   A    
O5    Zn8   S    
C78   O22   A    
O19   Zn9   S    
C19   C133  S    
C32   H58   S    
C11   H45   S    
C84   C130  S    
C105  C112  A    
C88   C90   A    
C44   H64   S    
C97   H17   S    
C62   H11   S    
C15   H41   S    
C74   O13   A    
O45   Zn5   S    
O15   Zn9   S    
O42   Zn6   S    
C103  C105  A    
C129  C133  S    
O18   Zn12  S    
C68   O46   A    
C2    C30   S    
C1    C29   S    
C36   O34   A    
C90   C91   A    
C68   C126  S    
C59   O39   A    
C97   C100  S    
C102  C120  S    
C4    C130  S    
O33   Zn3   S    
O27   Zn3   S    
C108  H2    S    
C70   C128  S    
C81   C96   A    
C83   H27   S    
C98   H19   S    
C10   C86   S    
C82   C95   A    
C28   C42   A    
C71   O9    A    
O2    Zn2   S    
C3    C129  S    
O12   Zn10  S    
C20   C122  T    
C53   C55   A    
C73   O11   A    
C77   O19   A    
C41   C43   S    
C18   C110  S    
C38   O36   A    
C100  H24   S    
O14   Zn12  S    
C17   C109  S    
O34   Zn3   S    
C6    C10   S    
C14   H48   S    
C48   C58   A    
C95   C97   S    
C77   O20   A    
C79   O23   A    
O46   Zn5   S    
C131  H55   S    
C70   O6    A    
C72   C104  S    
C1    O1    A    
C131  C135  S    
C49   C59   S    
O9    Zn7   S    
C13   C17   S    
C81   C99   S    
C109  H3    S    
O50   H66   S    
C50   C60   S    
C69   O47   A    
C67   C125  S    
C56   C80   S    
C25   C127  T    
O41   Zn5   S    
C85   H29   S    
C28   C30   A    
C29   C31   A    
C47   C49   A    
C107  C133  S    
C85   C131  S    
C30   C32   A    
C67   O45   A    
C100  H23   S    
C86   C132  S    
C7    C83   S    
C93   C95   A    
C113  C115  A    
C66   O44   A    
C118  H35   S    
C10   C18   S    
C60   O40   A    
C7    C23   S    
O1    Zn1   S    
C40   C42   A    
C2    O2    A    
C8    C24   S    
C56   C58   A    
C43   H62   S    
C105  H25   S    
C106  H26   S    
O7    Zn5   S    
C74   O14   A    
O22   Zn12  S    
C71   C103  S    
C67   O3    A    
C75   O15   A    
C16   C108  S    
C78   O21   A    
C76   O18   A    
O47   Zn6   S    
C53   H7    S    
O44   Zn8   S    
C84   C108  S    
C1    O27   A    
O32   Zn2   S    
C69   C127  S    
C44   H63   S    
C36   O30   A    
C98   C99   S    
C8    C84   S    
C99   H22   S    
C22   C136  S    
C47   C57   A    
C101  C116  A    
C5    H51   S    
C111  H31   S    
C12   C134  S    
C35   O29   A    
O21   Zn11  S    
O31   Zn2   S    
O23   Zn9   S    
C43   C45   S    
C21   C135  S    
C44   C46   S    
C119  H37   S    
C130  H54   S    
C70   O48   A    
O28   Zn4   S    
