data_mof_unit_18843.cif
_audit_creation_date              2012-12-11T17:04:52-0500
_audit_creation_method            fapswitch 2.2
_symmetry_space_group_name_H-M    P1
_symmetry_Int_Tables_number       1
_space_group_crystal_system       triclinic
_cell_length_a                    17.424575
_cell_length_b                    24.297391
_cell_length_c                    14.986405
_cell_angle_alpha                 90.262088
_cell_angle_beta                  125.432169
_cell_angle_gamma                 90.067721
_cell_volume                      5169.66336934

loop_
_atom_site_label
_atom_site_type_symbol
_atom_type_description
_atom_site_fract_x
_atom_site_fract_y
_atom_site_fract_z
_atom_type_partial_charge
Br1   Br    Br    0.783209 0.408672 0.449373 -0.503866
Br2   Br    Br    0.807309 0.407288 0.242769 -0.506944
Br3   Br    Br    0.282422 0.909303 0.448865 -0.503879
Br4   Br    Br    0.306889 0.907692 0.242529 -0.506637
Br5   Br    Br    0.390313 0.446342 0.545917 -0.563527
Br6   Br    Br    0.640389 0.550518 0.389778 -0.545022
Br7   Br    Br    0.890821 0.945557 0.545936 -0.563854
Br8   Br    Br    0.140012 0.051289 0.389904 -0.545020
C1    C     C_R   0.810737 0.627002 0.904987 -0.128395
C2    C     C_R   0.931638 0.501627 0.632439 0.152012
C3    C     C_R   0.770539 0.046028 0.274268 -0.113100
C4    C     C_R   0.851020 0.348949 0.909685 -0.099985
C5    C     C_R   0.148177 0.348901 0.088387 -0.136315
C6    C     C_R   0.351023 0.848948 0.909688 -0.099849
C7    C     C_R   0.648179 0.848903 0.088390 -0.136273
C8    C     C_R   0.905307 0.634244 0.087427 -0.112522
C9    C     C_R   0.096420 0.628324 0.908811 -0.115377
C10   C     C_R   0.405276 0.134207 0.087434 -0.112354
C11   C     C_R   0.596434 0.128308 0.908813 -0.115333
C12   C     C_R   0.815615 0.645709 0.994859 0.072637
C13   C     C_R   0.464790 0.001094 0.290524 0.147425
C14   C     C_R   0.183997 0.644267 0.000974 0.072127
C15   C     C_R   0.315585 0.145674 0.994861 0.072594
C16   C     C_R   0.684029 0.144230 0.000970 0.072045
C17   C     C_R   0.431589 0.001657 0.632479 0.152593
C18   C     C_R   0.693319 0.498391 0.642040 0.136142
C19   C     C_R   0.325028 0.499919 0.302202 0.103225
C20   C     C_R   0.193440 0.998390 0.641913 0.136338
C21   C     C_R   0.825020 0.999923 0.302492 0.103533
C22   C     C_3   0.538190 0.445695 0.494984 -0.246144
C23   C     C_3   0.498827 0.468395 0.379447 -0.207554
C24   C     C_3   0.038410 0.945668 0.494547 -0.245777
C25   C     C_R   0.186754 0.630074 0.092080 -0.125085
C26   C     C_3   0.998818 0.968701 0.379175 -0.207090
C27   C     C_3   0.462423 0.476874 0.496492 0.411645
C28   C     C_3   0.562964 0.519816 0.431500 0.441051
C29   C     C_3   0.962650 0.976559 0.496525 0.411253
C30   C     C_3   0.062837 0.020143 0.431597 0.440867
C31   C     C_3   0.424117 0.499317 0.383188 0.010116
C32   C     C_3   0.600260 0.497295 0.544376 0.030558
C33   C     C_3   0.924125 0.999331 0.383393 0.010031
C34   C     C_3   0.100357 0.997292 0.544305 0.030700
C35   C     C_3   0.486381 0.550932 0.432324 -0.279019
C36   C     C_R   0.310723 0.126982 0.904989 -0.128417
C37   C     C_3   0.524895 0.528143 0.546841 -0.243030
C38   C     C_3   0.986272 0.050971 0.432898 -0.279253
C39   C     C_3   0.025003 0.027850 0.547239 -0.242833
C40   C     C_R   0.892389 0.233872 0.102129 0.151718
C41   C     C_R   0.110683 0.236390 0.891637 0.152083
C42   C     C_R   0.392362 0.733905 0.102166 0.151779
C43   C     C_R   0.610681 0.736393 0.891642 0.152186
C44   C     C_R   0.863540 0.258892 0.003388 0.025991
C45   C     C_R   0.136456 0.259995 0.990865 0.024971
C46   C     C_R   0.363553 0.758900 0.003416 0.025983
C47   C     C_R   0.686790 0.130035 0.092079 -0.124965
C48   C     C_R   0.636454 0.759997 0.990869 0.024965
C49   C     C_R   0.800502 0.229750 0.905460 -0.179950
C50   C     C_R   0.195881 0.229829 0.087587 -0.182883
C51   C     C_R   0.300537 0.729747 0.905496 -0.179919
C52   C     C_R   0.695895 0.729837 0.087596 -0.182959
C53   C     C_R   0.945968 0.348680 0.091940 -0.116085
C54   C     C_R   0.055024 0.349507 0.905857 -0.145580
C55   C     C_R   0.445978 0.848681 0.091944 -0.116243
C56   C     C_R   0.555020 0.849506 0.905858 -0.145619
C57   C     C_R   0.248560 0.685900 0.905618 -0.176356
C58   C     C_R   0.883079 0.317024 0.001266 0.078213
C59   C     C_R   0.747969 0.686180 0.087558 -0.168437
C60   C     C_R   0.748550 0.185888 0.905586 -0.176378
C61   C     C_R   0.247934 0.186159 0.087547 -0.168342
C62   C     C_R   0.259736 0.671810 0.003517 0.034505
C63   C     C_R   0.739698 0.673205 0.990811 0.034763
C64   C     C_R   0.759765 0.171773 0.003496 0.034471
C65   C     C_R   0.239665 0.173177 0.990803 0.034741
C66   C     C_R   0.340402 0.691179 0.102273 0.175560
C67   C     C_R   0.661849 0.693319 0.891635 0.164464
C68   C     C_R   0.840451 0.191132 0.102240 0.175783
C69   C     C_R   0.117125 0.317734 0.995487 0.080555
C70   C     C_R   0.161833 0.193305 0.891629 0.164333
C71   C     C_3   0.355824 0.711307 0.206291 -0.499178
C72   C     C_3   0.653278 0.714378 0.792447 -0.510694
C73   C     C_3   0.855928 0.211228 0.206304 -0.499006
C74   C     C_3   0.153280 0.214365 0.792450 -0.510593
C75   C     C_3   0.913237 0.257544 0.206515 -0.475341
C76   C     C_3   0.097417 0.261582 0.792482 -0.492450
C77   C     C_3   0.413160 0.757609 0.206510 -0.475626
C78   C     C_3   0.597397 0.761585 0.792475 -0.492657
C79   C     C_R   0.933411 0.553371 0.497011 0.169186
C80   C     C_R   0.383090 0.817027 0.001274 0.078189
C81   C     C_R   0.943934 0.552808 0.413951 0.122571
C82   C     C_R   0.435023 0.053210 0.498204 0.167241
C83   C     C_R   0.445589 0.052593 0.415213 0.121458
C84   C     C_R   0.903363 0.506258 0.521138 -0.112029
C85   C     C_R   0.924037 0.505194 0.351553 -0.141418
C86   C     C_R   0.403807 0.006339 0.521459 -0.112293
C87   C     C_R   0.424577 0.005189 0.351996 -0.141558
C88   C     C_R   0.858069 0.464085 0.441231 0.298348
C89   C     C_R   0.868406 0.463593 0.354307 0.265745
C90   C     C_R   0.357929 0.964405 0.441140 0.298526
C91   C     C_R   0.617121 0.817735 0.995490 0.080562
C92   C     C_R   0.368339 0.963850 0.354281 0.265993
C93   C     C_3   0.031490 0.587648 0.477309 -0.475227
C94   C     C_3   0.019720 0.588225 0.569121 -0.501601
C95   C     C_3   0.534173 0.086511 0.479338 -0.473500
C96   C     C_3   0.522345 0.087172 0.571095 -0.500594
C97   C     C_R   0.992730 0.546517 0.261253 -0.133026
C98   C     C_R   0.947047 0.546696 0.696229 -0.143303
C99   C     C_R   0.492772 0.046516 0.261286 -0.133008
C100  C     C_R   0.447058 0.046717 0.696265 -0.142902
C101  C     C_R   0.741547 0.453277 0.702173 -0.081448
C102  C     C_R   0.964717 0.501109 0.290509 0.147088
C103  C     C_R   0.268955 0.453866 0.262492 -0.081965
C104  C     C_R   0.241620 0.953280 0.702090 -0.081435
C105  C     C_R   0.768960 0.953867 0.262656 -0.082196
C106  C     C_R   0.989933 0.454551 0.259223 -0.065942
C107  C     C_R   0.950498 0.455249 0.695120 -0.110849
C108  C     C_R   0.489938 0.954536 0.259206 -0.066239
C109  C     C_R   0.450414 0.955262 0.695079 -0.111423
C110  C     C_R   0.741470 0.545258 0.697571 -0.149242
C111  C     C_R   0.270560 0.546023 0.274106 -0.112671
C112  C     C_R   0.241530 0.045257 0.697515 -0.149383
H1    H     H_    0.751872 0.628535 0.820337 0.105908
H2    H     H_    0.537379 0.552270 0.617310 0.160046
H3    H     H_    0.964034 0.094042 0.405963 0.147737
H4    H     H_    0.037535 0.051732 0.617979 0.160195
H5    H     H_    0.781816 0.244706 0.827416 0.128607
H6    H     H_    0.211870 0.243804 0.165280 0.132942
H7    H     H_    0.281883 0.744687 0.827455 0.128649
H8    H     H_    0.711883 0.743811 0.165289 0.132913
H9    H     H_    0.192450 0.668439 0.827736 0.128340
H10   H     H_    0.801934 0.667718 0.164935 0.132627
H11   H     H_    0.692426 0.168436 0.827702 0.128237
H12   H     H_    0.241670 0.638393 0.175537 0.100199
H13   H     H_    0.301885 0.167691 0.164923 0.132735
H14   H     H_    0.398602 0.682295 0.275313 0.194444
H15   H     H_    0.610402 0.686585 0.720411 0.195942
H16   H     H_    0.898732 0.182199 0.275292 0.194675
H17   H     H_    0.110397 0.186577 0.720406 0.195993
H18   H     H_    0.290683 0.726701 0.195132 0.217597
H19   H     H_    0.721650 0.727884 0.809520 0.207837
H20   H     H_    0.790809 0.226612 0.195216 0.217597
H21   H     H_    0.221661 0.227860 0.809534 0.207853
H22   H     H_    0.989237 0.254997 0.275050 0.199236
H23   H     H_    0.251857 0.128509 0.820336 0.105931
H24   H     H_    0.022487 0.260968 0.720408 0.201924
H25   H     H_    0.489149 0.755064 0.275083 0.199101
H26   H     H_    0.522466 0.760961 0.720406 0.201820
H27   H     H_    0.880111 0.298261 0.196314 0.239085
H28   H     H_    0.134247 0.301773 0.809462 0.208685
H29   H     H_    0.380034 0.798332 0.196259 0.238915
H30   H     H_    0.634209 0.801781 0.809442 0.208671
H31   H     H_    0.021475 0.629055 0.440842 0.189482
H32   H     H_    0.077337 0.566398 0.643286 0.203308
H33   H     H_    0.525501 0.128027 0.443781 0.189299
H34   H     H_    0.741745 0.138317 0.175537 0.100229
H35   H     H_    0.579237 0.064723 0.644808 0.203551
H36   H     H_    0.996733 0.334370 0.174253 0.097962
H37   H     H_    0.005858 0.335672 0.822338 0.107334
H38   H     H_    0.496749 0.834372 0.174256 0.097950
H39   H     H_    0.505849 0.835670 0.822340 0.107257
H40   H     H_    0.095697 0.565440 0.498264 0.211246
H41   H     H_    0.002705 0.629707 0.584585 0.192939
H42   H     H_    0.597667 0.063610 0.499772 0.211302
H43   H     H_    0.506557 0.128809 0.587469 0.192304
H44   H     H_    0.991539 0.588426 0.282062 0.101029
H45   H     H_    0.560549 0.402644 0.521975 0.160412
H46   H     H_    0.926587 0.588673 0.668911 0.118047
H47   H     H_    0.491714 0.088419 0.282302 0.100858
H48   H     H_    0.426815 0.088723 0.669006 0.117977
H49   H     H_    0.726860 0.410454 0.677768 0.104932
H50   H     H_    0.290178 0.411214 0.278228 0.116404
H51   H     H_    0.226944 0.910455 0.677697 0.104945
H52   H     H_    0.790181 0.911215 0.278388 0.116703
H53   H     H_    0.983352 0.411935 0.273994 0.133643
H54   H     H_    0.938818 0.412753 0.668812 0.140333
H55   H     H_    0.483374 0.911923 0.274018 0.133451
H56   H     H_    0.484993 0.444509 0.308151 0.173441
H57   H     H_    0.438697 0.912774 0.668691 0.140131
H58   H     H_    0.725972 0.586935 0.666968 0.118540
H59   H     H_    0.293888 0.586653 0.309078 0.095596
H60   H     H_    0.226034 0.086938 0.666941 0.118853
H61   H     H_    0.793815 0.086669 0.309202 0.095560
H62   H     H_    0.811209 0.335157 0.825459 0.086998
H63   H     H_    0.186849 0.334462 0.171764 0.095428
H64   H     H_    0.311206 0.835155 0.825462 0.086985
H65   H     H_    0.686857 0.834466 0.171769 0.095466
H66   H     H_    0.935397 0.650205 0.168370 0.088745
H67   H     H_    0.060920 0.902588 0.521118 0.160557
H68   H     H_    0.069577 0.633223 0.823841 0.093449
H69   H     H_    0.435339 0.150128 0.168398 0.088800
H70   H     H_    0.569589 0.133212 0.823845 0.093332
H71   H     H_    0.984927 0.945061 0.307607 0.173535
H72   H     H_    0.464241 0.593962 0.404935 0.147715
N1    N     N_R   0.892620 0.603790 0.941770 -0.042358
N2    N     N_R   0.973690 0.529110 0.793240 -0.048261
N3    N     N_R   0.526310 0.029110 0.206760 -0.046361
N4    N     N_R   0.473690 0.029110 0.793240 -0.048338
N5    N     N_R   0.818570 0.472310 0.793020 -0.046719
N6    N     N_R   0.181430 0.472310 0.206980 -0.046026
N7    N     N_R   0.318570 0.972310 0.793020 -0.046727
N8    N     N_R   0.681430 0.972310 0.206980 -0.046087
N9    N     N_R   0.026930 0.472300 0.207330 -0.051067
N10   N     N_R   0.973070 0.472300 0.792670 -0.049732
N11   N     N_R   0.526930 0.972300 0.207330 -0.051086
N12   N     N_R   0.107380 0.603790 0.058230 -0.044273
N13   N     N_R   0.473070 0.972300 0.792670 -0.049735
N14   N     N_R   0.817960 0.529130 0.792460 -0.044403
N15   N     N_R   0.182040 0.529130 0.207540 -0.046715
N16   N     N_R   0.317960 0.029130 0.792460 -0.044424
N17   N     N_R   0.682040 0.029130 0.207540 -0.046746
N18   N     N_R   0.894850 0.397640 0.943830 -0.041972
N19   N     N_R   0.105150 0.397640 0.056170 -0.044434
N20   N     N_R   0.394850 0.897640 0.943830 -0.041959
N21   N     N_R   0.605150 0.897640 0.056170 -0.044418
N22   N     N_R   0.950040 0.603780 0.055950 -0.042081
N23   N     N_R   0.392620 0.103790 0.941770 -0.042351
N24   N     N_R   0.049960 0.603780 0.944050 -0.043855
N25   N     N_R   0.450040 0.103780 0.055950 -0.042081
N26   N     N_R   0.549960 0.103780 0.944050 -0.043851
N27   N     N_R   0.607380 0.103790 0.058230 -0.044267
N28   N     N_R   0.952270 0.397640 0.058010 -0.040260
N29   N     N_R   0.047730 0.397640 0.941990 -0.042359
N30   N     N_R   0.452270 0.897640 0.058010 -0.040211
N31   N     N_R   0.547730 0.897640 0.941990 -0.042346
N32   N     N_R   0.026310 0.529110 0.206760 -0.046311
Ni1   Ni    Ni4+2 0.934160 0.565860 0.869070 0.223483
Ni2   Ni    Ni4+2 0.065840 0.565860 0.130930 0.228943
Ni3   Ni    Ni4+2 0.434160 0.065860 0.869070 0.223571
Ni4   Ni    Ni4+2 0.565840 0.065860 0.130930 0.228851
Ni5   Ni    Ni4+2 0.067260 0.435560 0.132230 0.229314
Ni6   Ni    Ni4+2 0.932740 0.435560 0.867770 0.222058
Ni7   Ni    Ni4+2 0.567260 0.935560 0.132230 0.229243
Ni8   Ni    Ni4+2 0.432740 0.935560 0.867770 0.221986

loop_
_geom_bond_atom_site_label_1
_geom_bond_atom_site_label_2
_ccdc_geom_bond_type
C73   H20   S    
C46   C80   S    
C97   C102  A    
C10   H69   S    
C93   C94   S    
C85   C89   A    
C55   C80   A    
C47   H34   S    
C36   N23   A    
C5    N19   A    
C54   C69   A    
C101  N5    A    
C3    H61   S    
C53   N28   A    
C64   C68   A    
C18   C32   S    
C6    H64   S    
C96   H43   S    
C99   N3    A    
N26   N27   A    
N6    Ni5   S    
N1    N22   A    
C98   N2    A    
N20   N30   A    
N5    Ni6   S    
C20   C104  A    
C16   C47   A    
C7    H65   S    
C42   C46   A    
C72   H15   S    
Br8   C30   S    
N3    Ni4   S    
C98   H46   S    
N2    Ni1   S    
N25   Ni4   S    
C26   H71   S    
C110  N14   A    
C43   C67   A    
C30   C34   S    
C107  H54   S    
C109  N13   A    
C78   H30   S    
N16   Ni3   S    
C49   H5    S    
C22   C23   S    
N20   Ni8   S    
C1    N1    A    
C19   C111  A    
C104  H51   S    
N3    N11   A    
C86   C90   A    
C9    H68   S    
C51   H7    S    
C57   C62   A    
N2    N10   A    
C107  N10   A    
C84   C88   A    
N18   N28   A    
C41   C70   A    
C52   C59   A    
C43   C48   A    
C54   N29   A    
N4    N13   A    
C14   C25   A    
C40   C68   A    
C72   C78   S    
C1    C12   A    
C42   C77   S    
C53   C58   A    
C95   H33   S    
C106  H53   S    
C4    H62   S    
Br2   C89   S    
C19   C31   S    
C5    H63   S    
N29   Ni6   S    
C62   C66   A    
C1    H1    S    
C33   C38   S    
C12   C63   S    
C61   C65   A    
N8    Ni7   S    
N27   Ni4   S    
C100  N4    A    
C9    N24   A    
C67   C72   S    
C102  C106  A    
C104  N7    A    
C59   C63   A    
C46   C51   A    
N21   Ni7   S    
C7    N21   A    
C85   C102  S    
N10   Ni6   S    
C21   C33   S    
N9    Ni5   S    
C6    C80   A    
C100  H48   S    
N4    Ni3   S    
C19   C103  A    
C17   C86   S    
C63   C67   A    
C79   C84   A    
C55   H38   S    
C29   C33   S    
C55   N30   A    
N5    N14   A    
C26   C33   S    
C111  H59   S    
C15   C65   S    
C74   H21   S    
C78   H26   S    
C43   C78   S    
C73   C75   S    
C101  H49   S    
C82   C86   A    
C105  H52   S    
C99   H47   S    
C23   H56   S    
C56   C91   A    
N18   Ni6   S    
C32   C37   S    
C5    C69   A    
C54   H37   S    
C10   C15   A    
C112  N16   A    
C52   H8    S    
C93   H40   S    
N8    N17   A    
C20   C112  A    
C83   C95   S    
C87   C92   A    
C31   C35   S    
C13   C87   S    
C65   C70   A    
C4    C58   A    
C93   H31   S    
C15   C36   A    
C48   C52   A    
C56   N31   A    
N32   Ni2   S    
C24   C26   S    
C76   H28   S    
C45   C69   S    
N7    Ni8   S    
Br6   C28   S    
C27   C31   S    
C79   C94   S    
C70   C74   S    
N15   Ni2   S    
C57   H9    S    
C28   C32   S    
C60   C64   A    
C88   C89   A    
N14   Ni1   S    
Br7   C29   S    
C106  N9    A    
C22   C32   S    
C11   N26   A    
C8    C12   A    
C24   C29   S    
C8    N22   A    
C35   C37   S    
C18   C101  A    
C82   C96   S    
C13   C99   A    
C72   H19   S    
C2    C84   S    
N28   Ni5   S    
C25   H12   S    
N17   Ni4   S    
C35   H72   S    
C50   H6    S    
C90   C92   A    
C66   C71   S    
Br4   C92   S    
C75   H27   S    
C38   H3    S    
C2    C98   A    
C59   H10   S    
C29   C39   S    
C49   C60   A    
N12   Ni2   S    
N24   Ni1   S    
C27   C37   S    
C53   H36   S    
C110  H58   S    
N26   Ni3   S    
C71   C77   S    
C108  N11   A    
C44   C58   S    
N31   Ni8   S    
C16   C64   S    
C73   H16   S    
C41   C76   S    
C71   H14   S    
C21   C105  A    
C38   C39   S    
C95   H42   S    
C61   H13   S    
N19   Ni5   S    
C24   H67   S    
C81   C93   S    
N6    N15   A    
C26   C30   S    
C18   C110  A    
C22   H45   S    
C7    C91   A    
C28   C35   S    
C17   C109  A    
C68   C73   S    
N30   Ni7   S    
C75   H22   S    
C47   N27   A    
C45   C50   A    
C50   C61   A    
C60   H11   S    
C97   H44   S    
C37   H2    S    
C74   H17   S    
C97   N32   A    
C22   C27   S    
N12   N24   A    
C25   N12   A    
C74   C76   S    
C9    C14   A    
C48   C91   S    
C40   C75   S    
C6    N20   A    
C103  H50   S    
C36   H23   S    
C79   C81   A    
C11   C16   A    
C112  H60   S    
C4    N18   A    
C103  N6    A    
C8    H66   S    
C3    N17   A    
N11   Ni7   S    
N21   N31   A    
Br3   C90   S    
C42   C66   A    
C39   H4    S    
C24   C34   S    
C13   C108  A    
Br1   C88   S    
C41   C45   A    
C94   H41   S    
Br5   C27   S    
C56   H39   S    
C20   C34   S    
N7    N16   A    
C105  N8    A    
C23   C31   S    
N23   Ni3   S    
C34   C39   S    
C108  H55   S    
C96   H35   S    
C81   C85   A    
N22   Ni2   S    
C77   H29   S    
C30   C38   S    
N23   N25   A    
C44   C49   A    
C11   H70   S    
N1    Ni1   S    
C40   C44   A    
C71   H18   S    
C111  N15   A    
C3    C21   A    
C83   C87   A    
C95   C96   S    
C76   H24   S    
C23   C28   S    
N13   Ni8   S    
C109  H57   S    
N9    N32   A    
C77   H25   S    
C10   N25   A    
C14   C62   S    
C51   C57   A    
C2    C107  A    
C82   C83   A    
C17   C100  A    
C94   H32   S    
N19   N29   A    
