data_mof_unit_12782.cif
_audit_creation_date              2012-12-11T14:04:25-0500
_audit_creation_method            fapswitch 2.2
_symmetry_space_group_name_H-M    P1
_symmetry_Int_Tables_number       1
_space_group_crystal_system       triclinic
_cell_length_a                    19.228779
_cell_length_b                    10.831103
_cell_length_c                    18.91099
_cell_angle_alpha                 89.99987
_cell_angle_beta                  89.032937
_cell_angle_gamma                 89.99974
_cell_volume                      3938.00981907

loop_
_atom_site_label
_atom_site_type_symbol
_atom_type_description
_atom_site_fract_x
_atom_site_fract_y
_atom_site_fract_z
_atom_type_partial_charge
C1    C     C_R   0.240647 0.466895 0.647190 0.550793
C2    C     C_R   0.759982 0.467876 0.353636 0.551674
C3    C     C_R   0.740016 0.967883 0.646362 0.551635
C4    C     C_R   0.259354 0.966894 0.352810 0.550788
C5    C     C_2   0.263683 0.808664 0.529970 -0.161425
C6    C     C_2   0.724072 0.824180 0.465608 -0.163400
C7    C     C_2   0.775895 0.324112 0.534381 -0.163410
C8    C     C_2   0.236353 0.308637 0.470036 -0.161452
C9    C     C_R   0.962335 0.632740 0.437142 -0.014050
C10   C     C_R   0.040728 0.638925 0.561995 -0.025606
C11   C     C_R   0.459255 0.138900 0.438008 -0.025605
C12   C     C_R   0.537647 0.132725 0.562861 -0.014021
C13   C     C_R   0.926930 0.845032 0.462730 -0.084197
C14   C     C_R   0.039073 0.868126 0.550221 -0.091450
C15   C     C_R   0.460873 0.368095 0.449792 -0.091425
C16   C     C_R   0.573023 0.345043 0.537274 -0.084242
C17   C     C_R   0.943561 0.960591 0.489312 -0.116875
C18   C     C_R   0.002414 0.973010 0.529845 -0.127901
C19   C     C_R   0.497529 0.472991 0.470150 -0.127867
C20   C     C_R   0.556385 0.460592 0.510681 -0.116917
C21   C     C_R   0.017225 0.748708 0.529758 -0.000253
C22   C     C_R   0.968112 0.741028 0.476768 -0.010154
C23   C     C_R   0.531852 0.241020 0.523241 -0.010146
C24   C     C_R   0.482736 0.248686 0.470255 -0.000271
C25   C     C_R   0.031310 0.519394 0.526302 -0.019835
C26   C     C_R   0.991181 0.516313 0.463313 -0.000316
C27   C     C_R   0.508817 0.016278 0.536688 -0.000313
C28   C     C_R   0.468690 0.019359 0.473693 -0.019831
C29   C     C_R   0.059944 0.400542 0.548188 0.290904
C30   C     C_R   0.983585 0.396016 0.428137 0.309327
C31   C     C_R   0.516443 0.895959 0.571849 0.309414
C32   C     C_R   0.440077 0.900502 0.451785 0.290919
C33   C     C_R   0.070021 0.306889 0.499142 -0.151600
C34   C     C_R   0.033939 0.305557 0.439016 -0.167021
C35   C     C_R   0.466160 0.805399 0.560898 -0.167023
C36   C     C_R   0.430039 0.806797 0.500801 -0.151625
C37   C     C_2   0.253049 0.931247 0.916956 -0.111182
C38   C     C_2   0.747298 0.931013 0.082879 -0.112160
C39   C     C_2   0.752701 0.431009 0.917122 -0.112167
C40   C     C_2   0.246951 0.431248 0.083044 -0.111183
C41   C     C_2   0.256325 0.935074 0.074560 -0.118174
C42   C     C_2   0.743824 0.935198 0.925476 -0.109111
C43   C     C_2   0.756177 0.435199 0.074524 -0.109115
C44   C     C_2   0.243676 0.435072 0.925440 -0.118176
C45   C     C_R   0.226494 0.872320 0.646830 0.536982
C46   C     C_R   0.772085 0.875938 0.351517 0.531254
C47   C     C_R   0.727909 0.375915 0.648466 0.531230
C48   C     C_R   0.273506 0.372317 0.353171 0.536969
C49   C     C_2   0.243288 0.028847 0.030052 -0.126024
C50   C     C_2   0.757695 0.028839 0.969845 -0.123579
C51   C     C_2   0.742305 0.528840 0.030155 -0.123577
C52   C     C_2   0.256711 0.528845 0.969948 -0.126024
C53   C     C_2   0.215858 0.006877 0.959691 -0.018975
C54   C     C_2   0.784695 0.006806 0.040393 -0.021701
C55   C     C_2   0.715307 0.506810 0.959606 -0.021685
C56   C     C_2   0.284142 0.506876 0.040308 -0.018976
C57   C     C_2   0.010830 0.656147 0.926724 -0.102965
C58   C     C_2   0.009412 0.664421 0.082947 -0.107248
C59   C     C_2   0.490587 0.164422 0.917053 -0.107233
C60   C     C_2   0.489169 0.156147 0.073275 -0.102965
C61   C     C_2   0.022726 0.563252 0.044883 -0.165106
C62   C     C_2   0.036849 0.568376 0.969330 -0.155940
C63   C     C_2   0.463150 0.068377 0.030670 -0.155941
C64   C     C_2   0.477273 0.063253 0.955117 -0.165101
C65   C     C_R   0.062375 0.647361 0.637003 0.573539
C66   C     C_R   0.938786 0.646306 0.362942 0.570692
C67   C     C_R   0.561210 0.146304 0.637057 0.570689
C68   C     C_R   0.437620 0.147355 0.362995 0.573536
C69   C     C_R   0.237730 0.467664 0.851614 0.542864
C70   C     C_R   0.762265 0.467739 0.148362 0.547589
C71   C     C_R   0.737735 0.967739 0.851638 0.547588
C72   C     C_R   0.262270 0.967664 0.148386 0.542871
C73   C     C_R   0.226927 0.874893 0.852595 0.546790
C74   C     C_R   0.773110 0.874884 0.147404 0.547981
C75   C     C_R   0.726890 0.374884 0.852595 0.547983
C76   C     C_R   0.273073 0.374893 0.147405 0.546792
C77   C     C_R   0.031231 0.651834 0.852616 0.560845
C78   C     C_R   0.972340 0.652976 0.149968 0.568117
C79   C     C_R   0.527660 0.152976 0.850032 0.568122
C80   C     C_R   0.468768 0.151834 0.147384 0.560847
C81   C     C_2   0.245119 0.901803 0.574138 -0.107014
C82   C     C_2   0.750507 0.912173 0.422384 -0.116980
C83   C     C_2   0.749491 0.412140 0.577603 -0.116982
C84   C     C_2   0.254886 0.401789 0.425864 -0.107022
C85   C     C_2   0.239547 0.915692 0.421036 -0.100291
C86   C     C_2   0.757125 0.918420 0.576724 -0.104721
C87   C     C_2   0.742851 0.418337 0.423262 -0.104782
C88   C     C_2   0.260456 0.415701 0.578964 -0.100246
C89   C     C_2   0.273183 0.826161 0.453319 -0.153637
C90   C     C_2   0.717013 0.840000 0.542039 -0.147574
C91   C     C_2   0.782976 0.339950 0.457954 -0.147586
C92   C     C_2   0.226843 0.326140 0.546687 -0.153635
Cr1   Cr    Cr6+3 0.113970 0.508630 0.747920 1.021991
Cr2   Cr    Cr6+3 0.886030 0.508630 0.252080 1.006402
Cr3   Cr    Cr6+3 0.613970 0.008630 0.747920 1.006378
Cr4   Cr    Cr6+3 0.386030 0.008630 0.252080 1.021974
Cr5   Cr    Cr6+3 0.269200 0.666740 0.749850 0.999860
Cr6   Cr    Cr6+3 0.730800 0.666740 0.250150 0.977347
Cr7   Cr    Cr6+3 0.769200 0.166740 0.749850 0.977365
Cr8   Cr    Cr6+3 0.230800 0.166740 0.250150 0.999804
Cr9   Cr    Cr6+3 0.112300 0.820070 0.749800 0.992726
Cr10  Cr    Cr6+3 0.887700 0.820070 0.250200 0.990310
Cr11  Cr    Cr6+3 0.612300 0.320070 0.749800 0.990310
Cr12  Cr    Cr6+3 0.387700 0.320070 0.250200 0.992726
H1    H     H_    0.307316 0.765680 0.423268 0.153606
H2    H     H_    0.680727 0.781591 0.569660 0.163095
H3    H     H_    0.819289 0.281579 0.430337 0.163147
H4    H     H_    0.192716 0.265646 0.576739 0.153564
H5    H     H_    0.255741 0.839062 0.058077 0.084706
H6    H     H_    0.743614 0.839245 0.942075 0.081383
H7    H     H_    0.756390 0.339247 0.057924 0.081380
H8    H     H_    0.244263 0.339060 0.941922 0.084707
H9    H     H_    0.303844 0.899792 0.933873 0.084840
H10   H     H_    0.696688 0.899241 0.065640 0.089994
H11   H     H_    0.803309 0.399228 0.934364 0.089992
H12   H     H_    0.196156 0.399795 0.066127 0.084844
H13   H     H_    0.018961 0.471817 0.068331 0.148222
H14   H     H_    0.067012 0.491806 0.947757 0.155429
H15   H     H_    0.432986 0.991808 0.052243 0.155427
H16   H     H_    0.481038 0.971817 0.931669 0.148226
H17   H     H_    0.016487 0.756037 0.060546 0.098897
H18   H     H_    0.980979 0.733993 0.946864 0.089797
H19   H     H_    0.519022 0.233991 0.053135 0.089798
H20   H     H_    0.483513 0.256037 0.939453 0.098896
H21   H     H_    0.272723 0.716399 0.550422 0.143652
H22   H     H_    0.708749 0.734705 0.445008 0.150299
H23   H     H_    0.791180 0.234610 0.554979 0.150279
H24   H     H_    0.227339 0.216362 0.449588 0.143629
H25   H     H_    0.196772 0.962073 0.448475 0.103589
H26   H     H_    0.801470 0.960474 0.549820 0.106577
H27   H     H_    0.698475 0.460319 0.450165 0.106618
H28   H     H_    0.303222 0.462103 0.551522 0.103597
H29   H     H_    0.235804 0.994983 0.555466 0.083945
H30   H     H_    0.766200 0.002079 0.441804 0.087459
H31   H     H_    0.733831 0.502067 0.558179 0.087481
H32   H     H_    0.264174 0.494980 0.444532 0.083954
H33   H     H_    0.912057 0.040262 0.476992 0.096252
H34   H     H_    0.018301 0.063211 0.546760 0.098932
H35   H     H_    0.481640 0.563184 0.453216 0.098921
H36   H     H_    0.587889 0.540271 0.522986 0.096255
H37   H     H_    0.881384 0.834769 0.432126 0.143723
H38   H     H_    0.084918 0.881352 0.580689 0.156373
H39   H     H_    0.415025 0.381300 0.419326 0.156376
H40   H     H_    0.618572 0.334799 0.567877 0.143714
H41   H     H_    0.100136 0.225543 0.510980 0.102187
H42   H     H_    0.040104 0.223344 0.407329 0.113158
H43   H     H_    0.460064 0.723077 0.592504 0.113075
H44   H     H_    0.399937 0.725443 0.488943 0.102150
H45   H     H_    0.243420 0.123547 0.049211 0.152180
H46   H     H_    0.758192 0.123447 0.950545 0.152134
H47   H     H_    0.741806 0.623448 0.049456 0.152136
H48   H     H_    0.256578 0.623545 0.950789 0.152178
O1    O     O_R   0.043230 0.549300 0.667990 -0.462160
O2    O     O_R   0.956770 0.549300 0.332010 -0.473039
O3    O     O_R   0.543230 0.049300 0.667990 -0.473062
O4    O     O_R   0.456770 0.049300 0.332010 -0.462153
O5    O     O_R   0.262920 0.788600 0.824420 -0.503024
O6    O     O_R   0.737080 0.788600 0.175580 -0.504530
O7    O     O_R   0.762920 0.288600 0.824420 -0.504522
O8    O     O_R   0.237080 0.288600 0.175580 -0.503011
O9    O     O_R   0.167530 0.905110 0.830340 -0.526348
O10   O     O_R   0.832470 0.905110 0.169660 -0.529899
O11   O     O_R   0.667530 0.405110 0.830340 -0.529862
O12   O     O_R   0.332470 0.405110 0.169660 -0.526347
O13   O     O_R   0.054010 0.748440 0.822860 -0.493607
O14   O     O_R   0.945990 0.748440 0.177140 -0.495934
O15   O     O_R   0.554010 0.248440 0.822860 -0.495909
O16   O     O_R   0.445990 0.248440 0.177140 -0.493606
O17   O     O_3   0.165160 0.665150 0.749190 -0.267469
O18   O     O_3   0.834840 0.665150 0.250810 -0.260032
O19   O     O_3   0.665160 0.165150 0.749190 -0.260032
O20   O     O_3   0.334840 0.165150 0.250810 -0.267468
O21   O     O_R   0.178620 0.457600 0.674100 -0.452260
O22   O     O_R   0.821380 0.457600 0.325900 -0.468993
O23   O     O_R   0.678620 0.957600 0.674100 -0.469052
O24   O     O_R   0.321380 0.957600 0.325900 -0.452261
O25   O     O_R   0.284680 0.542100 0.669460 -0.532150
O26   O     O_R   0.715320 0.542100 0.330540 -0.541608
O27   O     O_R   0.784680 0.042100 0.669460 -0.541597
O28   O     O_R   0.215320 0.042100 0.330540 -0.532195
O29   O     O_R   0.262860 0.790390 0.676650 -0.491083
O30   O     O_R   0.737140 0.790390 0.323350 -0.505934
O31   O     O_R   0.762860 0.290390 0.676650 -0.505913
O32   O     O_R   0.237140 0.290390 0.323350 -0.491065
O33   O     O_R   0.167460 0.907030 0.670940 -0.549692
O34   O     O_R   0.832540 0.907030 0.329060 -0.543941
O35   O     O_R   0.667460 0.407030 0.670940 -0.543874
O36   O     O_R   0.332540 0.407030 0.329060 -0.549698
O37   O     O_R   0.053950 0.750220 0.675100 -0.509548
O38   O     O_R   0.946050 0.750220 0.324900 -0.500381
O39   O     O_R   0.553950 0.250220 0.675100 -0.500434
O40   O     O_R   0.446050 0.250220 0.324900 -0.509533
O41   O     O_R   0.043300 0.547370 0.827390 -0.518614
O42   O     O_R   0.956700 0.547370 0.172610 -0.531370
O43   O     O_R   0.543300 0.047370 0.827390 -0.531508
O44   O     O_R   0.456700 0.047370 0.172610 -0.518620
O45   O     O_R   0.178690 0.455820 0.821860 -0.509786
O46   O     O_R   0.821310 0.455820 0.178140 -0.508392
O47   O     O_R   0.678690 0.955820 0.821860 -0.508333
O48   O     O_R   0.321310 0.955820 0.178140 -0.509791
O49   O     O_R   0.284750 0.540170 0.828860 -0.511254
O50   O     O_R   0.715250 0.540170 0.171140 -0.514878
O51   O     O_R   0.784750 0.040170 0.828860 -0.514880
O52   O     O_R   0.215250 0.040170 0.171140 -0.511251
C93   C     C_3   0.145599 0.062197 0.940104 -0.238019
C94   C     C_3   0.113733 0.150781 0.994759 -0.459923
H49   H     H_    0.105499 0.103477 0.046353 0.169010
H50   H     H_    0.147605 0.232456 0.001626 0.138119
H51   H     H_    0.062562 0.183610 0.975967 0.127858
H52   H     H_    0.151588 0.113707 0.889514 0.162754
H53   H     H_    0.107465 0.986213 0.933289 0.176407
C95   C     C_3   0.854655 0.062731 0.060630 -0.241891
C96   C     C_3   0.886856 0.151481 0.006306 -0.454850
H54   H     H_    0.895628 0.104223 0.954784 0.168947
H55   H     H_    0.852931 0.232984 0.999128 0.142739
H56   H     H_    0.937791 0.184525 0.025624 0.129398
H57   H     H_    0.848107 0.114200 0.111177 0.160454
H58   H     H_    0.892947 0.987102 0.067770 0.175467
C97   C     C_3   0.645354 0.562755 0.939362 -0.241902
C98   C     C_3   0.613150 0.651501 0.993687 -0.454835
H59   H     H_    0.604369 0.604236 0.045205 0.168937
H60   H     H_    0.647078 0.732997 0.000874 0.142744
H61   H     H_    0.562219 0.684557 0.974364 0.129408
H62   H     H_    0.651914 0.614233 0.888820 0.160330
H63   H     H_    0.607057 0.487138 0.932212 0.175488
C99   C     C_3   0.354403 0.562192 0.059893 -0.238020
C100  C     C_3   0.386270 0.650772 0.005237 -0.459922
H64   H     H_    0.394501 0.603467 0.953643 0.169010
H65   H     H_    0.352399 0.732450 0.998370 0.138119
H66   H     H_    0.437442 0.683597 0.024027 0.127857
H67   H     H_    0.348415 0.613703 0.110482 0.162752
H68   H     H_    0.392536 0.486206 0.066709 0.176407
O53   O     O_3   0.924411 0.367718 0.389099 -0.536095
C101  C     C_3   0.927227 0.258609 0.346522 0.015730
H69   H     H_    0.874446 0.241744 0.325697 0.141142
H70   H     H_    0.937466 0.174846 0.378508 0.101238
C102  C     C_3   0.975840 0.271201 0.281330 -0.262358
H71   H     H_    0.952445 0.335774 0.243066 0.198834
H72   H     H_    0.027343 0.308940 0.295660 0.162190
C103  C     C_3   0.986399 0.146794 0.244768 -0.479203
H73   H     H_    0.011776 0.080615 0.281064 0.158356
H74   H     H_    0.020230 0.158808 0.197082 0.138932
H75   H     H_    0.935647 0.108355 0.228163 0.151637
O54   O     O_3   0.083127 0.374553 0.614699 -0.523705
C104  C     C_3   0.052038 0.269527 0.647236 0.026286
H76   H     H_    0.071364 0.266824 0.702254 0.153942
H77   H     H_    0.070987 0.182687 0.622934 0.091283
C105  C     C_3   0.972135 0.275282 0.651236 -0.285942
H78   H     H_    0.955330 0.365437 0.673658 0.195881
H79   H     H_    0.950140 0.265810 0.597529 0.149457
C106  C     C_3   0.943169 0.172171 0.698049 -0.457996
H80   H     H_    0.955398 0.080561 0.674549 0.155106
H81   H     H_    0.886087 0.182365 0.702991 0.208214
H82   H     H_    0.965215 0.177566 0.751884 0.124663
O55   O     O_3   0.416881 0.874540 0.385275 -0.523708
C107  C     C_3   0.447970 0.769540 0.352707 0.026306
H83   H     H_    0.428663 0.766912 0.297680 0.153956
H84   H     H_    0.429003 0.682676 0.376968 0.091305
C108  C     C_3   0.527875 0.775259 0.348736 -0.285972
H85   H     H_    0.544701 0.865419 0.326337 0.195850
H86   H     H_    0.549851 0.765742 0.402448 0.149448
C109  C     C_3   0.556840 0.672158 0.301916 -0.457998
H87   H     H_    0.544592 0.580544 0.325399 0.155094
H88   H     H_    0.613924 0.682327 0.296993 0.208236
H89   H     H_    0.534812 0.677590 0.248075 0.124664
O56   O     O_3   0.575598 0.867722 0.610927 -0.536114
C110  C     C_3   0.572810 0.758618 0.653511 0.015781
H90   H     H_    0.625582 0.741907 0.674403 0.141429
H91   H     H_    0.562675 0.674818 0.621522 0.101082
C111  C     C_3   0.524100 0.771083 0.718638 -0.262406
H92   H     H_    0.547139 0.836452 0.756723 0.199482
H93   H     H_    0.472392 0.807837 0.704155 0.161473
C112  C     C_3   0.514186 0.646825 0.755594 -0.478603
H94   H     H_    0.489470 0.579593 0.719375 0.158410
H95   H     H_    0.479999 0.658700 0.803043 0.138894
H96   H     H_    0.565132 0.609687 0.772673 0.151169

loop_
_geom_bond_atom_site_label_1
_geom_bond_atom_site_label_2
_ccdc_geom_bond_type
Cr10  O18   S    
C67   O39   A    
C7    C83   D    
C14   H38   S    
C15   C19   A    
C69   O49   A    
C46   O30   A    
C6    C82   D    
C87   C91   D    
Cr8   O20   S    
C34   H42   S    
C14   C18   A    
C35   C36   A    
C108  C109  S    
C45   O33   A    
C109  H89   S    
C98   H60   S    
Cr5   O17   S    
C106  H80   S    
C40   H12   S    
C96   H54   S    
C11   C68   S    
C71   O51   A    
C12   C23   A    
C1    O21   A    
C59   C64   D    
C50   C54   S    
C101  H70   S    
C60   C63   D    
C32   C36   A    
C14   C21   A    
C67   O3    A    
C16   H40   S    
C48   O36   A    
Cr7   O7    S    
Cr3   O19   S    
C38   H10   S    
C110  C111  S    
C94   H50   S    
C9    C22   A    
C10   C65   S    
Cr7   O19   S    
C95   H57   S    
C35   H43   S    
C77   O13   A    
C99   H67   S    
Cr12  O40   S    
C107  C108  S    
C73   O5    A    
C11   C24   A    
C112  H96   S    
C79   O43   A    
O54   C104  S    
C32   O55   S    
C75   O11   A    
C112  H95   S    
C78   O42   A    
C87   H27   S    
C18   H34   S    
Cr3   O47   S    
Cr3   O23   S    
C9    C66   S    
C42   C71   S    
Cr11  O19   S    
C65   O1    A    
C85   H25   S    
C97   H62   S    
C46   C82   S    
C52   C56   S    
C1    O25   A    
C92   H4    S    
C39   C55   D    
C88   C92   D    
C29   C33   A    
C40   C76   S    
C40   C56   D    
C107  H84   S    
C53   C93   S    
C23   C24   A    
Cr9   O17   S    
C8    C92   S    
C39   C75   S    
Cr6   O26   S    
O53   C101  S    
C104  C105  S    
Cr7   O31   S    
C2    O22   A    
C105  C106  S    
C52   H48   S    
C72   O52   A    
Cr12  O20   S    
C27   C28   A    
C37   C53   D    
C44   C52   D    
C1    C88   S    
C54   C95   S    
C57   H18   S    
C51   H47   S    
Cr1   O17   S    
C70   O46   A    
C41   H5    S    
C21   C22   A    
C63   C64   S    
C3    C86   S    
C69   O45   A    
C111  C112  S    
C58   C78   S    
C43   H7    S    
C4    O28   A    
Cr9   O33   S    
C41   C49   D    
C98   H59   S    
Cr1   O21   S    
C48   O32   A    
C105  H79   S    
C9    C26   A    
C17   C18   A    
C96   H55   S    
C10   C21   A    
C25   C29   A    
C102  H72   S    
Cr12  O36   S    
C12   C67   S    
C45   C81   S    
C78   O14   A    
C76   O8    A    
C74   O6    A    
C12   C27   A    
C45   O29   A    
Cr5   O29   S    
Cr6   O6    S    
C57   C62   D    
Cr11  O35   S    
C90   H2    S    
C47   O31   A    
Cr10  O10   S    
C86   C90   D    
C31   O56   S    
C59   C79   S    
C97   C98   S    
C74   O10   A    
C104  H76   S    
C85   C89   D    
C94   H49   S    
C86   H26   S    
C106  H82   S    
C55   C97   S    
C4    C85   S    
C8    C84   D    
C25   C26   A    
C93   C94   S    
C27   C31   A    
C70   O50   A    
C103  H75   S    
C46   O34   A    
C3    O27   A    
Cr11  O11   S    
Cr2   O46   S    
C101  C102  S    
Cr5   O5    S    
C82   H30   S    
C60   H19   S    
Cr1   O45   S    
Cr7   O27   S    
C57   C77   S    
C72   O48   A    
C8    H24   S    
C50   H46   S    
Cr5   O25   S    
C100  H64   S    
C38   C54   D    
C28   C32   A    
C16   C20   A    
C7    C91   S    
C107  H83   S    
C103  H74   S    
C112  H94   S    
C30   C34   A    
C2    C87   S    
C99   C100  S    
Cr10  O34   S    
Cr11  O15   S    
C97   H63   S    
C71   O47   A    
C93   H53   S    
C6    H22   S    
C33   H41   S    
C42   C50   D    
C41   C72   S    
C15   H39   S    
C44   H8    S    
C10   C25   A    
C3    O23   A    
C15   C24   A    
C100  H65   S    
C65   O37   A    
C99   H68   S    
C26   C30   A    
C43   C70   S    
C39   H11   S    
Cr2   O18   S    
C104  H77   S    
C4    O24   A    
C111  H93   S    
C76   O12   A    
Cr11  O39   S    
C101  H69   S    
C88   H28   S    
C47   O35   A    
C108  H85   S    
Cr8   O28   S    
C5    C81   D    
C11   C28   A    
C110  H91   S    
C105  H78   S    
C73   O9    A    
C66   O2    A    
C38   C74   S    
C96   H56   S    
C75   O7    A    
C59   H20   S    
Cr4   O48   S    
C37   C73   S    
C60   C80   S    
C58   H17   S    
Cr3   O43   S    
Cr4   O24   S    
Cr7   O51   S    
C77   O41   A    
Cr2   O42   S    
C83   H31   S    
C13   H37   S    
Cr6   O50   S    
C68   O40   A    
Cr1   O41   S    
Cr5   O49   S    
Cr8   O8    S    
C108  H86   S    
Cr12  O12   S    
C109  H88   S    
C110  H90   S    
C81   H29   S    
C109  H87   S    
C49   H45   S    
Cr6   O30   S    
C16   C23   A    
Cr9   O37   S    
C64   H16   S    
C13   C17   A    
C80   O44   A    
C79   O15   A    
C89   H1    S    
C20   H36   S    
C19   C20   A    
Cr9   O9    S    
C42   H6    S    
Cr12  O16   S    
C61   H13   S    
C6    C90   S    
Cr9   O13   S    
Cr2   O2    S    
Cr8   O52   S    
C94   H51   S    
C43   C51   D    
Cr4   O4    S    
C95   H58   S    
C36   H44   S    
C58   C61   D    
C49   C53   S    
C66   O38   A    
C31   C35   A    
Cr1   O1    S    
C103  H73   S    
Cr10  O38   S    
C29   O54   S    
C33   C34   A    
C13   C22   A    
C51   C55   S    
Cr3   O3    S    
C98   H61   S    
C30   O53   S    
C61   C62   S    
Cr8   O32   S    
C5    H21   S    
C62   H14   S    
C106  H81   S    
O56   C110  S    
C93   H52   S    
C47   C83   S    
Cr6   O18   S    
C48   C84   S    
Cr4   O44   S    
C100  H66   S    
C37   H9    S    
C95   C96   S    
Cr10  O14   S    
C63   H15   S    
Cr4   O20   S    
C102  C103  S    
Cr2   O22   S    
C56   C99   S    
C44   C69   S    
C111  H92   S    
C17   H33   S    
C2    O26   A    
C7    H23   S    
C102  H71   S    
C68   O4    A    
C80   O16   A    
C19   H35   S    
C5    C89   S    
O55   C107  S    
C84   H32   S    
C91   H3    S    
