data_mof_unit_57133.cif
_audit_creation_date              2012-12-10T17:43:35-0500
_audit_creation_method            fapswitch 2.2
_symmetry_space_group_name_H-M    P1
_symmetry_Int_Tables_number       1
_space_group_crystal_system       triclinic
_cell_length_a                    14.95705
_cell_length_b                    10.666919
_cell_length_c                    9.963826
_cell_angle_alpha                 93.422326
_cell_angle_beta                  88.621693
_cell_angle_gamma                 91.728914
_cell_volume                      1585.73311192

loop_
_atom_site_label
_atom_site_type_symbol
_atom_type_description
_atom_site_fract_x
_atom_site_fract_y
_atom_site_fract_z
_atom_type_partial_charge
C1    C     C_R   0.496880 0.259940 0.495476 0.907101
C2    C     C_R   0.906700 0.583805 0.586897 0.050031
C3    C     C_R   0.956047 0.324435 0.329622 -0.168276
C4    C     C_R   0.048561 0.324989 0.332786 -0.217939
C5    C     C_R   0.094055 0.411217 0.419354 0.145096
C6    C     C_R   0.047082 0.497685 0.505198 0.022194
C7    C     C_R   0.093428 0.584032 0.594257 0.016060
C8    C     C_R   0.045322 0.669621 0.679252 0.386032
C9    C     C_R   0.952361 0.668906 0.674866 -0.241770
C10   C     C_R   0.186213 0.412628 0.420732 -0.248595
C11   C     C_R   0.231727 0.498739 0.505910 -0.083876
C12   C     C_R   0.327199 0.500566 0.501769 0.886759
C13   C     C_R   0.186611 0.582579 0.594252 -0.184526
C14   C     C_R   0.353493 0.123564 0.630887 -0.223433
C15   C     C_R   0.305025 0.069962 0.734672 -0.201379
C16   C     C_R   0.337769 0.965841 0.792914 0.498055
C17   C     C_R   0.413002 0.904948 0.736064 0.030695
C18   C     C_R   0.451347 0.946047 0.612211 -0.010075
C19   C     C_R   0.430864 0.066448 0.576503 0.055908
C20   C     C_R   0.487397 0.126011 0.484207 -0.128372
C21   C     C_R   0.543535 0.056616 0.395429 0.395215
C22   C     C_R   0.550757 0.930883 0.411631 -0.228703
C23   C     C_R   0.500872 0.740430 0.505320 0.905766
C24   C     C_R   0.505554 0.874791 0.517774 -0.171051
C25   C     C_R   0.354450 0.379299 0.130801 0.397693
C26   C     C_R   0.274448 0.363214 0.061641 -0.169293
C27   C     C_R   0.277284 0.360343 0.922889 -0.213111
C28   C     C_R   0.357951 0.385704 0.857385 -0.127496
C29   C     C_R   0.429796 0.443530 0.926404 0.133625
C30   C     C_R   0.429315 0.441708 0.070027 0.119360
C31   C     C_R   0.567406 0.555060 0.072558 -0.067127
C32   C     C_R   0.567459 0.554795 0.929793 -0.106674
C33   C     C_R   0.672951 0.499553 0.498510 0.866233
C34   C     C_R   0.814246 0.583529 0.583190 -0.236573
C35   C     C_R   0.768866 0.498382 0.495679 -0.092699
C36   C     C_R   0.814807 0.410520 0.410974 0.002764
C37   C     C_R   0.907933 0.410464 0.413163 0.141520
C38   C     C_R   0.953881 0.497511 0.501591 0.021219
H1    H     H_    0.777156 0.649766 0.648251 0.149998
H2    H     H_    0.329594 0.208144 0.590610 0.151312
H3    H     H_    0.245603 0.114473 0.775962 0.182181
H4    H     H_    0.591233 0.875901 0.339442 0.190229
H5    H     H_    0.622407 0.600628 0.126707 0.143431
H6    H     H_    0.215396 0.323476 0.109948 0.169319
H7    H     H_    0.219828 0.325518 0.866491 0.169275
H8    H     H_    0.364548 0.353159 0.755434 0.204103
H9    H     H_    0.622507 0.600324 0.877576 0.145892
H10   H     H_    0.922677 0.256734 0.261093 0.190652
H11   H     H_    0.084558 0.258169 0.267247 0.168678
H12   H     H_    0.222594 0.345751 0.356754 0.182714
H13   H     H_    0.224906 0.647611 0.659646 0.203886
H14   H     H_    0.915714 0.735081 0.740360 0.185268
N1    N     N_R   0.499150 0.498800 0.142780 -0.109754
N2    N     N_R   0.499120 0.498720 0.857170 -0.125193
O1    O     O_R   0.500000 0.316780 0.614690 -0.636576
O2    O     O_R   0.499990 0.316750 0.385360 -0.513221
O3    O     O_R   0.367850 0.499980 0.614680 -0.658923
O4    O     O_R   0.367840 0.499960 0.385350 -0.598631
O5    O     O_R   0.500010 0.683250 0.614640 -0.652818
O6    O     O_R   0.500000 0.683220 0.385310 -0.602541
O7    O     O_R   0.632160 0.500040 0.614650 -0.615034
O8    O     O_R   0.632150 0.500020 0.385320 -0.630814
Zn1   Zn    Zn3+2 0.500010 0.500020 0.653130 0.936422
Zn2   Zn    Zn3+2 0.499990 0.499980 0.346870 1.020384
Cl1   Cl    Cl    0.288279 0.919437 0.944816 -0.491080
N3    N     N_3   0.461068 0.830631 0.823954 -0.390516
H15   H     H_    0.431403 0.740745 0.825183 0.241956
H16   H     H_    0.529198 0.828782 0.798157 0.211756
Cl2   Cl    Cl    0.367729 0.248350 0.224623 -0.568249
N4    N     N_3   0.767685 0.316089 0.329572 -0.431470
H17   H     H_    0.723063 0.268528 0.392281 0.227393
H18   H     H_    0.732493 0.359087 0.256474 0.245662
Cl3   Cl    Cl    0.098090 0.779980 0.792147 -0.567897
Cl4   Cl    Cl    0.600792 0.118934 0.256588 -0.588151

loop_
_geom_bond_atom_site_label_1
_geom_bond_atom_site_label_2
_ccdc_geom_bond_type
C8    C9    A    
N3    H16   S    
C19   C20   A    
C26   H6    S    
C7    C8    A    
C23   O5    A    
C28   H8    S    
C26   C27   A    
C29   C30   A    
C31   H5    S    
C18   C24   A    
C36   C37   A    
C1    O2    A    
C34   C35   A    
C5    C6    A    
N1    Zn2   S    
N2    Zn1   S    
C15   C16   A    
C3    H10   S    
C18   C19   A    
O7    Zn1   S    
O8    Zn2   S    
C13   H13   S    
C35   C36   A    
C16   C17   A    
O1    Zn1   S    
C23   C24   S    
C6    C38   A    
N4    H17   S    
C12   O4    A    
C2    C34   A    
N3    H15   S    
C21   C22   A    
C9    H14   S    
C32   N2    A    
C36   N4    S    
O3    Zn1   S    
O4    Zn2   S    
C23   O6    A    
C30   N1    A    
C34   H1    S    
C15   H3    S    
C33   O8    A    
C25   C26   A    
C21   Cl4   S    
C37   C38   A    
C2    C38   A    
C31   C32   A    
O2    Zn2   S    
C17   C18   A    
C17   N3    S    
C31   N1    A    
C12   O3    A    
C32   H9    S    
C22   C24   A    
C25   Cl2   S    
C3    C4    A    
C10   H12   S    
C25   C30   A    
C28   C29   A    
C1    C20   S    
C14   C19   A    
C4    C5    A    
C11   C12   S    
C6    C7    A    
O5    Zn1   S    
C4    H11   S    
O6    Zn2   S    
C1    O1    A    
C5    C10   A    
C11   C13   A    
C27   H7    S    
C22   H4    S    
C8    Cl3   S    
C33   C35   S    
C10   C11   A    
C14   H2    S    
C7    C13   A    
C20   C21   A    
C3    C37   A    
C33   O7    A    
C29   N2    A    
C27   C28   A    
C14   C15   A    
N4    H18   S    
C16   Cl1   S    
C2    C9    A    
