data_mof_unit_46415.cif
_audit_creation_date              2012-12-11T15:57:06-0500
_audit_creation_method            fapswitch 2.2
_symmetry_space_group_name_H-M    P1
_symmetry_Int_Tables_number       1
_space_group_crystal_system       triclinic
_cell_length_a                    17.494814
_cell_length_b                    24.263251
_cell_length_c                    15.011511
_cell_angle_alpha                 89.894822
_cell_angle_beta                  125.754886
_cell_angle_gamma                 90.039493
_cell_volume                      5171.10553054

loop_
_atom_site_label
_atom_site_type_symbol
_atom_type_description
_atom_site_fract_x
_atom_site_fract_y
_atom_site_fract_z
_atom_type_partial_charge
C1    C     C_R   0.308942 0.123617 0.907994 -0.142995
C2    C     C_R   0.308796 0.876655 0.907874 -0.141820
C3    C     C_R   0.808887 0.623533 0.907984 -0.143176
C4    C     C_R   0.808731 0.376751 0.907878 -0.142048
C5    C     C_R   0.649611 0.151927 0.092017 -0.106957
C6    C     C_R   0.650971 0.848518 0.092361 -0.104817
C7    C     C_R   0.149549 0.651945 0.091995 -0.106994
C8    C     C_R   0.150942 0.348513 0.092360 -0.104854
C9    C     C_R   0.558499 0.847615 0.909442 -0.158763
C10   C     C_R   0.556678 0.153003 0.909460 -0.161018
C11   C     C_R   0.058484 0.347613 0.909440 -0.158779
C12   C     C_R   0.056621 0.653005 0.909443 -0.161011
C13   C     C_R   0.551492 0.001065 0.728413 0.075608
C14   C     C_R   0.051452 0.501073 0.728373 0.075628
C15   C     C_R   0.806911 0.999473 0.364580 -0.224735
C16   C     C_R   0.307250 0.499444 0.364300 -0.225709
C17   C     C_R   0.617973 0.184208 0.000998 0.028176
C18   C     C_R   0.620530 0.816653 0.001307 0.023568
C19   C     C_R   0.117880 0.684221 0.000966 0.028400
C20   C     C_R   0.120494 0.316650 0.001308 0.023544
C21   C     C_3   0.027981 0.958902 0.578449 -0.305055
C22   C     C_3   0.026701 0.049269 0.554427 -0.328401
C23   C     C_3   0.528570 0.459230 0.578361 -0.303443
C24   C     C_3   0.527160 0.549444 0.552858 -0.329340
C25   C     C_3   0.964958 0.007499 0.562034 0.647845
C26   C     C_3   0.465604 0.507956 0.561417 0.647814
C27   C     C_3   0.907525 0.998999 0.439401 0.089558
C28   C     C_3   0.407904 0.498937 0.438896 0.089257
C29   C     C_3   0.970319 0.950590 0.453105 -0.215200
C30   C     C_3   0.969037 0.040192 0.429348 -0.196863
C31   C     C_3   0.470664 0.450385 0.453138 -0.215569
C32   C     C_3   0.469244 0.539834 0.427912 -0.195966
C33   C     C_3   0.033296 0.991838 0.444855 -0.102208
C34   C     C_3   0.533500 0.491339 0.444001 -0.102259
C35   C     C_R   0.401510 0.876375 0.092193 -0.125393
C36   C     C_R   0.401802 0.123359 0.092422 -0.125987
C37   C     C_R   0.901471 0.376443 0.092191 -0.125458
C38   C     C_R   0.901764 0.623315 0.092411 -0.126083
C39   C     C_3   0.089007 0.000506 0.568206 0.145523
C40   C     C_3   0.589448 0.500538 0.567243 0.145501
C41   C     C_3   0.251004 0.822519 0.101207 -0.512290
C42   C     C_3   0.259538 0.180787 0.106617 -0.507752
C43   C     C_3   0.751344 0.322427 0.101534 -0.512133
C44   C     C_3   0.759398 0.680712 0.106547 -0.507761
C45   C     C_3   0.699469 0.271439 0.103816 0.407968
C46   C     C_3   0.706397 0.731140 0.107622 0.396017
C47   C     C_3   0.199211 0.771515 0.103599 0.407765
C48   C     C_3   0.206469 0.231180 0.107666 0.396026
C49   C     C_3   0.802588 0.264918 0.003876 -0.378081
C50   C     C_3   0.800217 0.735390 0.995747 -0.375723
C51   C     C_3   0.302838 0.764822 0.004371 -0.377951
C52   C     C_3   0.300186 0.235463 0.995655 -0.375861
C53   C     C_3   0.151402 0.820179 0.895548 -0.424586
C54   C     C_3   0.150837 0.178073 0.901030 -0.410245
C55   C     C_3   0.651225 0.320393 0.895859 -0.423556
C56   C     C_3   0.650799 0.678060 0.900958 -0.410615
C57   C     C_3   0.254647 0.819367 0.000307 0.346142
C58   C     C_3   0.255995 0.181139 0.000820 0.337536
C59   C     C_3   0.754602 0.319451 0.000342 0.346023
C60   C     C_3   0.755939 0.681077 0.000803 0.337639
C61   C     C_3   0.663660 0.234956 0.000996 0.321293
C62   C     C_3   0.665986 0.765901 0.001470 0.317678
C63   C     C_3   0.163607 0.734937 0.000951 0.321444
C64   C     C_3   0.165984 0.265921 0.001478 0.317669
C65   C     C_3   0.748738 0.215565 0.002879 -0.530760
C66   C     C_3   0.747760 0.784993 0.996551 -0.528731
C67   C     C_3   0.248826 0.715500 0.003151 -0.530681
C68   C     C_3   0.247709 0.285046 0.996488 -0.528694
C69   C     C_3   0.597430 0.270375 0.896107 -0.356029
C70   C     C_3   0.597913 0.728951 0.899998 -0.347970
C71   C     C_3   0.097486 0.770277 0.895914 -0.356181
C72   C     C_3   0.097918 0.228950 0.900047 -0.347995
C73   C     C_3   0.571530 0.061481 0.608397 -0.549926
C74   C     C_3   0.649335 0.968943 0.666348 -0.608121
C75   C     C_3   0.071693 0.561481 0.608503 -0.549905
C76   C     C_3   0.149194 0.468865 0.666264 -0.607546
C77   C     C_R   0.549574 0.045929 0.303794 -0.075017
C78   C     C_R   0.545772 0.954542 0.303225 -0.089543
C79   C     C_R   0.049579 0.545924 0.303798 -0.075175
C80   C     C_R   0.045751 0.454538 0.303212 -0.089727
C81   C     C_3   0.567809 0.062449 0.503836 0.443430
C82   C     C_3   0.652951 0.970002 0.564576 0.426141
C83   C     C_3   0.067967 0.562442 0.503937 0.443549
C84   C     C_3   0.152793 0.469879 0.564489 0.426514
C85   C     C_3   0.470221 0.975764 0.536664 -0.397495
C86   C     C_3   0.970085 0.475882 0.536570 -0.397537
C87   C     C_3   0.561945 0.001734 0.637856 0.309061
C88   C     C_3   0.061901 0.501746 0.637822 0.308805
C89   C     C_3   0.564477 0.001482 0.465932 0.085985
C90   C     C_3   0.064439 0.501472 0.465910 0.085632
C91   C     C_3   0.472232 0.974994 0.436941 -0.377241
C92   C     C_3   0.972097 0.475099 0.436843 -0.377013
C93   C     C_R   0.239173 0.954168 0.699526 -0.156041
C94   C     C_R   0.239264 0.046342 0.700132 -0.158206
C95   C     C_R   0.739466 0.454191 0.699154 -0.155905
C96   C     C_R   0.739567 0.546339 0.699776 -0.158339
C97   C     C_R   0.312376 0.136444 0.000477 0.020211
C98   C     C_R   0.311869 0.863728 0.000130 0.019391
C99   C     C_R   0.812310 0.636363 0.000464 0.020487
C100  C     C_R   0.811796 0.363837 0.000146 0.019880
C101  C     C_R   0.559929 0.000605 0.364808 0.040298
C102  C     C_R   0.059912 0.500597 0.364800 0.040107
C103  C     C_R   0.188803 0.000425 0.643981 0.070803
C104  C     C_R   0.689262 0.500445 0.643276 0.070652
C105  C     C_R   0.523114 0.046595 0.757357 -0.150728
C106  C     C_R   0.523312 0.954444 0.755993 -0.151550
C107  C     C_R   0.023080 0.546602 0.757321 -0.150652
C108  C     C_R   0.023282 0.454447 0.755954 -0.151588
C109  C     C_R   0.757069 0.953898 0.303639 0.467639
C110  C     C_R   0.757911 0.045473 0.303586 0.452417
C111  C     C_R   0.257230 0.453878 0.303491 0.468038
C112  C     C_R   0.258125 0.545463 0.303438 0.452916
H1    H     H_    0.253296 0.132661 0.823626 0.090551
H2    H     H_    0.252993 0.868389 0.823338 0.090438
H3    H     H_    0.753173 0.632478 0.823582 0.090616
H4    H     H_    0.752861 0.368554 0.823319 0.090551
H5    H     H_    0.054733 0.925863 0.641259 0.121646
H6    H     H_    0.051215 0.089496 0.597530 0.124106
H7    H     H_    0.555453 0.426424 0.641641 0.121570
H8    H     H_    0.551624 0.589874 0.595171 0.124012
H9    H     H_    0.946810 0.910291 0.410250 0.155521
H10   H     H_    0.942997 0.073156 0.366499 0.148298
H11   H     H_    0.447173 0.409902 0.410985 0.155550
H12   H     H_    0.443007 0.572525 0.364504 0.148040
H13   H     H_    0.064883 0.985595 0.399502 0.112101
H14   H     H_    0.564893 0.484714 0.398524 0.112067
H15   H     H_    0.322721 0.823243 0.179408 0.118296
H16   H     H_    0.333234 0.183579 0.180616 0.132918
H17   H     H_    0.823170 0.322973 0.179579 0.118283
H18   H     H_    0.833076 0.683440 0.180599 0.132936
H19   H     H_    0.215170 0.861269 0.097457 0.190071
H20   H     H_    0.229358 0.141639 0.112232 0.189859
H21   H     H_    0.715778 0.361198 0.098271 0.189612
H22   H     H_    0.729110 0.641582 0.112051 0.189922
H23   H     H_    0.750965 0.247523 0.179603 0.019309
H24   H     H_    0.758164 0.756385 0.180794 0.035624
H25   H     H_    0.250706 0.747671 0.179498 0.019530
H26   H     H_    0.258211 0.256447 0.180811 0.035660
H27   H     H_    0.876369 0.263140 0.079221 0.172964
H28   H     H_    0.875643 0.738168 0.067079 0.173671
H29   H     H_    0.376478 0.763097 0.079995 0.172794
H30   H     H_    0.375630 0.238268 0.066931 0.173740
H31   H     H_    0.797050 0.189700 0.076807 0.172319
H32   H     H_    0.797741 0.811416 0.068594 0.171198
H33   H     H_    0.297001 0.689622 0.077108 0.172350
H34   H     H_    0.297690 0.311478 0.068513 0.171229
H35   H     H_    0.148392 0.817959 0.819729 0.148759
H36   H     H_    0.143003 0.177165 0.822145 0.150852
H37   H     H_    0.647913 0.318428 0.819827 0.148505
H38   H     H_    0.643024 0.677176 0.822107 0.150819
H39   H     H_    0.430835 0.868020 0.176982 0.085192
H40   H     H_    0.431286 0.130584 0.177528 0.106982
H41   H     H_    0.930795 0.368110 0.176983 0.085232
H42   H     H_    0.931239 0.630544 0.177513 0.107021
H43   H     H_    0.115974 0.858986 0.891871 0.179017
H44   H     H_    0.118140 0.139793 0.905536 0.161537
H45   H     H_    0.615903 0.359145 0.892721 0.178634
H46   H     H_    0.618040 0.639785 0.905374 0.161435
H47   H     H_    0.034942 0.784331 0.891729 0.194607
H48   H     H_    0.036929 0.215870 0.899969 0.190197
H49   H     H_    0.534892 0.284317 0.892042 0.194480
H50   H     H_    0.536897 0.715885 0.899879 0.190174
H51   H     H_    0.571395 0.246172 0.820663 0.136882
H52   H     H_    0.569650 0.751803 0.822366 0.136586
H53   H     H_    0.071457 0.745995 0.820560 0.136889
H54   H     H_    0.069614 0.251787 0.822390 0.136668
H55   H     H_    0.805801 0.262245 0.932044 0.171787
H56   H     H_    0.797900 0.736698 0.920065 0.174492
H57   H     H_    0.306466 0.762064 0.932847 0.171910
H58   H     H_    0.297792 0.236767 0.919922 0.174424
H59   H     H_    0.724566 0.189748 0.929506 0.188314
H60   H     H_    0.720449 0.810126 0.921331 0.195292
H61   H     H_    0.224770 0.689684 0.929812 0.188379
H62   H     H_    0.220348 0.310177 0.921252 0.195285
H63   H     H_    0.512483 0.087146 0.592952 0.187765
H64   H     H_    0.648306 0.927316 0.695576 0.178415
H65   H     H_    0.012742 0.587222 0.593117 0.187765
H66   H     H_    0.148082 0.427249 0.695471 0.178313
H67   H     H_    0.638353 0.080442 0.677616 0.130650
H68   H     H_    0.714115 0.988669 0.737421 0.157039
H69   H     H_    0.138583 0.580365 0.677762 0.130674
H70   H     H_    0.214030 0.488543 0.737346 0.156937
H71   H     H_    0.633469 0.082069 0.522390 -0.018763
H72   H     H_    0.714190 0.996768 0.589655 0.080884
H73   H     H_    0.133682 0.581990 0.522513 -0.018732
H74   H     H_    0.214140 0.496550 0.589595 0.080656
H75   H     H_    0.407716 0.999721 0.516792 0.175964
H76   H     H_    0.460408 0.932724 0.553720 0.144683
H77   H     H_    0.907667 0.499921 0.516745 0.176004
H78   H     H_    0.960107 0.432860 0.553534 0.144680
H79   H     H_    0.568514 0.088082 0.330763 0.113946
H80   H     H_    0.556249 0.912077 0.328716 0.125733
H81   H     H_    0.068552 0.588072 0.330780 0.113848
H82   H     H_    0.056223 0.412073 0.328688 0.125944
H83   H     H_    0.409975 0.997857 0.368492 0.207120
H84   H     H_    0.464104 0.932087 0.406955 0.131232
H85   H     H_    0.909923 0.498036 0.368442 0.207200
H86   H     H_    0.963813 0.432203 0.406748 0.131229
H87   H     H_    0.221229 0.911883 0.672377 0.096208
H88   H     H_    0.222070 0.088766 0.673480 0.098285
H89   H     H_    0.721600 0.411895 0.672042 0.096168
H90   H     H_    0.722511 0.588777 0.673167 0.098198
H91   H     H_    0.533037 0.089579 0.748802 0.097255
H92   H     H_    0.530939 0.911980 0.740961 0.093305
H93   H     H_    0.032988 0.589587 0.748760 0.097199
H94   H     H_    0.030888 0.411984 0.740892 0.093299
H95   H     H_    0.693228 0.164493 0.176860 0.157095
H96   H     H_    0.694570 0.836020 0.177337 0.158214
H97   H     H_    0.193153 0.664531 0.176826 0.157171
H98   H     H_    0.194518 0.336013 0.177334 0.158326
H99   H     H_    0.516067 0.834441 0.824823 0.088959
H100  H     H_    0.512912 0.166435 0.824945 0.091305
H101  H     H_    0.016064 0.334444 0.824819 0.088968
H102  H     H_    0.012817 0.666422 0.824921 0.091291
N1    N     N_R   0.392450 0.103580 0.942190 -0.036210
N2    N     N_R   0.392450 0.896420 0.942190 -0.037785
N3    N     N_R   0.892450 0.603580 0.942190 -0.036196
N4    N     N_R   0.892450 0.396420 0.942190 -0.037810
N5    N     N_R   0.450490 0.896000 0.057360 -0.034183
N6    N     N_R   0.450490 0.104000 0.057360 -0.036901
N7    N     N_R   0.950490 0.396000 0.057360 -0.034227
N8    N     N_R   0.950490 0.604000 0.057360 -0.036945
N9    N     N_R   0.525490 0.028390 0.207550 -0.056629
N10   N     N_R   0.525490 0.971610 0.207550 -0.054927
N11   N     N_R   0.025490 0.528390 0.207550 -0.056617
N12   N     N_R   0.025490 0.471610 0.207550 -0.054868
N13   N     N_R   0.317450 0.971190 0.792000 -0.037618
N14   N     N_R   0.317450 0.028810 0.792000 -0.037176
N15   N     N_R   0.817450 0.471190 0.792000 -0.037620
N16   N     N_R   0.817450 0.528810 0.792000 -0.037170
N17   N     N_R   0.473900 0.028390 0.792280 -0.040008
N18   N     N_R   0.473900 0.971610 0.792280 -0.039633
N19   N     N_R   0.973900 0.528390 0.792280 -0.039956
N20   N     N_R   0.973900 0.471610 0.792280 -0.039583
N21   N     N_R   0.682310 0.971180 0.208170 -0.103048
N22   N     N_R   0.682310 0.028820 0.208170 -0.102991
N23   N     N_R   0.182310 0.471180 0.208170 -0.103041
N24   N     N_R   0.182310 0.528820 0.208170 -0.103030
N25   N     N_R   0.606470 0.103570 0.057210 -0.038160
N26   N     N_R   0.606470 0.896430 0.057210 -0.039154
N27   N     N_R   0.106470 0.603570 0.057210 -0.038168
N28   N     N_R   0.106470 0.396430 0.057210 -0.039173
N29   N     N_R   0.549740 0.896000 0.943240 -0.039592
N30   N     N_R   0.549740 0.104000 0.943240 -0.040263
N31   N     N_R   0.049740 0.396000 0.943240 -0.039583
N32   N     N_R   0.049740 0.604000 0.943240 -0.040275
Ni1   Ni    Ni4+2 0.433780 0.065390 0.868430 0.206240
Ni2   Ni    Ni4+2 0.433780 0.934610 0.868430 0.204379
Ni3   Ni    Ni4+2 0.933780 0.565390 0.868430 0.206215
Ni4   Ni    Ni4+2 0.933780 0.434610 0.868430 0.204348
Ni5   Ni    Ni4+2 0.565800 0.934190 0.131570 0.250897
Ni6   Ni    Ni4+2 0.565800 0.065810 0.131570 0.241248
Ni7   Ni    Ni4+2 0.065800 0.434190 0.131570 0.250827
Ni8   Ni    Ni4+2 0.065800 0.565810 0.131570 0.241077
O1    O     O_3   0.123174 0.787742 0.105756 -0.769226
H103  H     H_    0.150555 0.801793 0.180817 0.309546
O2    O     O_3   0.133559 0.214359 0.115303 -0.766098
H104  H     H_    0.163864 0.202169 0.192247 0.312812
O3    O     O_3   0.623546 0.287686 0.106179 -0.769110
H105  H     H_    0.651037 0.301645 0.181329 0.309486
O4    O     O_3   0.633444 0.714362 0.115213 -0.766080
H106  H     H_    0.663716 0.702148 0.192136 0.312808
O5    O     O_3   0.486279 0.092298 0.420857 -0.658693
C113  C     C_3   0.500207 0.150179 0.435167 0.183684
H107  H     H_    0.507047 0.166530 0.370979 0.100865
H108  H     H_    0.564526 0.162620 0.516663 0.081534
C114  C     C_3   0.414798 0.176746 0.421956 -0.273779
H109  H     H_    0.349138 0.162894 0.344000 0.202217
H110  H     H_    0.411301 0.163423 0.490331 0.185891
C115  C     C_3   0.420307 0.239553 0.422252 -1.047391
H111  H     H_    0.483291 0.254265 0.501993 0.267919
H112  H     H_    0.356407 0.257490 0.410016 0.280768
H113  H     H_    0.424337 0.254060 0.354876 0.263284
O6    O     O_3   0.674527 0.919146 0.535762 -0.650684
C116  C     C_3   0.631145 0.871194 0.541520 0.230336
H114  H     H_    0.600043 0.847724 0.464182 0.094826
H115  H     H_    0.572082 0.879204 0.547607 0.086668
C117  C     C_3   0.705865 0.834401 0.636128 -0.263344
H116  H     H_    0.755154 0.819195 0.617694 0.202414
H117  H     H_    0.747619 0.858401 0.713553 0.197816
C118  C     C_3   0.661213 0.785182 0.653069 -1.077911
H118  H     H_    0.615377 0.799473 0.677200 0.264925
H119  H     H_    0.717303 0.758426 0.719392 0.272185
H120  H     H_    0.618714 0.760528 0.576552 0.272278
O7    O     O_3   0.986513 0.592367 0.421020 -0.658702
C119  C     C_3   0.000618 0.650236 0.435354 0.183573
H121  H     H_    0.007428 0.666540 0.371113 0.101016
H122  H     H_    0.065013 0.662633 0.516823 0.081438
C120  C     C_3   0.915332 0.676919 0.422262 -0.273650
H123  H     H_    0.849582 0.663030 0.344438 0.202301
H124  H     H_    0.911981 0.663725 0.490808 0.185740
C121  C     C_3   0.920891 0.739717 0.422272 -1.047411
H125  H     H_    0.984061 0.754476 0.501804 0.267907
H126  H     H_    0.857157 0.757735 0.410329 0.280773
H127  H     H_    0.924606 0.754090 0.354593 0.263279
O8    O     O_3   0.174141 0.418962 0.535601 -0.650675
C122  C     C_3   0.130491 0.371099 0.541211 0.230277
H128  H     H_    0.099225 0.347680 0.463789 0.094582
H129  H     H_    0.071503 0.379231 0.547374 0.086743
C123  C     C_3   0.205006 0.334164 0.635682 -0.262997
H130  H     H_    0.254160 0.318821 0.617147 0.202431
H131  H     H_    0.246946 0.358097 0.713176 0.197845
C124  C     C_3   0.160073 0.285068 0.652532 -1.078208
H132  H     H_    0.114355 0.299492 0.676742 0.264919
H133  H     H_    0.216009 0.258211 0.718772 0.272165
H134  H     H_    0.117395 0.260476 0.575953 0.272361
O9    O     O_3   0.766455 0.900845 0.341323 -0.781110
H135  H     H_    0.815295 0.900984 0.421762 0.327724
O10   O     O_3   0.772185 0.099131 0.339412 -0.792519
H136  H     H_    0.825732 0.099522 0.418209 0.325421
O11   O     O_3   0.266659 0.400836 0.341235 -0.781165
H137  H     H_    0.315522 0.400997 0.421666 0.327567
O12   O     O_3   0.272710 0.599143 0.339185 -0.792462
H138  H     H_    0.326555 0.599550 0.417842 0.325593
O13   O     O_3   0.922053 0.015979 0.616432 -0.677232
C125  C     C_3   0.991006 0.019551 0.731206 0.158210
H139  H     H_    0.976225 0.057188 0.760815 0.121600
H140  H     H_    0.064885 0.023665 0.756693 0.090327
C126  C     C_3   0.983468 0.969242 0.787200 -0.257020
H141  H     H_    0.912041 0.967929 0.768881 0.209504
H142  H     H_    0.993516 0.931059 0.754447 0.189184
C127  C     C_3   0.057243 0.971057 0.911340 -1.050090
H143  H     H_    0.129274 0.970194 0.931456 0.272061
H144  H     H_    0.048696 0.934653 0.949724 0.278487
H145  H     H_    0.048665 0.008995 0.946015 0.273448
O14   O     O_3   0.423218 0.516868 0.616303 -0.677133
C128  C     C_3   0.492705 0.521406 0.730833 0.158414
H146  H     H_    0.477269 0.559090 0.759666 0.121008
H147  H     H_    0.566215 0.526133 0.755384 0.090900
C129  C     C_3   0.487227 0.471340 0.788973 -0.257434
H148  H     H_    0.416510 0.469845 0.772585 0.208348
H149  H     H_    0.496873 0.433002 0.756249 0.189419
C130  C     C_3   0.562682 0.473819 0.912707 -1.048504
H150  H     H_    0.634035 0.472892 0.930903 0.272672
H151  H     H_    0.555402 0.437713 0.952780 0.277345
H152  H     H_    0.554822 0.512026 0.947340 0.273130

loop_
_geom_bond_atom_site_label_1
_geom_bond_atom_site_label_2
_ccdc_geom_bond_type
C127  H144  S    
N31   Ni4   S    
N1    Ni1   S    
C55   C59   S    
C15   C109  A    
C77   C101  A    
N9    N10   A    
N2    N5    A    
C12   H102  S    
C42   C58   S    
C124  H133  S    
N14   Ni1   S    
C130  H150  S    
C118  H120  S    
C2    N2    A    
C111  N23   A    
N3    Ni3   S    
C46   C62   S    
C82   O6    S    
C54   H44   S    
C26   O14   S    
C86   C88   S    
C127  H145  S    
C44   H18   S    
C29   C33   S    
C62   C70   S    
O6    C116  S    
C43   H21   S    
C21   H5    S    
N10   Ni5   S    
C17   C61   S    
N13   Ni2   S    
C77   N9    A    
C30   H10   S    
C19   C63   S    
C79   C102  A    
O14   C128  S    
C51   C57   S    
C42   H16   S    
C85   H76   S    
C107  N19   A    
C78   C101  A    
N4    Ni4   S    
N20   Ni4   S    
C1    H1    S    
C70   H50   S    
C73   C81   S    
C44   C46   S    
N7    Ni7   S    
N8    Ni8   S    
C11   C20   A    
C24   H8    S    
N28   N31   A    
C86   H78   S    
C129  H148  S    
C11   N31   A    
C28   C32   S    
C108  H94   S    
C52   H58   S    
C41   H19   S    
C21   C29   S    
C125  H139  S    
C32   C34   S    
C73   H63   S    
C24   C32   S    
C74   H64   S    
N15   N16   A    
C5    H95   S    
C91   H83   S    
C90   C92   S    
C124  H132  S    
C7    N27   A    
C33   H13   S    
C52   C58   S    
C10   H100  S    
C14   C107  A    
N24   Ni8   S    
C112  N24   A    
N6    Ni6   S    
C115  H112  S    
C53   C71   S    
C68   H34   S    
C123  H130  S    
C130  H152  S    
C112  O12   S    
C22   H6    S    
C119  C120  S    
C89   C101  S    
C72   H54   S    
N17   Ni1   S    
C13   C106  A    
C35   N5    A    
C96   H90   S    
N2    Ni2   S    
N30   Ni1   S    
C48   H26   S    
C121  H126  S    
C14   C88   S    
N1    N6    A    
C119  H122  S    
C2    H2    S    
C50   H28   S    
C75   H65   S    
C107  H93   S    
C105  H91   S    
C37   N7    A    
C61   C65   S    
C66   H32   S    
N26   Ni5   S    
N29   Ni2   S    
C16   C111  A    
C78   N10   A    
N9    Ni6   S    
C126  H142  S    
C27   C29   S    
C41   H15   S    
C93   C103  A    
C82   C89   S    
C125  C126  S    
C64   C68   S    
C24   C26   S    
C23   H7    S    
O4    H106  S    
C114  C115  S    
C82   H72   S    
O2    H104  S    
C90   C102  S    
C113  H107  S    
C22   C25   S    
C67   H33   S    
C74   C87   S    
C89   C91   S    
N19   N20   A    
C6    H96   S    
C123  C124  S    
C43   C59   S    
O3    H105  S    
N23   N24   A    
C59   C100  S    
C122  H129  S    
C84   C90   S    
N22   Ni6   S    
C8    H98   S    
C55   H37   S    
C51   H29   S    
C44   H22   S    
C108  N20   A    
C45   H23   S    
C62   C66   S    
C43   H17   S    
C116  C117  S    
C128  H147  S    
C36   H40   S    
C51   C67   S    
C117  C118  S    
C80   C102  A    
N18   Ni2   S    
C93   N13   A    
C13   C87   S    
C120  H123  S    
C41   C47   S    
C31   C34   S    
C42   C48   S    
C44   C60   S    
C43   C45   S    
C36   C97   A    
C109  N21   A    
C53   H43   S    
C4    N4    A    
C49   H27   S    
C50   H56   S    
C56   H38   S    
C35   C98   A    
N4    N7    A    
C54   H36   S    
C21   C25   S    
C22   C30   S    
N25   Ni6   S    
C114  H109  S    
C81   O5    S    
C118  H119  S    
C109  O9    S    
C79   H81   S    
C50   C60   S    
C55   C69   S    
C113  C114  S    
C12   N32   A    
C22   C39   S    
C14   C108  A    
C3    C99   A    
C9    C18   A    
C71   H53   S    
N28   Ni7   S    
C38   H42   S    
C117  H116  S    
C80   N12   A    
C37   C100  A    
O1    H103  S    
N32   Ni3   S    
C9    N29   A    
C85   H75   S    
C84   H74   S    
C116  H114  S    
C15   C110  A    
C76   C84   S    
N19   Ni3   S    
O5    C113  S    
C46   O4    S    
C129  H149  S    
N23   Ni7   S    
C93   H87   S    
C76   H66   S    
C47   C63   S    
C65   H31   S    
C48   C64   S    
C5    C17   A    
C23   C40   S    
C120  C121  S    
C125  H140  S    
C23   C26   S    
C73   C87   S    
N12   Ni7   S    
C123  H131  S    
C129  C130  S    
C29   H9    S    
N21   N22   A    
N16   Ni3   S    
C83   O7    S    
C94   N14   A    
C81   C89   S    
C111  O11   S    
C127  H143  S    
O13   C125  S    
N5    Ni5   S    
C115  H113  S    
C35   H39   S    
C74   C82   S    
C7    H97   S    
C110  N22   A    
C124  H134  S    
C130  H151  S    
C48   O2    S    
O9    H135  S    
C77   H79   S    
C37   H41   S    
C78   H80   S    
C13   C105  A    
C53   C57   S    
N26   N29   A    
N27   N32   A    
C47   O1    S    
O7    C119  S    
C51   H57   S    
C34   H14   S    
C10   N30   A    
C8    C20   A    
C11   H101  S    
C94   C103  A    
C95   H89   S    
C71   H47   S    
C16   C112  A    
N3    N8    A    
C5    N25   A    
C4    H4    S    
C28   C31   S    
C95   N15   A    
C38   C99   A    
C49   C59   S    
C39   C103  S    
C84   O8    S    
C38   N8    A    
C41   C57   S    
C128  H146  S    
C3    H3    S    
C91   H84   S    
C114  H110  S    
C75   C83   S    
O12   H138  S    
C67   H61   S    
C57   C98   S    
C12   C19   A    
C45   C61   S    
C94   H88   S    
C106  H92   S    
C126  H141  S    
C56   C60   S    
C55   H45   S    
C113  H108  S    
C115  H111  S    
C42   H20   S    
C23   C31   S    
C16   C28   S    
O11   H137  S    
C122  H128  S    
C32   H12   S    
N21   Ni5   S    
C60   C99   S    
C36   N6    A    
C85   C91   S    
O10   H136  S    
C33   C39   S    
C49   C65   S    
C65   H59   S    
C34   C40   S    
C105  N17   A    
C66   H60   S    
C121  H125  S    
C116  H115  S    
C69   H49   S    
C49   H55   S    
C119  H121  S    
C10   C17   A    
C53   H35   S    
C7    C19   A    
C56   H46   S    
C24   C40   S    
C15   C27   S    
N13   N14   A    
N11   Ni8   S    
C1    N1    A    
N25   N30   A    
C96   N16   A    
C76   C88   S    
N15   Ni4   S    
C52   C68   S    
C126  C127  S    
C27   C30   S    
C58   C97   S    
C76   H70   S    
C45   O3    S    
C85   C87   S    
C6    C18   A    
C63   C67   S    
C92   H86   S    
C1    C97   A    
C68   H62   S    
C25   O13   S    
C118  H118  S    
C6    N26   A    
C52   H30   S    
C110  O10   S    
C20   C64   S    
C40   C104  S    
C21   C39   S    
C8    N28   A    
C3    N3    A    
C47   H25   S    
N11   N12   A    
C74   H68   S    
C50   C66   S    
C56   C70   S    
C4    C100  A    
C122  C123  S    
C117  H117  S    
C81   H71   S    
C92   H85   S    
C75   H69   S    
C95   C104  A    
C54   C58   S    
C61   C69   S    
C83   C90   S    
O8    C122  S    
C86   H77   S    
C30   C33   S    
C121  H127  S    
C69   H51   S    
C63   C71   S    
C70   H52   S    
C128  C129  S    
C25   C27   S    
C80   H82   S    
C26   C28   S    
C72   H48   S    
C96   C104  A    
C31   H11   S    
C86   C92   S    
C9    H99   S    
C120  H124  S    
C106  N18   A    
C64   C72   S    
C46   H24   S    
C73   H67   S    
C75   C88   S    
C54   C72   S    
C2    C98   A    
N17   N18   A    
C83   H73   S    
C18   C62   S    
N27   Ni8   S    
C79   N11   A    
