data_mof_unit_15312.cif
_audit_creation_date              2012-12-11T15:18:33-0500
_audit_creation_method            fapswitch 2.2
_symmetry_space_group_name_H-M    P1
_symmetry_Int_Tables_number       1
_space_group_crystal_system       triclinic
_cell_length_a                    6.941818
_cell_length_b                    19.990455
_cell_length_c                    23.77314
_cell_angle_alpha                 93.249618
_cell_angle_beta                  91.060427
_cell_angle_gamma                 87.452865
_cell_volume                      3290.01947017

loop_
_atom_site_label
_atom_site_type_symbol
_atom_type_description
_atom_site_fract_x
_atom_site_fract_y
_atom_site_fract_z
_atom_type_partial_charge
O1    O     O_R   0.620100 0.812200 0.810870 -0.525313
O2    O     O_R   0.379900 0.187800 0.189130 -0.509844
O3    O     O_R   0.296960 0.671650 0.794750 -0.550365
O4    O     O_R   0.703040 0.328350 0.205250 -0.550678
O5    O     O_R   0.120160 0.687800 0.689130 -0.534202
O6    O     O_R   0.879840 0.312200 0.310870 -0.543583
C1    C     C_R   0.469302 0.647626 0.805543 0.758884
C2    C     C_R   0.530530 0.352830 0.195122 0.715407
O7    O     O_R   0.290810 0.810670 0.817290 -0.531831
O8    O     O_R   0.709190 0.189330 0.182710 -0.533891
O9    O     O_R   0.113980 0.827820 0.711840 -0.519178
O10   O     O_R   0.886020 0.172180 0.288160 -0.536427
C3    C     C_R   0.458078 0.831495 0.834314 0.815283
C4    C     C_R   0.541466 0.168261 0.165849 0.741770
O11   O     O_R   0.626290 0.672180 0.788160 -0.525806
O12   O     O_R   0.373710 0.327820 0.211840 -0.520624
O13   O     O_3   0.451520 0.755460 0.715370 -0.368682
O14   O     O_3   0.548480 0.244540 0.284630 -0.375433
V1    V     V_3+5 0.179200 0.748980 0.756420 1.562122
V2    V     V_3+5 0.820800 0.251020 0.243580 1.573257
O15   O     O_R   0.783880 0.828350 0.705250 -0.530825
O16   O     O_R   0.216120 0.171650 0.294750 -0.522520
C5    C     C_R   0.947057 0.854435 0.696231 0.793066
C6    C     C_R   0.052604 0.145601 0.303670 0.790140
O17   O     O_R   0.790030 0.689320 0.682700 -0.523543
O18   O     O_R   0.209970 0.310680 0.317300 -0.525922
C7    C     C_R   0.960897 0.669098 0.665088 0.770339
C8    C     C_R   0.039901 0.332428 0.333693 0.768661
V3    V     V_3+5 0.678400 0.751010 0.743570 1.584076
V4    V     V_3+5 0.321600 0.248990 0.256430 1.614881
O19   O     O_3   0.955950 0.744540 0.784620 -0.378557
O20   O     O_3   0.044050 0.255460 0.215380 -0.358351
C9    C     C_R   0.002860 0.449704 0.374220 -0.164824
C10   C     C_R   0.932767 0.553867 0.621567 -0.161787
C11   C     C_R   0.026716 0.381221 0.383299 -0.128778
C12   C     C_R   0.974835 0.620707 0.614911 -0.131140
C13   C     C_R   0.041087 0.360792 0.439122 -0.045556
C14   C     C_R   0.038827 0.638368 0.561695 -0.054794
C15   C     C_R   0.992708 0.408007 0.484650 -0.001858
C16   C     C_R   0.007334 0.593915 0.513416 0.006681
C17   C     C_R   0.991765 0.477455 0.475324 0.051522
C18   C     C_R   0.981778 0.525309 0.521685 0.053235
C19   C     C_R   0.001013 0.498802 0.419646 0.028114
C20   C     C_R   0.949669 0.504620 0.576566 0.022370
C21   C     C_R   0.942647 0.387806 0.538749 -0.088377
C22   C     C_R   0.001015 0.616044 0.457491 -0.075782
C23   C     C_R   0.923637 0.435961 0.584685 -0.102277
C24   C     C_R   0.996956 0.568512 0.410664 -0.110569
C25   C     C_R   0.933954 0.917524 0.664820 -0.114364
C26   C     C_R   0.064616 0.081747 0.333807 -0.154803
C27   C     C_R   0.790464 0.029120 0.652634 -0.155077
C28   C     C_R   0.215504 0.971585 0.346737 -0.127843
C29   C     C_R   0.831546 0.975615 0.686912 -0.020148
C30   C     C_R   0.177430 0.025324 0.312437 -0.087443
C31   C     C_R   0.998162 0.916893 0.608835 -0.208053
C32   C     C_R   0.984824 0.079956 0.387909 -0.204260
C33   C     C_R   0.957721 0.971390 0.573238 0.094199
C34   C     C_R   0.024824 0.025254 0.423430 0.100493
C35   C     C_R   0.846816 0.027540 0.595955 0.043959
C36   C     C_R   0.142513 0.970241 0.401486 0.044776
C37   C     C_R   0.017915 0.970841 0.515421 0.053747
C38   C     C_R   0.959430 0.024774 0.480707 0.056830
C39   C     C_R   0.838363 0.076859 0.504484 -0.209868
C40   C     C_R   0.135034 0.917880 0.491351 -0.214144
C41   C     C_R   0.785841 0.079660 0.560991 -0.023750
C42   C     C_R   0.192719 0.915894 0.435346 -0.058288
C43   C     C_R   0.486965 0.584200 0.835024 -0.131330
C44   C     C_R   0.511449 0.415854 0.165216 -0.117282
C45   C     C_R   0.544796 0.463032 0.833815 -0.041379
C46   C     C_R   0.485085 0.537862 0.165459 -0.080675
C47   C     C_R   0.511334 0.522171 0.804446 -0.087094
C48   C     C_R   0.496009 0.478376 0.195334 -0.098096
C49   C     C_R   0.479750 0.586297 0.893971 -0.215767
C50   C     C_R   0.523506 0.413048 0.106444 -0.167730
C51   C     C_R   0.488465 0.527016 0.924428 0.092596
C52   C     C_R   0.495340 0.471135 0.074986 0.089065
C53   C     C_R   0.519111 0.464270 0.893524 0.004309
C54   C     C_R   0.460946 0.533749 0.105445 0.002008
C55   C     C_R   0.471388 0.528714 0.984853 0.045445
C56   C     C_R   0.499129 0.468720 0.014311 0.050605
C57   C     C_R   0.521082 0.407707 0.982111 -0.194906
C58   C     C_R   0.414190 0.587889 0.016333 -0.195585
C59   C     C_R   0.522319 0.404557 0.923378 -0.046756
C60   C     C_R   0.399532 0.590183 0.074978 -0.017948
C61   C     C_R   0.651943 0.059407 0.115200 -0.027052
C62   C     C_R   0.341674 0.937200 0.888822 -0.030822
C63   C     C_R   0.532422 0.118526 0.116516 -0.157279
C64   C     C_R   0.466606 0.879409 0.884668 -0.200478
C65   C     C_R   0.398054 0.128658 0.072206 -0.140995
C66   C     C_R   0.603789 0.868521 0.928382 -0.063505
C67   C     C_R   0.403988 0.085070 0.022681 0.013749
C68   C     C_R   0.600853 0.912058 0.978214 0.035852
C69   C     C_R   0.511064 0.022728 0.023819 0.082434
C70   C     C_R   0.497957 0.974945 0.977331 0.054245
C71   C     C_R   0.629147 0.007937 0.071538 -0.004254
C72   C     C_R   0.377470 0.989289 0.930375 -0.023918
C73   C     C_R   0.310138 0.103000 0.971543 -0.067825
C74   C     C_R   0.692671 0.893590 0.029256 -0.078309
C75   C     C_R   0.297296 0.055446 0.925646 -0.085856
C76   C     C_R   0.713559 0.941531 0.074670 -0.216018
H1    H     H_    0.993840 0.463864 0.331031 0.168311
H2    H     H_    0.898066 0.540184 0.663298 0.172928
C77   C     C_2   0.506836 0.336917 0.895300 0.862959
O21   O     O_2   0.627124 0.292433 0.905354 -0.501009
O22   O     O_R   0.352675 0.323943 0.858185 -0.631332
H3    H     H_    0.356704 0.275849 0.842078 0.335618
C78   C     C_2   0.293438 0.649458 0.101767 0.795553
O23   O     O_2   0.169654 0.641857 0.136519 -0.535129
O24   O     O_R   0.331240 0.713779 0.086113 -0.610192
H4    H     H_    0.255252 0.750124 0.108728 0.348080
H5    H     H_    0.554354 0.364147 0.086818 0.109858
H6    H     H_    0.469053 0.635498 0.914954 0.149486
C79   C     C_2   0.500713 0.480682 0.257944 0.809352
O25   O     O_2   0.382092 0.450827 0.283116 -0.552257
O26   O     O_R   0.642343 0.515740 0.288005 -0.643881
H7    H     H_    0.628808 0.513567 0.330249 0.312162
C80   C     C_2   0.500718 0.519400 0.741754 0.761354
O27   O     O_2   0.594217 0.557005 0.715422 -0.584908
O28   O     O_R   0.376888 0.475595 0.712996 -0.587650
H8    H     H_    0.379097 0.479301 0.670645 0.337166
C81   C     C_2   0.642800 0.404147 0.803747 0.782335
O29   O     O_2   0.565723 0.375447 0.763135 -0.469460
O30   O     O_R   0.822603 0.380467 0.823623 -0.650403
H9    H     H_    0.872681 0.338627 0.801511 0.335268
C82   C     C_2   0.522188 0.603360 0.195874 0.874122
O31   O     O_2   0.436002 0.620948 0.238960 -0.501059
O32   O     O_R   0.655707 0.645226 0.174369 -0.633421
H10   H     H_    0.668438 0.688510 0.198238 0.343376
H11   H     H_    0.525307 0.360221 0.001351 0.160873
H12   H     H_    0.364091 0.632224 0.995721 0.162630
C83   C     C_2   0.795875 0.052166 0.161048 0.794110
O33   O     O_2   0.967435 0.052795 0.150739 -0.524239
O34   O     O_R   0.733786 0.044336 0.215753 -0.646989
H13   H     H_    0.844322 0.035378 0.242899 0.294345
C84   C     C_2   0.159423 0.940078 0.855384 0.816518
O35   O     O_2   0.161143 0.935996 0.803898 -0.557417
O36   O     O_R   0.985677 0.950614 0.883961 -0.638825
H14   H     H_    0.868997 0.949123 0.858033 0.311643
C85   C     C_2   0.242946 0.182328 0.079733 0.866022
O37   O     O_2   0.074548 0.167086 0.079448 -0.500252
O38   O     O_R   0.286198 0.249952 0.086487 -0.643226
H15   H     H_    0.428988 0.256906 0.083069 0.237188
C86   C     C_2   0.750987 0.812200 0.921353 0.795232
O39   O     O_2   0.922347 0.823091 0.927220 -0.535934
O40   O     O_R   0.692957 0.746756 0.909347 -0.669948
H16   H     H_    0.805990 0.712947 0.906004 0.290512
C87   C     C_2   0.253270 0.174136 0.962188 0.805913
O41   O     O_2   0.376352 0.216032 0.964074 -0.543786
O42   O     O_R   0.059584 0.193310 0.953069 -0.593240
H17   H     H_    0.039882 0.243161 0.947901 0.342496
C88   C     C_2   0.737315 0.821593 0.039370 0.827343
O43   O     O_2   0.610153 0.781344 0.033190 -0.512975
O44   O     O_R   0.923763 0.799836 0.054901 -0.637226
H18   H     H_    0.934488 0.749734 0.059708 0.324545
C89   C     C_2   0.227034 0.078214 0.869933 0.818693
O45   O     O_2   0.064092 0.103112 0.864697 -0.495677
O46   O     O_R   0.347010 0.069418 0.823289 -0.651312
H19   H     H_    0.282989 0.085817 0.787638 0.331424
C90   C     C_2   0.804540 0.917349 0.127418 0.882784
O47   O     O_2   0.703050 0.903710 0.166167 -0.503482
O48   O     O_R   0.004743 0.908265 0.132715 -0.600482
H20   H     H_    0.074479 0.921560 0.098235 0.300126
C91   C     C_2   0.136611 0.294550 0.450132 0.763638
O49   O     O_2   0.258146 0.290704 0.487878 -0.524740
O50   O     O_R   0.091491 0.237123 0.417319 -0.685402
H21   H     H_    0.171772 0.196244 0.428491 0.292855
C92   C     C_2   0.176243 0.693254 0.558464 0.765942
O51   O     O_2   0.310958 0.686211 0.525853 -0.519302
O52   O     O_R   0.159516 0.751088 0.593853 -0.678699
H22   H     H_    0.274053 0.780395 0.590886 0.288930
C93   C     C_2   0.885670 0.317899 0.545487 0.872010
O53   O     O_2   0.953508 0.285745 0.583970 -0.497384
O54   O     O_R   0.756105 0.288858 0.506620 -0.644436
H23   H     H_    0.734835 0.240292 0.513419 0.312451
C94   C     C_2   0.980514 0.689092 0.447969 0.871574
O55   O     O_2   0.080983 0.713482 0.413476 -0.512409
O56   O     O_R   0.847418 0.729904 0.479090 -0.637379
H24   H     H_    0.848952 0.778669 0.469528 0.323221
C95   C     C_2   0.873371 0.414291 0.641014 0.858558
O57   O     O_2   0.718599 0.389264 0.647842 -0.499461
O58   O     O_R   0.004609 0.422071 0.685867 -0.625832
H25   H     H_    0.955323 0.405316 0.722046 0.330390
C96   C     C_2   0.982259 0.592328 0.352508 0.874274
O59   O     O_2   0.847060 0.629891 0.339307 -0.505352
O60   O     O_R   0.123630 0.572484 0.313221 -0.620504
H26   H     H_    0.093478 0.590318 0.274819 0.349702
C97   C     C_2   0.659214 0.137524 0.581055 0.770679
O61   O     O_2   0.707192 0.173308 0.621889 -0.496765
O62   O     O_R   0.487975 0.152472 0.551558 -0.654903
H27   H     H_    0.414542 0.193414 0.568672 0.352274
C98   C     C_2   0.307111 0.855245 0.414026 0.829569
O63   O     O_2   0.438277 0.831888 0.442991 -0.528602
O64   O     O_R   0.260147 0.823245 0.362045 -0.617935
H28   H     H_    0.348730 0.782690 0.352361 0.359505
H29   H     H_    0.900487 0.123936 0.402027 0.140111
H30   H     H_    0.069021 0.871383 0.593251 0.136763
C99   C     C_2   0.255274 0.018309 0.254032 0.825024
O65   O     O_2   0.269124 0.066877 0.225865 -0.535430
O66   O     O_R   0.311374 0.954783 0.230636 -0.608573
H31   H     H_    0.355496 0.956154 0.190318 0.353892
C100  C     C_2   0.761195 0.983598 0.745474 0.777095
O67   O     O_2   0.680875 0.938281 0.766526 -0.568175
O68   O     O_R   0.778442 0.045221 0.775663 -0.615858
H32   H     H_    0.723515 0.045545 0.814875 0.349027
H33   H     H_    0.704665 0.071142 0.670606 0.183794
H34   H     H_    0.312114 0.931551 0.330688 0.189351
H35   H     H_    0.782129 0.117172 0.479983 0.135847
H36   H     H_    0.184449 0.876134 0.515203 0.152144

loop_
_geom_bond_atom_site_label_1
_geom_bond_atom_site_label_2
_ccdc_geom_bond_type
C34   C38   A    
V4    O20   S    
O68   H32   S    
C41   C97   S    
C69   C70   A    
C89   O46   S    
C73   C87   S    
C17   C18   A    
C45   C53   A    
C91   O49   D    
O4    C2    A    
V1    O19   S    
C39   C41   A    
O48   H20   S    
C68   C74   A    
O30   H9    S    
C92   O52   S    
O50   H21   S    
O58   H25   S    
C16   C22   A    
C93   O54   S    
O9    V1    S    
C10   H2    S    
C30   C99   S    
C50   C52   A    
C28   H34   S    
C11   C13   A    
C52   C54   A    
C4    C63   S    
O3    C1    A    
C96   O60   S    
O40   H16   S    
C9    C11   A    
C65   C67   A    
C62   C64   A    
C5    C25   S    
C43   C47   A    
C46   C54   A    
C37   C38   A    
C53   C59   A    
C44   C50   A    
C86   O39   D    
C72   C75   A    
C60   C78   S    
O13   V3    S    
C99   O66   S    
O52   H22   S    
C33   C37   A    
C45   C47   A    
O7    C3    A    
C23   C95   S    
C28   C36   A    
C62   C72   A    
C73   C75   A    
O5    C7    A    
C57   H11   S    
O7    V1    S    
O46   H19   S    
O6    C8    A    
C87   O41   D    
C8    C11   S    
O8    V2    S    
C65   C85   S    
C75   C89   S    
C78   O23   D    
C90   O48   S    
O3    V1    S    
O14   V4    S    
C58   H12   S    
C19   C24   A    
C17   C19   A    
O14   V2    S    
C66   C86   S    
C20   C23   A    
O36   H14   S    
C13   C91   S    
C85   O38   S    
C16   C18   A    
C31   H30   S    
C88   O43   D    
C36   C42   A    
O66   H31   S    
C2    O12   A    
C39   H35   S    
C95   O58   S    
O17   V3    S    
C100  O68   S    
O62   H27   S    
O38   H15   S    
C18   C20   A    
C21   C93   S    
O1    V3    S    
C57   C59   A    
C28   C30   A    
O11   V3    S    
C34   C36   A    
C78   O24   S    
C74   C88   S    
C21   C23   A    
O15   C5    A    
C6    C26   S    
C14   C92   S    
C13   C15   A    
C22   C24   A    
C89   O45   D    
C97   O62   S    
C47   C80   S    
C61   C63   A    
C98   O63   D    
C9    C19   A    
C84   O35   D    
C10   C20   A    
C94   O56   S    
O8    C4    A    
C92   O51   D    
C71   C76   A    
C1    O11   A    
C25   C31   A    
O15   V3    S    
C48   C79   S    
C26   C32   A    
C55   C56   A    
C27   C29   A    
C40   C42   A    
C37   C40   A    
C96   O59   D    
C98   O64   S    
C38   C39   A    
C67   C69   A    
C32   H29   S    
C40   H36   S    
C66   C68   A    
C90   O47   D    
C45   C81   S    
C44   C48   A    
C42   C98   S    
O10   V2    S    
C68   C70   A    
C77   O22   S    
C26   C30   A    
C67   C73   A    
O28   H8    S    
C70   C72   A    
C51   C53   A    
C93   O53   D    
C81   O29   D    
C59   C77   S    
C43   C49   A    
C46   C82   S    
C64   C66   A    
O56   H24   S    
C58   C60   A    
C31   C33   A    
O34   H13   S    
C84   O36   S    
O16   C6    A    
O1    C3    A    
C49   C51   A    
C83   O33   D    
C50   H5    S    
C49   H6    S    
C79   O25   D    
V2    O20   S    
C86   O40   S    
O16   V4    S    
C87   O42   S    
C52   C56   A    
C56   C57   A    
C83   O34   S    
C55   C58   A    
C85   O37   D    
C27   H33   S    
C2    C44   S    
O5    V1    S    
C7    C12   S    
O17   C7    A    
O6    V2    S    
O22   H3    S    
O10   C6    A    
O18   C8    A    
C24   C96   S    
C15   C21   A    
O2    V4    S    
C9    H1    S    
C80   O28   S    
C97   O61   D    
V3    O19   S    
C94   O55   D    
C80   O27   D    
C35   C41   A    
C12   C14   A    
C14   C16   A    
C61   C71   A    
C76   C90   S    
O60   H26   S    
C82   O31   D    
C51   C55   A    
C25   C29   A    
C3    C64   S    
O9    C5    A    
O13   V1    S    
C32   C34   A    
C10   C12   A    
C88   O44   S    
C99   O65   D    
O2    C4    A    
C74   C76   A    
C29   C100  S    
C81   O30   S    
C33   C35   A    
C1    C43   S    
C95   O57   D    
O4    V2    S    
C54   C60   A    
C62   C84   S    
C27   C35   A    
C100  O67   D    
C15   C17   A    
C69   C71   A    
O64   H28   S    
O24   H4    S    
C77   O21   D    
C82   O32   S    
C63   C65   A    
C22   C94   S    
C91   O50   S    
C46   C48   A    
O26   H7    S    
O44   H18   S    
O42   H17   S    
O54   H23   S    
O12   V4    S    
C61   C83   S    
O32   H10   S    
C79   O26   S    
O18   V4    S    
