data_mof_unit_65890.cif
_audit_creation_date              2012-10-26T19:49:34-0400
_audit_creation_method            fapswitch 2.2
_symmetry_space_group_name_H-M    P1
_symmetry_Int_Tables_number       1
_space_group_crystal_system       triclinic
_cell_length_a                    16.170374
_cell_length_b                    17.298023
_cell_length_c                    27.610015
_cell_angle_alpha                 90.460955
_cell_angle_beta                  93.126541
_cell_angle_gamma                 96.233577
_cell_volume                      7665.10075818

loop_
_atom_site_label
_atom_site_type_symbol
_atom_type_description
_atom_site_fract_x
_atom_site_fract_y
_atom_site_fract_z
_atom_type_partial_charge
Br1   Br    Br    0.664022 0.759024 0.554022 -0.331264
Br2   Br    Br    0.758824 0.587637 0.030710 -0.364646
Br3   Br    Br    0.642440 0.277563 0.449249 -0.336156
Br4   Br    Br    0.368680 0.694452 0.418088 -0.388916
Br5   Br    Br    0.334819 0.264415 0.557614 -0.356669
Br6   Br    Br    0.491157 0.018225 0.408619 -0.391578
Br7   Br    Br    0.470865 0.971998 0.575845 -0.381557
Br8   Br    Br    0.286989 0.364210 0.423075 -0.317747
Br9   Br    Br    0.689974 0.390236 0.580203 -0.385553
Br10  Br    Br    0.540120 0.320928 0.744854 -0.288268
Br11  Br    Br    0.496556 0.689928 0.258215 -0.300047
Br12  Br    Br    0.248243 0.419709 0.970878 -0.364865
C1    C     C_R   0.489752 0.349706 0.500460 0.608128
C2    C     C_R   0.425349 0.470427 0.871126 0.001293
C3    C     C_R   0.500045 0.504764 0.354856 -0.010460
C4    C     C_R   0.501028 0.496470 0.645308 -0.034425
C5    C     C_R   0.425516 0.489665 0.973063 0.031301
C6    C     C_R   0.581401 0.517892 0.027825 0.031510
C7    C     C_R   0.579031 0.498960 0.977499 0.014796
C8    C     C_R   0.427931 0.509081 0.023287 0.014841
C9    C     C_R   0.501967 0.489829 0.949957 0.012658
C10   C     C_R   0.504901 0.517829 0.050878 0.012824
C11   C     C_R   0.350222 0.466062 0.944918 0.138878
C12   C     C_R   0.510268 0.649937 0.497547 0.582932
C13   C     C_R   0.656654 0.540779 0.056195 0.138811
C14   C     C_R   0.350643 0.461546 0.894558 -0.047289
C15   C     C_R   0.656036 0.544202 0.106590 -0.047260
C16   C     C_R   0.499855 0.499770 0.407727 0.589698
C17   C     C_R   0.500227 0.500215 0.592299 0.537258
C18   C     C_R   0.356975 0.528624 0.045899 -0.087583
C19   C     C_R   0.650118 0.480095 0.954728 -0.087812
C20   C     C_R   0.486957 0.264701 0.502899 0.024867
C21   C     C_R   0.512710 0.733583 0.488600 0.046741
C22   C     C_R   0.552488 0.226880 0.484451 0.142598
C23   C     C_R   0.505282 0.528438 0.101954 -0.050494
C24   C     C_R   0.450429 0.760907 0.456905 0.135223
C25   C     C_R   0.552873 0.147365 0.489821 -0.047863
C26   C     C_R   0.447117 0.840191 0.451565 -0.032559
C27   C     C_R   0.487108 0.103260 0.510733 0.008698
C28   C     C_R   0.505246 0.893123 0.476605 0.007195
C29   C     C_R   0.422702 0.139714 0.529498 -0.036537
C30   C     C_R   0.570546 0.867028 0.505078 -0.045200
C31   C     C_R   0.422409 0.220074 0.526298 0.136381
C32   C     C_R   0.574666 0.787742 0.511535 0.183641
C33   C     C_2   0.486883 0.018738 0.513291 0.147949
C34   C     C_R   0.501403 0.478790 0.898899 -0.050694
C35   C     C_2   0.496710 0.976098 0.473198 0.140944
C36   C     C_R   0.760628 0.558383 0.477341 0.202058
C37   C     C_R   0.250081 0.545300 0.517667 0.197730
C38   C     C_R   0.847770 0.558303 0.480131 -0.090002
C39   C     C_R   0.164802 0.550725 0.509530 -0.090715
C40   C     C_R   0.432055 0.528764 0.176352 0.457868
C41   C     C_R   0.574237 0.478834 0.824355 0.459292
C42   C     C_R   0.885038 0.506698 0.511028 -0.000246
C43   C     C_R   0.115555 0.495436 0.480434 -0.002306
C44   C     C_R   0.834385 0.458275 0.539710 -0.040184
C45   C     C_R   0.429986 0.532283 0.125151 0.015299
C46   C     C_R   0.154714 0.439157 0.456693 -0.043969
C47   C     C_R   0.748736 0.460794 0.537470 0.323013
C48   C     C_R   0.241021 0.438251 0.462604 0.323258
C49   C     C_2   0.976837 0.502263 0.515119 0.022536
C50   C     C_2   0.022904 0.494891 0.475446 0.026350
C51   C     C_R   0.580432 0.537110 0.180623 0.435846
C52   C     C_R   0.425766 0.467473 0.820381 0.431924
C53   C     C_R   0.500575 0.588144 0.284415 0.228617
C54   C     C_R   0.517547 0.418207 0.717212 0.231675
C55   C     C_R   0.497861 0.578494 0.334407 -0.118920
C56   C     C_R   0.576675 0.475722 0.875575 0.016118
C57   C     C_R   0.518574 0.426661 0.667037 -0.082604
C58   C     C_R   0.506546 0.439293 0.324721 0.025517
C59   C     C_R   0.482259 0.559284 0.674445 -0.023676
C60   C     C_R   0.510329 0.450084 0.274512 -0.079284
C61   C     C_R   0.480457 0.549767 0.724761 -0.069761
C62   C     C_R   0.506617 0.523613 0.254325 0.211671
C63   C     C_R   0.498658 0.480156 0.746276 0.212167
C64   C     C_2   0.507309 0.359273 0.343862 0.633216
C65   C     C_2   0.465633 0.635743 0.654088 0.636829
C66   C     C_2   0.724567 0.609035 0.441372 0.625379
C67   C     C_R   0.356320 0.539134 0.096141 0.055308
C68   C     C_2   0.294647 0.599154 0.553885 0.640442
C69   C     C_2   0.982783 0.481965 0.425694 0.568761
C70   C     C_2   0.014717 0.499075 0.565523 0.558973
C71   C     C_2   0.279909 0.564604 0.115745 0.648748
C72   C     C_2   0.727354 0.445159 0.884698 0.648596
C73   C     C_R   0.650679 0.469812 0.904458 0.055273
C74   C     C_R   0.581179 0.535465 0.129872 0.002189
Cu1   Cu    Cu3+1 0.415410 0.495980 0.497540 1.150957
Cu2   Cu    Cu3+1 0.584590 0.504020 0.502460 1.122840
H1    H     H_    0.372572 0.105629 0.546720 0.200460
H2    H     H_    0.466859 0.597342 0.747763 0.171950
H3    H     H_    0.532006 0.378161 0.644783 0.181273
H4    H     H_    0.494815 0.628880 0.357500 0.168585
H5    H     H_    0.292083 0.446828 0.873869 0.211062
H6    H     H_    0.714556 0.558128 0.127455 0.210645
H7    H     H_    0.302777 0.541599 0.024229 0.190768
H8    H     H_    0.704524 0.467335 0.976258 0.191014
H9    H     H_    0.470397 0.281563 0.394422 0.365878
H10   H     H_    0.564001 0.644397 0.611841 0.327727
H11   H     H_    0.685660 0.623180 0.371706 0.349733
H12   H     H_    0.617052 0.908656 0.523375 0.184826
H13   H     H_    0.341783 0.709345 0.570917 0.381413
H14   H     H_    0.885834 0.432074 0.383092 0.378675
H15   H     H_    0.093620 0.450337 0.612238 0.377699
H16   H     H_    0.229718 0.638494 0.159677 0.375134
H17   H     H_    0.778186 0.372113 0.840499 0.374777
H18   H     H_    0.397870 0.860626 0.428490 0.203242
H19   H     H_    0.604077 0.119260 0.476510 0.189770
H20   H     H_    0.861492 0.417611 0.563876 0.171685
H21   H     H_    0.118400 0.396188 0.433209 0.169832
H22   H     H_    0.136341 0.596234 0.527529 0.146042
H23   H     H_    0.886018 0.597248 0.457782 0.143814
H24   H     H_    0.514159 0.400925 0.250467 0.175531
N1    N     N_R   0.506495 0.531260 0.202635 -0.387158
N2    N     N_R   0.499535 0.474076 0.798136 -0.388323
N3    N     N_R   0.711660 0.510070 0.506160 -0.250683
N4    N     N_R   0.288340 0.489930 0.493840 -0.252872
O1    O     O_R   0.420280 0.382610 0.497690 -0.439011
O2    O     O_2   0.645442 0.490057 0.800879 -0.403138
O3    O     O_2   0.353135 0.459368 0.793381 -0.432513
O4    O     O_2   0.652813 0.543022 0.207829 -0.435299
O5    O     O_2   0.538434 0.310104 0.320921 -0.437326
O6    O     O_R   0.470147 0.338846 0.387064 -0.648774
O7    O     O_2   0.411131 0.670260 0.670472 -0.391204
O8    O     O_R   0.512515 0.670785 0.617627 -0.633305
O9    O     O_2   0.714045 0.675544 0.452632 -0.465745
O10   O     O_R   0.708936 0.582796 0.393411 -0.657357
O11   O     O_2   0.307915 0.576723 0.595100 -0.455450
O12   O     O_R   0.579720 0.617390 0.502310 -0.474472
O13   O     O_R   0.312969 0.677551 0.542621 -0.644571
O14   O     O_2   0.018656 0.509150 0.390783 -0.449367
O15   O     O_R   0.905973 0.436586 0.418525 -0.652611
O16   O     O_2   0.992288 0.540291 0.597411 -0.450905
O17   O     O_R   0.073104 0.447006 0.576848 -0.658820
O18   O     O_2   0.211356 0.534172 0.100796 -0.429631
O19   O     O_R   0.286135 0.625894 0.149556 -0.601754
O20   O     O_2   0.795712 0.476057 0.899642 -0.430077
O21   O     O_R   0.721629 0.384121 0.850730 -0.600562
O22   O     O_R   0.563150 0.389400 0.501840 -0.448576
O23   O     O_R   0.436850 0.610600 0.498160 -0.473282
O24   O     O_R   0.428580 0.496620 0.428190 -0.449678
O25   O     O_R   0.571420 0.503380 0.571810 -0.488449
O26   O     O_R   0.571440 0.503410 0.432340 -0.478277
O27   O     O_R   0.428560 0.496590 0.567660 -0.462097
O28   O     O_2   0.360683 0.519420 0.199761 -0.400754

loop_
_geom_bond_atom_site_label_1
_geom_bond_atom_site_label_2
_ccdc_geom_bond_type
C28   C35   S    
C29   H1    S    
Cu1   Cu2   S    
C60   H24   S    
C19   C73   A    
H16   O19   S    
C22   C25   A    
C61   C63   A    
C45   C67   A    
C1    C20   S    
C16   O24   A    
Cu1   O24   S    
C7    C19   A    
C21   C24   A    
Br4   C24   S    
C3    C16   S    
C2    C34   A    
C8    C18   A    
C40   N1    A    
H10   O8    S    
C10   C23   A    
C4    C59   A    
Br12  C11   S    
C18   H7    S    
C52   O3    S    
C64   O5    D    
Br7   C33   S    
C7    C9    A    
C61   H2    S    
Cu1   O1    S    
C49   C70   S    
C23   C74   A    
C69   O15   S    
C54   C57   A    
C46   C48   A    
C19   H8    S    
C46   H21   S    
C43   C50   S    
C5    C8    A    
C6    C7    A    
C11   C14   A    
C36   C66   S    
C41   C56   A    
C44   H20   S    
C71   O18   D    
C53   C55   A    
C71   O19   S    
C27   C33   S    
C14   H5    S    
Br10  C54   S    
Br5   C31   S    
C3    C55   A    
C56   C73   A    
C29   C31   A    
C6    C13   A    
C30   C32   A    
Cu2   O26   S    
H11   O10   S    
C33   C35   D    
C12   O23   A    
C51   N1    A    
C42   C44   A    
C52   N2    A    
Br6   C35   S    
C72   C73   S    
C60   C62   A    
C59   C61   A    
C41   O2    S    
Br3   C22   S    
C37   C39   A    
C4    C17   S    
C62   N1    S    
C5    C9    A    
C53   C62   A    
Br9   C47   S    
C20   C22   A    
C26   H18   S    
C15   C74   A    
C34   C56   A    
H9    O6    S    
C65   O7    D    
C30   H12   S    
Br1   C32   S    
C5    C11   A    
C17   O25   A    
C63   N2    S    
C38   C42   A    
C2    C14   A    
Cu2   O22   S    
Cu1   N4    S    
C36   N3    A    
C2    C52   A    
C47   N3    A    
C42   C49   S    
C50   C69   S    
C8    C10   A    
C72   O21   S    
C39   H22   S    
C40   O28   S    
C51   C74   A    
C58   C64   S    
C48   N4    A    
C16   O26   A    
C18   C67   A    
C70   O16   D    
C66   O10   S    
Cu2   O25   S    
C59   C65   S    
C55   H4    S    
C41   N2    A    
C9    C34   A    
C3    C58   A    
C72   O20   D    
C68   O13   S    
C6    C10   A    
C21   C32   A    
H14   O15   S    
C4    C57   A    
Cu1   O23   S    
C28   C30   A    
C1    O1    A    
C37   C68   S    
C25   H19   S    
C68   O11   D    
C13   C15   A    
C12   C21   S    
C44   C47   A    
C23   C45   A    
C64   O6    S    
C1    O22   A    
C70   O17   S    
C24   C26   A    
H15   O17   S    
C25   C27   A    
C65   O8    S    
Br8   C48   S    
C26   C28   A    
C51   O4    S    
C69   O14   D    
Cu2   N3    S    
C54   C63   A    
C36   C38   A    
C38   H23   S    
C20   C31   A    
Br2   C13   S    
C39   C43   A    
C49   C50   D    
C40   C45   A    
H17   O21   S    
C67   C71   S    
C37   N4    A    
C27   C29   A    
Cu2   O12   S    
C43   C46   A    
C12   O12   A    
C15   H6    S    
C58   C60   A    
Cu1   O27   S    
C57   H3    S    
C66   O9    D    
Br11  C53   S    
H13   O13   S    
C17   O27   A    
