data_mof_unit_5748.cif
_audit_creation_date              2013-03-05T16:04:20-0500
_audit_creation_method            fapswitch 2.2
_symmetry_space_group_name_H-M    P1
_symmetry_Int_Tables_number       1
_space_group_crystal_system       triclinic
_cell_length_a                    9.529284
_cell_length_b                    10.862739
_cell_length_c                    13.433172
_cell_angle_alpha                 90.75605
_cell_angle_beta                  72.240644
_cell_angle_gamma                 90.331436
_cell_volume                      1324.14151491

loop_
_atom_site_label
_atom_site_type_symbol
_atom_site_description
_atom_site_fract_x
_atom_site_fract_y
_atom_site_fract_z
_atom_type_partial_charge
O1    O     O_R   0.381250 0.680340 0.500010 -0.587598
O2    O     O_R   0.618820 0.680370 0.500010 -0.547858
C1    C     C_R   0.500613 0.738095 0.500730 0.804556
O3    O     O_R   0.323240 0.499950 0.650980 -0.537361
O4    O     O_R   0.560810 0.499980 0.650980 -0.596958
C2    C     C_R   0.420409 0.499734 0.700668 0.828870
Cu1   Cu    Cu3+1 0.359340 0.499980 0.500000 1.014639
Cu2   Cu    Cu3+1 0.640660 0.500020 0.500000 1.052469
O5    O     O_R   0.381180 0.319630 0.499990 -0.577923
O6    O     O_R   0.618750 0.319660 0.499990 -0.557798
O7    O     O_R   0.439190 0.500020 0.349020 -0.602624
O8    O     O_R   0.676760 0.500050 0.349020 -0.535321
C3    C     C_R   0.499530 0.262319 0.500101 0.852794
C4    C     C_R   0.578956 0.501652 0.299980 0.809024
C5    C     C_R   0.761541 0.637148 0.038146 -0.090029
H1    H     H_    0.815643 0.629315 0.181259 0.183135
C6    C     C_R   0.623770 0.519718 0.187116 -0.023907
C7    C     C_R   0.246129 0.413686 0.864220 0.235435
C8    C     C_R   0.216947 0.378792 0.968735 0.293656
C9    C     C_R   0.314567 0.413299 0.023346 -0.258918
C10   C     C_R   0.439326 0.488114 0.977937 0.036205
C11   C     C_R   0.460429 0.532452 0.875789 -0.002312
C12   C     C_R   0.542666 0.521592 0.031380 0.081669
C13   C     C_R   0.661033 0.603507 0.984045 0.041689
C14   C     C_R   0.671256 0.655629 0.886729 0.305210
C15   C     C_R   0.569468 0.622300 0.835568 -0.220478
C16   C     C_R   0.529850 0.478370 0.132072 -0.171377
C17   C     C_R   0.742859 0.595547 0.138798 -0.129569
C18   C     C_R   0.371144 0.487139 0.815889 -0.224414
H2    H     H_    0.444358 0.415673 0.172526 0.139280
H3    H     H_    0.286056 0.382694 0.102775 0.193343
C19   C     C_R   0.631659 0.939712 0.498597 0.353816
C20   C     C_R   0.628275 0.066941 0.498204 -0.154485
C21   C     C_R   0.499402 0.128923 0.500414 -0.107375
C22   C     C_R   0.371768 0.062944 0.503409 -0.114762
H4    H     H_    0.270735 0.109528 0.505356 0.193479
C23   C     C_R   0.373358 0.935515 0.504158 -0.168016
H5    H     H_    0.273038 0.886593 0.506486 0.203432
C24   C     C_R   0.502619 0.872439 0.501694 -0.166142
C25   C     C_R   0.893581 0.561368 0.576034 0.019613
H6    H     H_    0.812354 0.610558 0.637069 0.184817
C26   C     C_R   0.042381 0.562063 0.575574 0.071133
N1    N     N_R   0.147940 0.499970 0.499970 -0.205104
C27   C     C_R   0.107428 0.438574 0.424103 -0.061238
H7    H     H_    0.189789 0.389197 0.363441 0.153347
C28   C     C_R   0.959372 0.438883 0.423264 0.425042
N2    N     N_R   0.852060 0.500060 0.499990 -0.238649
H8    H     H_    0.727216 0.116944 0.497470 0.214747
H9    H     H_    0.073052 0.612387 0.635702 0.196182
N3    N     N_R   0.925153 0.377442 0.339145 0.139356
O9    O     O_R   0.886030 0.262327 0.348547 -0.325684
O10   O     O_R   0.972650 0.424136 0.246168 -0.348787
N4    N     N_R   0.782119 0.745134 0.839468 0.112408
O11   O     O_R   0.921021 0.717124 0.816277 -0.359992
O12   O     O_R   0.744704 0.848130 0.806295 -0.280321
H10   H     H_    0.850895 0.700810 0.005901 0.204079
N5    N     N_R   0.155259 0.365648 0.805263 0.160866
O13   O     O_R   0.167328 0.250865 0.775100 -0.309363
O14   O     O_R   0.048473 0.431998 0.793294 -0.309728
N6    N     N_R   0.090871 0.303851 0.019379 0.179746
O15   O     O_R   0.965498 0.320723 0.001743 -0.255316
O16   O     O_R   0.097968 0.223955 0.089036 -0.273861
H11   H     H_    0.576450 0.668625 0.763419 0.184543
N7    N     N_R   0.766766 0.881760 0.497041 0.128963
O17   O     O_R   0.883469 0.896637 0.416971 -0.327389
O18   O     O_R   0.781775 0.841061 0.583785 -0.326888

loop_
_geom_bond_atom_site_label_1
_geom_bond_atom_site_label_2
_geom_bond_distance
_ccdc_geom_bond_type
H1    C17   1.083429 S    
O4    Cu2   1.936729 S    
N3    O10   1.300494 A    
C12   C13   1.426243 A    
C13   C14   1.407200 A    
C23   H5    1.083329 S    
C11   C18   1.419848 A    
Cu1   N1    2.014613 S    
C8    N6    1.440011 S    
C25   N2    1.367162 A    
C28   N3    1.425135 S    
C7    N5    1.432340 S    
C8    C9    1.396087 A    
C15   H11   1.081724 S    
Cu2   O8    1.950920 S    
N1    C27   1.360722 A    
N7    O17   1.300989 A    
C25   C26   1.416061 A    
O2    C1    1.289768 A    
C5    C17   1.390096 A    
Cu2   N2    2.014447 S    
C1    C24   1.459292 S    
C3    C21   1.449091 S    
C23   C24   1.404316 A    
C7    C18   1.417117 A    
N4    O11   1.300869 A    
C27   H7    1.082070 S    
C16   H2    1.075236 S    
Cu1   O7    1.936731 S    
C4    C6    1.459943 S    
N5    O13   1.300748 A    
O3    Cu1   1.950919 S    
N6    O16   1.301570 A    
C5    C13   1.411583 A    
C22   C23   1.384603 A    
C14   N4    1.435164 S    
C10   C11   1.415367 A    
C20   C21   1.396117 A    
C12   C16   1.407204 A    
C10   C12   1.427458 A    
O4    C2    1.300300 A    
C21   C22   1.398363 A    
C5    H10   1.080268 S    
N5    O14   1.300839 A    
C26   N1    1.365572 A    
N4    O12   1.300825 A    
C6    C16   1.392755 A    
O8    C4    1.295345 A    
Cu1   Cu2   2.680777 S    
C2    C18   1.481989 S    
C9    C10   1.416140 A    
C19   N7    1.430707 S    
O3    C2    1.296157 A    
C7    C8    1.402410 A    
C11   C15   1.408495 A    
C19   C24   1.416694 A    
O7    C4    1.293427 A    
Cu1   O5    1.971308 S    
C20   H8    1.082874 S    
O5    C3    1.291770 A    
C28   N2    1.377119 A    
C25   H6    1.078403 S    
C26   H9    1.080353 S    
N3    O9    1.299482 A    
C14   C15   1.392929 A    
O1    Cu1   1.969098 S    
C6    C17   1.393409 A    
O6    C3    1.292079 A    
Cu2   O6    1.969098 S    
O2    Cu2   1.971310 S    
C22   H4    1.083329 S    
C19   C20   1.382736 A    
C27   C28   1.414364 A    
N6    O15   1.301306 A    
O1    C1    1.298373 A    
C9    H3    1.074375 S    
N7    O18   1.299890 A    
