data_mof_unit_30479.cif
_audit_creation_date              2012-12-11T15:14:53-0500
_audit_creation_method            fapswitch 2.2
_symmetry_space_group_name_H-M    P1
_symmetry_Int_Tables_number       1
_space_group_crystal_system       triclinic
_cell_length_a                    11.063715
_cell_length_b                    11.058185
_cell_length_c                    18.465471
_cell_angle_alpha                 90.029976
_cell_angle_beta                  89.939974
_cell_angle_gamma                 120.016761
_cell_volume                      1956.15038431

loop_
_atom_site_label
_atom_site_type_symbol
_atom_type_description
_atom_site_fract_x
_atom_site_fract_y
_atom_site_fract_z
_atom_type_partial_charge
C1    C     C_R   0.537945 0.430829 0.637270 0.551303
C2    C     C_R   0.457996 0.519404 0.354326 0.543536
C3    C     C_R   0.481525 0.938452 0.145250 0.539783
C4    C     C_R   0.062678 0.541815 0.355185 0.544548
C5    C     C_3   0.369689 0.949614 0.482853 -0.124380
C6    C     C_3   0.615309 0.508807 0.034794 -0.143011
C7    C     C_3   0.004550 0.386844 0.478463 -0.110516
C8    C     C_3   0.542390 0.122166 0.037612 -0.149988
C9    C     C_3   0.629696 0.574883 0.468103 -0.124735
C10   C     C_3   0.952484 0.392117 0.031813 -0.122375
C11   C     C_3   0.054810 0.425115 0.968104 -0.124734
C12   C     C_R   0.938592 0.480596 0.854326 0.543535
C13   C     C_3   0.560371 0.607881 0.531813 -0.122371
C14   C     C_3   0.420073 0.050384 0.982853 -0.124380
C15   C     C_3   0.106503 0.491192 0.534794 -0.143010
C16   C     C_3   0.617707 0.613156 0.978463 -0.110516
C17   C     C_3   0.420223 0.877833 0.537613 -0.149988
C18   C     C_3   0.467865 0.092158 0.517026 -0.134668
C19   C     C_3   0.514898 0.386294 0.985457 -0.129435
C20   C     C_3   0.883285 0.393068 0.515554 -0.132594
C21   C     C_3   0.637736 0.099404 0.984787 -0.121820
C22   C     C_3   0.586035 0.431178 0.502010 -0.149877
C23   C     C_R   0.543073 0.061548 0.645250 0.539783
C24   C     C_3   0.880646 0.460080 0.990097 -0.121343
C25   C     C_3   0.154855 0.568820 0.002011 -0.149874
C26   C     C_3   0.420569 0.539920 0.490098 -0.121343
C27   C     C_3   0.375706 0.907841 0.017026 -0.134668
C28   C     C_3   0.128606 0.613705 0.485457 -0.129434
C29   C     C_3   0.490218 0.606933 0.015553 -0.132595
C30   C     C_3   0.538332 0.900595 0.484787 -0.121820
C31   C     C_3   0.517705 0.019798 0.569930 0.063524
C32   C     C_3   0.514517 0.490229 0.931048 0.054145
C33   C     C_3   0.986097 0.498812 0.570114 0.058351
C34   C     C_R   0.520862 0.458184 0.855184 0.544550
C35   C     C_3   0.515563 0.026346 0.931471 0.062474
C36   C     C_3   0.516759 0.464723 0.564188 0.059982
C37   C     C_3   0.985475 0.495335 0.928208 0.063603
C38   C     C_3   0.052031 0.535274 0.064188 0.059980
C39   C     C_3   0.490139 0.504664 0.428209 0.063603
C40   C     C_3   0.497908 0.980202 0.069930 0.063524
C41   C     C_3   0.024288 0.509770 0.431048 0.054144
C42   C     C_3   0.487285 0.501189 0.070114 0.058351
C43   C     C_3   0.489217 0.973652 0.431472 0.062475
C44   C     C_3   0.636757 0.043255 0.518238 -0.110434
C45   C     C_R   0.939638 0.481790 0.645307 0.536320
C46   C     C_3   0.388711 0.484215 0.966723 -0.135554
C47   C     C_3   0.007624 0.621321 0.521779 -0.098228
C48   C     C_3   0.471190 0.884648 0.964138 -0.149216
C49   C     C_3   0.376728 0.396376 0.523983 -0.111102
C50   C     C_3   0.083530 0.637270 0.961043 -0.133539
C51   C     C_3   0.980350 0.603623 0.023982 -0.111103
C52   C     C_3   0.446259 0.362729 0.461043 -0.133539
C53   C     C_3   0.593502 0.956745 0.018238 -0.110435
C54   C     C_3   0.904497 0.515786 0.466724 -0.135553
C55   C     C_3   0.386301 0.378680 0.021779 -0.098227
C56   C     C_R   0.543719 0.064731 0.855730 0.544051
C57   C     C_3   0.586542 0.115351 0.464138 -0.149216
C58   C     C_R   0.457849 0.518211 0.145307 0.536321
C59   C     C_R   0.478989 0.935268 0.355730 0.544051
C60   C     C_R   0.107110 0.569167 0.137270 0.551303
Cr1   Cr    Cr6+3 0.769930 0.543130 0.750000 1.016321
Cr2   Cr    Cr6+3 0.773200 0.230070 0.750000 1.008839
Cr3   Cr    Cr6+3 0.456870 0.226800 0.750000 1.007949
Cr4   Cr    Cr6+3 0.543130 0.769930 0.250000 1.008839
Cr5   Cr    Cr6+3 0.230070 0.773200 0.250000 1.007950
Cr6   Cr    Cr6+3 0.226800 0.456870 0.250000 1.016322
H1    H     H_    0.261175 0.917128 0.466325 0.121783
H2    H     H_    0.185332 0.483229 0.568128 0.109301
H3    H     H_    0.710513 0.709541 0.958422 0.120793
H4    H     H_    0.356880 0.783748 0.571313 0.108128
H5    H     H_    0.746052 0.076969 0.533796 0.125039
H6    H     H_    0.307235 0.479120 0.930487 0.109933
H7    H     H_    0.011698 0.718602 0.540693 0.125938
H8    H     H_    0.441747 0.790885 0.930394 0.106579
H9    H     H_    0.273339 0.323107 0.547893 0.123301
H10   H     H_    0.136564 0.735513 0.929169 0.122657
H11   H     H_    0.950230 0.676892 0.047892 0.123300
H12   H     H_    0.702101 0.516769 0.068128 0.109300
H13   H     H_    0.401047 0.264486 0.429168 0.122657
H14   H     H_    0.669084 0.923032 0.033795 0.125038
H15   H     H_    0.828117 0.520882 0.430487 0.109933
H16   H     H_    0.293092 0.281399 0.040693 0.125938
H17   H     H_    0.650863 0.209114 0.430394 0.106579
H18   H     H_    0.430712 0.161529 0.537459 0.130577
H19   H     H_    0.534003 0.306644 0.961877 0.121179
H20   H     H_    0.787804 0.305433 0.537796 0.119771
H21   H     H_    0.745235 0.173627 0.966926 0.130511
H22   H     H_    0.646428 0.379900 0.512047 0.099721
H23   H     H_    0.000969 0.290458 0.458422 0.120793
H24   H     H_    0.768073 0.409407 0.979373 0.105610
H25   H     H_    0.266526 0.620096 0.012050 0.099722
H26   H     H_    0.358670 0.590594 0.479375 0.105608
H27   H     H_    0.269182 0.838469 0.037459 0.130578
H28   H     H_    0.227362 0.693354 0.461876 0.121179
H29   H     H_    0.482372 0.694568 0.037795 0.119772
H30   H     H_    0.571608 0.826373 0.466927 0.130510
H31   H     H_    0.573132 0.216251 0.071312 0.108128
H32   H     H_    0.730230 0.652494 0.443197 0.113361
H33   H     H_    0.900128 0.294305 0.064013 0.120521
H34   H     H_    0.077733 0.347504 0.943198 0.113361
H35   H     H_    0.605828 0.705692 0.564013 0.120522
H36   H     H_    0.344045 0.082870 0.966325 0.121783
O1    O     O_R   0.913270 0.574260 0.668550 -0.524403
O2    O     O_R   0.574260 0.913270 0.331450 -0.518520
O3    O     O_R   0.086730 0.660990 0.168550 -0.525756
O4    O     O_R   0.339010 0.425740 0.331450 -0.518409
O5    O     O_R   0.640160 0.530400 0.673300 -0.501878
O6    O     O_R   0.890240 0.359840 0.826700 -0.513003
O7    O     O_R   0.469600 0.109760 0.673300 -0.518714
O8    O     O_R   0.640160 0.530400 0.826700 -0.503493
O9    O     O_R   0.890240 0.359840 0.673300 -0.509934
O10   O     O_R   0.469600 0.109760 0.826700 -0.512068
O11   O     O_R   0.530400 0.640160 0.173300 -0.509934
O12   O     O_R   0.660990 0.086730 0.831450 -0.518520
O13   O     O_R   0.359840 0.890240 0.326700 -0.512068
O14   O     O_R   0.109760 0.469600 0.173300 -0.501879
O15   O     O_R   0.530400 0.640160 0.326700 -0.513003
O16   O     O_R   0.359840 0.890240 0.173300 -0.518711
O17   O     O_R   0.109760 0.469600 0.326700 -0.503493
O18   O     O_3   0.666667 0.333333 0.750000 -0.278979
O19   O     O_3   0.333333 0.666667 0.250000 -0.278977
O20   O     O_R   0.425740 0.339010 0.668550 -0.525755
O21   O     O_R   0.913270 0.574260 0.831450 -0.518409
O22   O     O_R   0.660990 0.086730 0.668550 -0.523606
O23   O     O_R   0.425740 0.339010 0.831450 -0.517863
O24   O     O_R   0.574260 0.913270 0.168550 -0.523606
O25   O     O_R   0.086730 0.660990 0.331450 -0.517863
O26   O     O_R   0.339010 0.425740 0.168550 -0.524402

loop_
_geom_bond_atom_site_label_1
_geom_bond_atom_site_label_2
_ccdc_geom_bond_type
C27   C48   S    
C21   H21   S    
C28   C47   S    
C58   O26   A    
C9    H32   S    
C37   C50   S    
C29   C42   S    
C14   H36   S    
C33   C45   S    
C60   O3    A    
C5    H1    S    
C42   C58   S    
Cr2   O22   S    
C3    O24   A    
C6    C19   S    
Cr6   O14   S    
C59   O2    A    
Cr5   O25   S    
Cr1   O1    S    
Cr2   O12   S    
C42   C55   S    
C9    C22   S    
C6    H12   S    
Cr2   O6    S    
C4    C41   S    
Cr1   O8    S    
C26   H26   S    
Cr4   O19   S    
C7    H23   S    
C28   C41   S    
C9    C39   S    
C44   H5    S    
C28   H28   S    
Cr3   O10   S    
C11   C37   S    
C9    C13   S    
C1    O20   A    
C30   H30   S    
C45   O1    A    
C25   C50   S    
C2    C39   S    
Cr2   O9    S    
C35   C48   S    
C20   H20   S    
C46   C55   S    
C58   O11   A    
C18   H18   S    
Cr5   O16   S    
C49   H9    S    
C4    O17   A    
Cr5   O19   S    
C14   C27   S    
C52   H13   S    
C44   C57   S    
C46   H6    S    
C43   C59   S    
C24   C51   S    
C7    C15   S    
C39   C52   S    
C5    C43   S    
C17   H4    S    
Cr1   O18   S    
C17   C30   S    
Cr5   O13   S    
C30   C44   S    
C32   C46   S    
Cr6   O4    S    
C13   C26   S    
C19   C32   S    
Cr5   O3    S    
C2    O15   A    
C50   C51   S    
C48   C53   S    
C23   O7    A    
C25   H25   S    
C31   C44   S    
C48   H8    S    
C53   H14   S    
C47   H7    S    
C13   C36   S    
C20   C54   S    
C26   C49   S    
C14   C35   S    
C12   O6    A    
C38   C51   S    
C10   C24   S    
C16   C29   S    
C2    O4    A    
Cr4   O15   S    
C24   H24   S    
C11   H34   S    
C32   C34   S    
Cr3   O7    S    
C8    H31   S    
C51   H11   S    
C3    O16   A    
C50   H10   S    
C25   C38   S    
C26   C39   S    
C18   C57   S    
C27   C40   S    
C49   C52   S    
C57   H17   S    
C24   C37   S    
Cr6   O19   S    
C55   H16   S    
Cr3   O23   S    
C1    O5    A    
C47   C54   S    
C38   C60   S    
C20   C33   S    
C3    C40   S    
C7    C20   S    
C22   H22   S    
Cr6   O17   S    
C6    C42   S    
C33   C47   S    
C30   C43   S    
C27   H27   S    
C29   H29   S    
C13   H35   S    
Cr3   O20   S    
C22   C52   S    
C19   C55   S    
Cr4   O2    S    
C8    C14   S    
Cr4   O11   S    
C4    O25   A    
C35   C56   S    
Cr2   O18   S    
C16   H3    S    
C15   C33   S    
C19   H19   S    
C8    C21   S    
C45   O9    A    
C23   O22   A    
C5    C18   S    
C16   C32   S    
C22   C36   S    
Cr4   O24   S    
Cr1   O21   S    
C29   C46   S    
C10   C38   S    
C21   C35   S    
C21   C53   S    
Cr3   O18   S    
C15   C28   S    
C12   O21   A    
C34   O23   A    
C17   C31   S    
C15   H2    S    
Cr6   O26   S    
C7    C41   S    
C10   H33   S    
Cr1   O5    S    
C41   C54   S    
C60   O14   A    
C10   C11   S    
C43   C57   S    
C6    C16   S    
C56   O12   A    
C5    C17   S    
C59   O13   A    
C40   C53   S    
C12   C37   S    
C11   C25   S    
C18   C31   S    
C8    C40   S    
C34   O8    A    
C56   O10   A    
C54   H15   S    
C36   C49   S    
C1    C36   S    
C23   C31   S    
