data_mof_unit_5698.cif
_audit_creation_date              2012-12-10T17:04:10-0500
_audit_creation_method            fapswitch 2.2
_symmetry_space_group_name_H-M    P1
_symmetry_Int_Tables_number       1
_space_group_crystal_system       triclinic
_cell_length_a                    18.808841
_cell_length_b                    18.686195
_cell_length_c                    18.913038
_cell_angle_alpha                 108.303306
_cell_angle_beta                  109.713481
_cell_angle_gamma                 108.987658
_cell_volume                      5203.57817483

loop_
_atom_site_label
_atom_site_type_symbol
_atom_type_description
_atom_site_fract_x
_atom_site_fract_y
_atom_site_fract_z
_atom_type_partial_charge
C1    C     C_R   0.618369 0.618336 0.499426 0.980081
C2    C     C_3   0.190404 0.411988 0.192818 -0.394466
C3    C     C_3   0.215730 0.458766 0.287876 0.429184
C4    C     C_3   0.311715 0.498797 0.313941 -0.205836
C5    C     C_R   0.601530 0.766819 0.478201 0.365363
C6    C     C_R   0.597812 0.836403 0.464511 0.479956
C7    C     C_R   0.675756 0.907672 0.493153 -0.321736
C8    C     C_R   0.750280 0.901914 0.516720 -0.214080
C9    C     C_R   0.748693 0.822334 0.502727 -0.007439
C10   C     C_R   0.677619 0.756000 0.493224 -0.096638
C11   C     C_R   0.818577 0.811001 0.500687 -0.121493
C12   C     C_R   0.379837 0.499258 0.381406 0.901353
C13   C     C_R   0.830202 0.741716 0.509116 -0.106027
C14   C     C_R   0.765158 0.678523 0.511955 -0.185283
C15   C     C_R   0.687076 0.684298 0.500081 -0.123576
C16   C     C_R   0.906766 0.735498 0.518094 0.424542
C17   C     C_R   0.928002 0.687203 0.556502 -0.477946
C18   C     C_R   0.864436 0.619534 0.551062 0.394753
C19   C     C_R   0.782275 0.612288 0.526293 0.417051
C20   C     C_R   0.755466 0.661220 0.775288 0.376616
C21   C     C_R   0.781337 0.723697 0.856366 0.230708
C22   C     C_R   0.837178 0.724256 0.928054 0.314735
C23   C     C_R   0.381787 0.381977 0.501038 0.811734
C24   C     C_R   0.860116 0.658401 0.915672 0.408437
C25   C     C_R   0.810452 0.581170 0.834971 -0.155670
C26   C     C_R   0.751054 0.580724 0.764515 -0.159920
C27   C     C_R   0.819173 0.505852 0.821183 -0.094341
C28   C     C_R   0.765333 0.430315 0.741091 -0.014702
C29   C     C_R   0.692783 0.423989 0.678634 -0.025875
C30   C     C_R   0.688918 0.501163 0.687602 -0.100912
C31   C     C_R   0.782416 0.360058 0.722211 -0.166646
C32   C     C_R   0.725340 0.283171 0.646880 -0.237657
C33   C     C_R   0.647048 0.272040 0.592385 -0.221845
C34   C     C_R   0.619562 0.499526 0.619417 0.962306
C35   C     C_R   0.627425 0.339701 0.610397 0.516841
C36   C     C_R   0.382576 0.395157 0.660474 -0.232497
C37   C     C_R   0.376702 0.411340 0.735160 0.519734
C38   C     C_R   0.305559 0.350109 0.730930 -0.282091
C39   C     C_R   0.241572 0.277651 0.653609 -0.200874
C40   C     C_R   0.245866 0.263014 0.577431 0.060729
C41   C     C_R   0.314511 0.325412 0.579597 -0.013824
C42   C     C_R   0.182887 0.187408 0.499465 -0.201440
C43   C     C_R   0.181025 0.178666 0.421675 0.041029
C44   C     C_R   0.241590 0.247505 0.422168 -0.003494
C45   C     C_3   0.313136 0.580104 0.308544 -0.493322
C46   C     C_R   0.312357 0.317083 0.501168 -0.141205
C47   C     C_R   0.118753 0.103472 0.342692 -0.219044
C48   C     C_R   0.110190 0.101185 0.265912 -0.264226
C49   C     C_R   0.164473 0.172631 0.265756 0.496607
C50   C     C_R   0.228560 0.245632 0.343156 -0.184404
C51   C     C_R   0.004910 0.619178 0.123254 1.014686
C52   C     C_R   0.123188 0.496806 0.120749 0.996084
C53   C     C_R   0.996846 0.383661 0.877583 0.906925
C54   C     C_R   0.885016 0.504325 0.888287 0.940598
C55   C     C_R   0.004679 0.884320 0.383216 0.964430
C56   C     C_3   0.215914 0.538863 0.282131 0.399429
C57   C     C_R   0.882750 0.877829 0.497344 0.968226
C58   C     C_R   0.999073 0.119911 0.616962 0.916426
C59   C     C_R   0.117808 0.118502 0.499364 0.843635
C60   C     C_R   0.172211 0.773586 0.266816 0.308193
C61   C     C_R   0.244170 0.855067 0.326835 0.241247
C62   C     C_R   0.247671 0.892554 0.403599 0.281452
C63   C     C_R   0.173617 0.898828 0.398097 0.285763
C64   C     C_R   0.090371 0.827359 0.326620 -0.156233
C65   C     C_R   0.089595 0.760741 0.261305 -0.127332
C66   C     C_R   0.009002 0.818616 0.319241 -0.068826
C67   C     C_3   0.190966 0.493769 0.187061 -0.236330
C68   C     C_R   0.929646 0.748706 0.247611 -0.172398
C69   C     C_R   0.928014 0.689084 0.178287 -0.151185
C70   C     C_R   0.007304 0.688793 0.189958 -0.041399
C71   C     C_R   0.849066 0.737781 0.241243 0.367154
C72   C     C_R   0.780381 0.707687 0.161923 0.250964
C73   C     C_R   0.775472 0.649580 0.090245 0.314157
C74   C     C_R   0.845716 0.633355 0.099867 0.393512
C75   C     C_R   0.002299 0.405680 0.724770 0.300867
C76   C     C_R   0.013592 0.412463 0.656935 0.278661
C77   C     C_R   0.975628 0.336051 0.584104 0.267936
C78   C     C_3   0.288281 0.533144 0.213512 0.428331
C79   C     C_R   0.991668 0.270574 0.593663 0.314442
C80   C     C_R   0.996263 0.262342 0.668850 -0.136221
C81   C     C_R   0.996653 0.329681 0.733703 -0.145734
C82   C     C_R   0.997329 0.189136 0.680518 -0.086452
C83   C     C_R   0.001777 0.185291 0.756366 -0.075794
C84   C     C_R   0.019318 0.259830 0.823456 -0.169587
C85   C     C_R   0.000133 0.321862 0.807990 -0.076675
C86   C     C_R   0.992254 0.111843 0.770502 0.435226
C87   C     C_R   0.015104 0.123895 0.854887 -0.451066
C88   C     C_R   0.049240 0.204210 0.922995 0.392856
C89   C     C_3   0.287340 0.453047 0.219480 0.487327
C90   C     C_R   0.061850 0.274100 0.908077 0.426954
Cu1   Cu    Cu3+1 0.500490 0.438210 0.438660 0.976661
Cu2   Cu    Cu3+1 0.499510 0.561790 0.561340 0.950264
Cu3   Cu    Cu3+1 0.942070 0.438200 0.003850 0.933607
Cu4   Cu    Cu3+1 0.065670 0.561760 0.003800 0.957331
Cu5   Cu    Cu3+1 0.062280 0.000030 0.562300 0.929970
Cu6   Cu    Cu3+1 0.937720 1.000000 0.437720 0.950092
H1    H     H_    0.680650 0.968130 0.496829 0.155083
H2    H     H_    0.808860 0.960364 0.542000 0.190669
H3    H     H_    0.992184 0.695729 0.583686 0.168237
H4    H     H_    0.599695 0.209560 0.537459 0.141592
H5    H     H_    0.364676 0.647034 0.355989 0.205056
H6    H     H_    0.840580 0.364072 0.764780 0.141755
H7    H     H_    0.739915 0.230557 0.633077 0.155312
H8    H     H_    0.441433 0.439788 0.667875 0.180499
H9    H     H_    0.297769 0.356780 0.786266 0.132448
H10   H     H_    0.187517 0.234578 0.654412 0.173670
H11   H     H_    0.075294 0.045926 0.338760 0.174714
H12   H     H_    0.059786 0.044600 0.206279 0.135122
H13   H     H_    0.266377 0.300941 0.339944 0.176992
H14   H     H_    0.011867 0.073330 0.871538 0.164365
H15   H     H_    0.141731 0.344221 0.146860 0.226906
O1    O     O_R   0.590580 0.537990 0.448200 -0.582600
O2    O     O_R   0.055380 0.642340 0.093300 -0.573168
O3    O     O_R   0.042560 0.447800 0.094700 -0.604685
O4    O     O_R   0.146930 0.552150 0.094670 -0.580884
O5    O     O_R   0.952370 0.357620 0.914350 -0.616234
O6    O     O_R   0.056740 0.461970 0.914310 -0.534606
O7    O     O_R   0.860810 0.447810 0.912980 -0.609265
O8    O     O_R   0.965190 0.552160 0.912950 -0.585410
O9    O     O_R   0.053330 0.909870 0.463140 -0.555187
O10   O     O_R   0.948140 0.909840 0.357940 -0.599661
O11   O     O_R   0.962430 0.909850 0.552620 -0.574160
O12   O     O_R   0.589760 0.642350 0.551790 -0.548142
O13   O     O_R   0.857240 0.909830 0.447420 -0.578595
O14   O     O_R   0.051860 0.090180 0.642080 -0.588701
O15   O     O_R   0.946670 0.090160 0.536880 -0.562890
O16   O     O_R   0.142760 0.090200 0.552610 -0.603066
O17   O     O_R   0.037570 0.090170 0.447410 -0.599318
O18   O     O_R   0.409540 0.447820 0.357340 -0.560086
O19   O     O_R   0.408720 0.552180 0.460940 -0.604894
O20   O     O_R   0.410240 0.357650 0.448210 -0.581123
O21   O     O_R   0.409420 0.462010 0.551800 -0.604138
O22   O     O_R   0.591280 0.447820 0.539060 -0.537773
O23   O     O_R   0.590460 0.552180 0.642660 -0.592854
O24   O     O_R   0.951000 0.537990 0.093340 -0.586723
O25   O     O_3   0.168844 0.576097 0.308842 -0.599706
C91   C     C_3   0.222142 0.647326 0.391811 0.086487
H16   H     H_    0.185100 0.681287 0.402870 0.157347
H17   H     H_    0.280274 0.694572 0.396912 0.120831
C92   C     C_3   0.246458 0.619876 0.461202 -0.332130
H18   H     H_    0.186971 0.574584 0.456034 0.233584
H19   H     H_    0.284628 0.586929 0.452948 0.259355
C93   C     C_3   0.301023 0.697176 0.550407 -1.002923
H20   H     H_    0.357414 0.746371 0.555095 0.249495
H21   H     H_    0.324968 0.676660 0.598447 0.263420
H22   H     H_    0.261900 0.726159 0.565335 0.270428
O26   O     O_3   0.953807 0.770883 0.482554 -0.582640
C94   C     C_3   0.030404 0.764564 0.498183 0.129897
H23   H     H_    0.048871 0.774139 0.450836 0.163588
H24   H     H_    0.020237 0.698542 0.484253 0.110741
C95   C     C_3   0.105172 0.834902 0.588120 -0.331135
H25   H     H_    0.122950 0.899411 0.592521 0.239128
H26   H     H_    0.086398 0.834853 0.637738 0.209525
C96   C     C_3   0.184231 0.822498 0.608820 -1.003594
H27   H     H_    0.169331 0.760543 0.610278 0.259461
H28   H     H_    0.238084 0.875723 0.672407 0.262325
H29   H     H_    0.204378 0.822836 0.560078 0.256911
O27   O     O_3   0.722534 0.542371 0.522555 -0.544730
C97   C     C_3   0.699444 0.464804 0.452892 -0.155769
H30   H     H_    0.734716 0.432430 0.476079 0.168315
H31   H     H_    0.708624 0.473815 0.400411 0.081615
H32   H     H_    0.630146 0.419107 0.423504 0.180974
O28   O     O_3   0.734778 0.679309 0.707831 -0.526019
C98   C     C_3   0.811241 0.741253 0.719545 -0.291336
H33   H     H_    0.852176 0.712158 0.709066 0.159127
H34   H     H_    0.849171 0.799392 0.783358 0.165182
H35   H     H_    0.793965 0.764663 0.672759 0.177699
O29   O     O_3   0.761124 0.789604 0.863334 -0.596952
C99   C     C_3   0.694502 0.776322 0.884871 0.053344
H36   H     H_    0.692944 0.838009 0.907779 0.155880
H37   H     H_    0.707307 0.760631 0.938398 0.158249
C100  C     C_3   0.606209 0.706295 0.807229 -0.296120
H38   H     H_    0.597190 0.718613 0.751881 0.241037
H39   H     H_    0.603260 0.642459 0.790093 0.232750
C101  C     C_3   0.532935 0.703593 0.826078 -0.932143
H40   H     H_    0.541016 0.691499 0.881444 0.266877
H41   H     H_    0.470395 0.650888 0.769488 0.263937
H42   H     H_    0.531760 0.765436 0.840306 0.246357
O30   O     O_3   0.870904 0.787459 0.010805 -0.560077
C102  C     C_3   0.918631 0.870215 0.022301 -0.291101
H43   H     H_    0.878433 0.902510 0.016231 0.197392
H44   H     H_    0.945835 0.870228 0.978220 0.130896
H45   H     H_    0.973869 0.909054 0.088100 0.155873
O31   O     O_3   0.930922 0.670545 0.982558 -0.533698
C103  C     C_3   0.006981 0.740457 0.001842 -0.229706
H46   H     H_    0.029391 0.796531 0.062803 0.177076
H47   H     H_    0.000411 0.760060 0.950941 0.094083
H48   H     H_    0.058708 0.722450 0.010911 0.177425
O32   O     O_3   0.543261 0.321034 0.563802 -0.580539
C104  C     C_3   0.492867 0.278575 0.593488 -0.385665
H49   H     H_    0.511209 0.323153 0.659408 0.169639
H50   H     H_    0.497163 0.219897 0.590928 0.165869
H51   H     H_    0.424331 0.256422 0.551085 0.195066
O33   O     O_3   0.151095 0.174464 0.190068 -0.631381
C105  C     C_3   0.182064 0.125276 0.148687 0.022042
H52   H     H_    0.142236 0.099330 0.078841 0.176142
H53   H     H_    0.175414 0.068436 0.159251 0.115645
C106  C     C_3   0.276017 0.182678 0.175889 -0.300629
H54   H     H_    0.281177 0.238455 0.164457 0.265781
H55   H     H_    0.317302 0.207570 0.245221 0.212011
C107  C     C_3   0.308703 0.133396 0.126107 -0.959706
H56   H     H_    0.303808 0.076987 0.136339 0.260768
H57   H     H_    0.377312 0.176276 0.148413 0.256400
H58   H     H_    0.270462 0.110955 0.056789 0.258138
O34   O     O_3   0.443080 0.487978 0.808474 -0.624789
C108  C     C_3   0.425295 0.515276 0.876343 0.043897
H59   H     H_    0.485260 0.573565 0.930243 0.170977
H60   H     H_    0.411974 0.467603 0.899899 0.117299
C109  C     C_3   0.355598 0.542894 0.855598 -0.389495
H61   H     H_    0.372144 0.589841 0.831788 0.231881
H62   H     H_    0.292056 0.486557 0.805651 0.215342
C110  C     C_3   0.347857 0.584151 0.934330 -0.913334
H63   H     H_    0.295809 0.601702 0.916924 0.258895
H64   H     H_    0.331683 0.538334 0.959426 0.254062
H65   H     H_    0.409328 0.643394 0.985021 0.253817
O35   O     O_3   0.323383 0.568137 0.169447 -0.607497
C111  C     C_3   0.414053 0.613968 0.218696 -0.348305
H66   H     H_    0.441053 0.575541 0.241247 0.198675
H67   H     H_    0.435468 0.675587 0.273734 0.210723
H68   H     H_    0.440825 0.629860 0.178301 0.181752
O36   O     O_3   0.702506 0.605993 0.010497 -0.552474
C112  C     C_3   0.630648 0.552142 0.012143 -0.315710
H69   H     H_    0.599613 0.588294 0.034713 0.193696
H70   H     H_    0.646987 0.521315 0.052433 0.118381
H71   H     H_    0.582675 0.499687 0.946138 0.195940
O37   O     O_3   0.182504 0.703359 0.227505 -0.611631
C113  C     C_3   0.262763 0.724035 0.228694 0.200940
H72   H     H_    0.271421 0.667330 0.216312 0.189107
H73   H     H_    0.319213 0.768740 0.293172 0.147500
C114  C     C_3   0.264691 0.748262 0.158302 -0.273904
H74   H     H_    0.217552 0.691527 0.094489 0.217032
H75   H     H_    0.245353 0.798725 0.160838 0.214676
C115  C     C_3   0.353788 0.779567 0.165628 -0.929616
H76   H     H_    0.402548 0.837228 0.228378 0.267480
H77   H     H_    0.352924 0.796968 0.114466 0.238730
H78   H     H_    0.372202 0.728079 0.158278 0.278878
O38   O     O_3   0.312728 0.892243 0.314100 -0.636953
C116  C     C_3   0.337281 0.979839 0.337230 0.070317
H79   H     H_    0.381653 0.020230 0.407187 0.187332
H80   H     H_    0.280253 0.990748 0.318916 0.123791
C117  C     C_3   0.385399 0.008231 0.291943 -0.372343
H81   H     H_    0.442277 0.997519 0.308829 0.216949
H82   H     H_    0.342062 0.969190 0.221688 0.219183
C118  C     C_3   0.415825 0.103372 0.317671 -0.915756
H83   H     H_    0.359969 0.115630 0.301926 0.261097
H84   H     H_    0.448917 0.121980 0.282551 0.254073
H85   H     H_    0.461714 0.143771 0.387314 0.267927
O39   O     O_3   0.326717 0.938952 0.477658 -0.595712
C119  C     C_3   0.352469 0.881624 0.497054 -0.363710
H86   H     H_    0.365150 0.845611 0.448019 0.188233
H87   H     H_    0.303703 0.836623 0.504682 0.150803
H88   H     H_    0.413512 0.919326 0.558773 0.196812
O40   O     O_3   0.179417 0.974973 0.451218 -0.618020
C120  C     C_3   0.263656 0.045950 0.510699 0.191127
H89   H     H_    0.261060 0.105850 0.522191 0.128560
H90   H     H_    0.308966 0.054404 0.485055 0.130275
C121  C     C_3   0.297567 0.047244 0.597662 -0.254678
H91   H     H_    0.258709 0.060635 0.627752 0.206097
H92   H     H_    0.290883 0.983716 0.590069 0.240648
C122  C     C_3   0.391693 0.116237 0.657807 -0.948193
H93   H     H_    0.432663 0.102897 0.630565 0.276416
H94   H     H_    0.414011 0.116442 0.720249 0.250601
H95   H     H_    0.398810 0.180716 0.668443 0.248518
O41   O     O_3   0.836415 0.754475 0.311283 -0.524814
C123  C     C_3   0.783948 0.674909 0.303256 -0.237998
H96   H     H_    0.824185 0.646611 0.326964 0.155553
H97   H     H_    0.730487 0.626533 0.237187 0.130083
H98   H     H_    0.751736 0.686097 0.341547 0.186936
O42   O     O_3   0.713269 0.724703 0.158399 -0.590759
C124  C     C_3   0.709811 0.778863 0.120609 0.068548
H99   H     H_    0.646453 0.777166 0.103343 0.149869
H100  H     H_    0.712151 0.755316 0.060118 0.169759
C125  C     C_3   0.781592 0.872329 0.182873 -0.306874
H101  H     H_    0.779029 0.894708 0.243357 0.235893
H102  H     H_    0.845495 0.876098 0.197570 0.225016
C126  C     C_3   0.772579 0.931868 0.144852 -0.971399
H103  H     H_    0.775798 0.910922 0.084690 0.257885
H104  H     H_    0.826027 0.998483 0.190854 0.261291
H105  H     H_    0.710318 0.931737 0.131530 0.255258
O43   O     O_3   0.833291 0.566146 0.030715 -0.528547
C127  C     C_3   0.770494 0.486495 0.014295 -0.177289
H106  H     H_    0.708783 0.462810 0.957189 0.179230
H107  H     H_    0.760235 0.488558 0.069524 0.075714
H108  H     H_    0.791099 0.437203 0.999108 0.187138
O44   O     O_3   0.076463 0.216458 0.005628 -0.609218
C128  C     C_3   0.005048 0.173376 0.014555 0.021813
H109  H     H_    0.031027 0.174308 0.077031 0.215190
H110  H     H_    0.964069 0.104286 0.965690 0.132058
C129  C     C_3   0.950135 0.218872 0.014551 -0.343359
H111  H     H_    0.991974 0.287923 0.062379 0.244366
H112  H     H_    0.918045 0.213868 0.950637 0.222458
C130  C     C_3   0.881163 0.179001 0.036240 -0.945338
H113  H     H_    0.837672 0.109818 0.988732 0.260552
H114  H     H_    0.842229 0.212750 0.035135 0.253961
H115  H     H_    0.911552 0.185379 0.101053 0.255709
O45   O     O_3   0.333385 0.410724 0.199419 -0.571461
C131  C     C_3   0.306189 0.374294 0.112046 -0.315467
H116  H     H_    0.330674 0.425381 0.095269 0.184399
H117  H     H_    0.235316 0.332840 0.073384 0.240022
H118  H     H_    0.335195 0.332385 0.097587 0.168944
O46   O     O_3   0.001659 0.472119 0.784411 -0.611397
C132  C     C_3   0.977367 0.527264 0.756531 0.195688
H119  H     H_    0.926038 0.530479 0.769753 0.137412
H120  H     H_    0.944920 0.503387 0.686655 0.166728
C133  C     C_3   0.053763 0.619011 0.807835 -0.286050
H121  H     H_    0.076511 0.641268 0.877055 0.204180
H122  H     H_    0.108540 0.620268 0.797147 0.238337
C134  C     C_3   0.028872 0.681808 0.784717 -0.935110
H123  H     H_    0.014786 0.666550 0.718389 0.291620
H124  H     H_    0.083318 0.748366 0.828229 0.241699
H125  H     H_    0.971581 0.678929 0.791208 0.253532
O47   O     O_3   0.052551 0.492418 0.661123 -0.639234
C135  C     C_3   0.100655 0.495893 0.617273 0.044546
H126  H     H_    0.121982 0.559592 0.619058 0.153659
H127  H     H_    0.061071 0.448348 0.548634 0.176471
C136  C     C_3   0.181700 0.489611 0.660892 -0.409680
H128  H     H_    0.223167 0.544875 0.726454 0.226081
H129  H     H_    0.164363 0.428858 0.665045 0.214352
C137  C     C_3   0.231877 0.492213 0.612155 -0.872563
H130  H     H_    0.193586 0.434281 0.548285 0.258600
H131  H     H_    0.293077 0.493736 0.648390 0.268847
H132  H     H_    0.247517 0.550702 0.604130 0.254032
O48   O     O_3   0.926955 0.327673 0.505703 -0.608952
C138  C     C_3   0.840946 0.297885 0.489410 -0.397192
H133  H     H_    0.835454 0.343991 0.538718 0.170959
H134  H     H_    0.813766 0.233270 0.485420 0.166866
H135  H     H_    0.801340 0.291717 0.426902 0.193741
O49   O     O_3   0.015480 0.224341 0.540450 -0.610792
C139  C     C_3   0.018587 0.244269 0.474319 0.184264
H136  H     H_    0.070160 0.235979 0.464198 0.144600
H137  H     H_    0.040951 0.312789 0.491380 0.134572
C140  C     C_3   0.933882 0.182451 0.389263 -0.260839
H138  H     H_    0.923620 0.115710 0.367309 0.218305
H139  H     H_    0.877848 0.181526 0.396881 0.234761
C141  C     C_3   0.935196 0.207403 0.320105 -0.972274
H140  H     H_    0.942705 0.273112 0.339147 0.266751
H141  H     H_    0.873600 0.161587 0.259446 0.254614
H142  H     H_    0.989125 0.205308 0.309189 0.260674
O50   O     O_3   0.955297 0.030655 0.700586 -0.619850
C142  C     C_3   0.949439 0.962294 0.720409 0.097954
H143  H     H_    0.903937 0.901370 0.661044 0.158403
H144  H     H_    0.917748 0.957834 0.760079 0.114461
C143  C     C_3   0.036484 0.962867 0.755519 -0.327057
H145  H     H_    0.058950 0.957316 0.707824 0.236241
H146  H     H_    0.086837 0.024066 0.814427 0.205702
C144  C     C_3   0.028666 0.888405 0.775262 -0.992444
H147  H     H_    0.009416 0.894387 0.825386 0.251371
H148  H     H_    0.091771 0.889317 0.798681 0.261032
H149  H     H_    0.980099 0.826037 0.716843 0.265575
O51   O     O_3   0.118474 0.356230 0.976288 -0.580101
C145  C     C_3   0.186449 0.396547 0.961854 -0.347867
H150  H     H_    0.165108 0.410008 0.907607 0.187613
H151  H     H_    0.218993 0.357387 0.950392 0.128055
H152  H     H_    0.234142 0.459849 0.018378 0.238189
O52   O     O_3   0.185211 0.423398 0.334202 -0.590822
C146  C     C_3   0.094569 0.376136 0.288110 -0.298732
H153  H     H_    0.072469 0.314970 0.232065 0.177236
H154  H     H_    0.065071 0.413952 0.267661 0.195555
H155  H     H_    0.071500 0.359482 0.330413 0.179571
O53   O     O_3   0.879224 0.557184 0.568737 -0.616886
C147  C     C_3   0.925522 0.528200 0.531572 0.052738
H156  H     H_    0.926592 0.474519 0.543612 0.233610
H157  H     H_    0.994074 0.577906 0.564449 0.142342
C148  C     C_3   0.883399 0.492218 0.433803 -0.398840
H158  H     H_    0.819690 0.434359 0.402394 0.204549
H159  H     H_    0.873761 0.540470 0.415237 0.210755
C149  C     C_3   0.939428 0.466700 0.400202 -0.909323
H160  H     H_    0.004222 0.523074 0.430935 0.246311
H161  H     H_    0.908642 0.442677 0.330124 0.253154
H162  H     H_    0.946536 0.414737 0.413048 0.278644
O54   O     O_3   0.530688 0.710495 0.476463 -0.617239
C150  C     C_3   0.510593 0.753571 0.538113 0.108520
H163  H     H_    0.464429 0.703666 0.543314 0.193818
H164  H     H_    0.474982 0.785826 0.515454 0.160222
C151  C     C_3   0.588080 0.816951 0.629253 -0.397562
H165  H     H_    0.625472 0.785860 0.651465 0.260532
H166  H     H_    0.631987 0.874207 0.630077 0.208174
C152  C     C_3   0.557775 0.848021 0.692468 -0.938426
H167  H     H_    0.522494 0.882132 0.673450 0.254446
H168  H     H_    0.614398 0.893054 0.757283 0.266592
H169  H     H_    0.514715 0.792762 0.694858 0.256036
O55   O     O_3   0.516922 0.831267 0.427283 -0.612528
C153  C     C_3   0.519397 0.904080 0.418362 -0.405127
H170  H     H_    0.548184 0.914897 0.377586 0.172587
H171  H     H_    0.553011 0.961862 0.481833 0.177174
H172  H     H_    0.452793 0.892512 0.385963 0.236310

loop_
_geom_bond_atom_site_label_1
_geom_bond_atom_site_label_2
_ccdc_geom_bond_type
C24   O31   S    
C107  H57   S    
C94   C95   S    
C101  H41   S    
O46   C132  S    
C102  H43   S    
C127  H108  S    
C12   O19   A    
C58   C82   S    
C5    C6    A    
Cu4   O6    S    
Cu1   O20   S    
C93   H20   S    
C125  C126  S    
C150  H163  S    
C120  H90   S    
C45   C56   S    
C100  H39   S    
C138  H133  S    
C97   H31   S    
C45   C78   S    
C1    C15   S    
C4    C12   S    
C134  H125  S    
C105  C106  S    
C23   C46   S    
C21   C22   A    
C107  H58   S    
C102  H44   S    
C77   C79   A    
C78   C89   S    
C147  C148  S    
C116  H80   S    
C2    H15   S    
C119  H87   S    
O48   C138  S    
C92   H18   S    
Cu2   O12   S    
C141  H141  S    
C108  H59   S    
C72   C73   A    
C20   O28   S    
C146  H155  S    
C136  H128  S    
C64   C66   A    
Cu2   O19   S    
C75   C76   A    
C37   C38   A    
C91   H17   S    
C101  H40   S    
C151  H165  S    
C69   C74   A    
C76   C77   A    
C114  H75   S    
C96   H27   S    
O30   C102  S    
Cu5   O11   S    
O29   C99   S    
C60   C65   A    
O27   C97   S    
C124  H100  S    
C153  H170  S    
C39   C40   A    
C4    C89   S    
C52   O4    A    
C44   C50   A    
C71   O41   S    
C28   C29   A    
C7    H1    S    
C128  C129  S    
C14   C19   A    
C92   H19   S    
C22   O30   S    
C103  H48   S    
Cu4   O4    S    
C150  C151  S    
C6    C7    A    
Cu1   O18   S    
C29   C35   A    
C112  H71   S    
C118  H85   S    
C73   O36   S    
C130  H114  S    
C111  H66   S    
O43   C127  S    
C64   C65   A    
C128  H110  S    
C11   C13   A    
C138  H135  S    
C90   O51   S    
C149  H162  S    
C60   O37   S    
Cu3   O3    S    
C95   H26   S    
C69   C70   A    
C141  H140  S    
C131  H116  S    
C83   C86   A    
C110  H63   S    
C6    O55   S    
C53   C85   S    
C99   C100  S    
C121  H92   S    
C152  H167  S    
C43   C47   A    
C94   H23   S    
C55   O10   A    
C104  H49   S    
C145  H150  S    
C92   C93   S    
C129  C130  S    
C103  H46   S    
C145  H152  S    
C7    C8    A    
C87   H14   S    
C48   H12   S    
C118  H83   S    
C74   O43   S    
C119  H86   S    
C29   C30   A    
C21   O29   S    
Cu6   O10   S    
C136  C137  S    
C36   C37   A    
Cu2   O21   S    
C94   H24   S    
C1    O1    A    
C38   C39   A    
C135  H127  S    
O51   C145  S    
C34   O23   A    
C59   O16   A    
C65   C70   A    
O31   C103  S    
C117  H81   S    
C3    C56   S    
C8    H2    S    
C62   O39   S    
C31   C32   A    
O41   C123  S    
C133  H122  S    
C75   O46   S    
C9    C10   A    
C40   C42   A    
C54   O8    A    
C131  H117  S    
C114  H74   S    
C84   C90   A    
O53   C147  S    
C56   O25   S    
Cu4   O2    S    
C134  H124  S    
C109  H61   S    
C4    C45   S    
C132  H120  S    
C30   C34   S    
C23   O20   A    
C140  H138  S    
C80   C82   A    
Cu1   Cu2   S    
C16   C17   A    
C120  C121  S    
C25   C26   A    
C105  H52   S    
Cu3   O5    S    
Cu1   O1    S    
O36   C112  S    
C9    C11   A    
C144  H148  S    
C83   C84   A    
C110  H65   S    
C62   C63   A    
C146  H154  S    
C17   C18   A    
C77   O48   S    
Cu6   O15   S    
C20   C21   A    
C112  H70   S    
C123  H97   S    
C52   C67   S    
C113  H73   S    
C58   O15   A    
C143  H146  S    
C72   O42   S    
C3    C4    S    
C144  H149  S    
C99   H37   S    
C151  C152  S    
O52   C146  S    
C119  H88   S    
C19   O27   S    
C37   O34   S    
Cu2   O23   S    
O49   C139  S    
Cu3   O24   S    
C42   C59   S    
C106  H55   S    
C100  C101  S    
C89   O45   S    
C26   C30   A    
C52   O3    A    
C127  H107  S    
C148  C149  S    
C117  C118  S    
C38   H9    S    
C153  H172  S    
C71   C72   A    
C88   O44   S    
C33   C35   A    
C150  H164  S    
C61   C62   A    
C115  H78   S    
O28   C98   S    
C63   C64   A    
C126  H103  S    
C138  H134  S    
C49   C50   A    
C13   C16   A    
C14   C15   A    
C81   C85   A    
C105  H53   S    
C39   H10   S    
C87   C88   A    
O55   C153  S    
C73   C74   A    
C140  C141  S    
C137  H131  S    
C18   O53   S    
C134  H123  S    
C111  H68   S    
C147  H157  S    
C116  C117  S    
C16   O26   S    
C98   H33   S    
C142  H144  S    
C108  H60   S    
C49   O33   S    
O54   C150  S    
C109  C110  S    
Cu6   O17   S    
C136  H129  S    
C18   C19   A    
C99   H36   S    
C104  H51   S    
C57   O11   A    
C76   O47   S    
O26   C94   S    
C44   C46   A    
C68   C69   A    
C95   H25   S    
C142  C143  S    
C24   C25   A    
C96   H28   S    
O33   C105  S    
C35   O32   S    
O42   C124  S    
C124  C125  S    
C36   C41   A    
C122  H95   S    
C91   C92   S    
C101  H42   S    
C55   O9    A    
C12   O18   A    
C31   H6    S    
C84   C85   A    
C96   H29   S    
C93   H22   S    
C86   C87   A    
C122  H93   S    
C82   C83   A    
C50   H13   S    
C60   C61   A    
C2    C89   S    
C139  H136  S    
C1    O12   A    
O44   C128  S    
O50   C142  S    
C126  H105  S    
O47   C135  S    
C32   H7    S    
C149  H161  S    
C51   O2    A    
C142  H143  S    
C17   H3    S    
C45   H5    S    
C48   C49   A    
C88   C90   A    
C22   C24   A    
C111  H67   S    
C42   C43   A    
C152  H168  S    
C55   C66   S    
O39   C119  S    
C147  H156  S    
C116  H79   S    
C104  H50   S    
C28   C31   A    
C141  H142  S    
C145  H151  S    
Cu5   O9    S    
C32   C33   A    
C121  C122  S    
C152  H169  S    
C57   O13   A    
C135  H126  S    
O40   C120  S    
C68   C71   A    
C148  H159  S    
O32   C104  S    
C103  H47   S    
C137  H130  S    
Cu5   O16   S    
C133  H121  S    
C124  H99   S    
O25   C91   S    
C11   C57   S    
C66   C68   A    
C143  H145  S    
Cu3   Cu4   S    
C107  H56   S    
Cu5   Cu6   S    
C43   C44   A    
C27   C54   S    
O34   C108  S    
C148  H158  S    
C132  C133  S    
C120  H89   S    
C127  H106  S    
C130  H113  S    
C140  H139  S    
C121  H91   S    
C10   C15   A    
C128  H109  S    
C53   O6    A    
C114  C115  S    
C95   C96   S    
C113  H72   S    
C125  H102  S    
C51   O24   A    
C97   H30   S    
C118  H84   S    
C8    C9    A    
C41   C46   A    
C106  H54   S    
C51   C70   S    
C123  H96   S    
C53   O5    A    
C86   O50   S    
C137  H132  S    
C67   C78   S    
C129  H112  S    
C151  H166  S    
C97   H32   S    
Cu6   O13   S    
C3    O52   S    
O35   C111  S    
C122  H94   S    
C2    C67   S    
C78   O35   S    
C75   C81   A    
C135  C136  S    
C131  H118  S    
C34   O22   A    
C59   O17   A    
C117  H82   S    
C153  H171  S    
C149  H160  S    
Cu4   O8    S    
Cu5   O14   S    
C47   C48   A    
Cu1   O22   S    
C133  C134  S    
C106  C107  S    
C125  H101  S    
C139  H137  S    
C115  H77   S    
C40   C41   A    
C126  H104  S    
O37   C113  S    
C47   H11   S    
C54   O7    A    
C139  C140  S    
Cu3   O7    S    
C100  H38   S    
C129  H111  S    
C115  H76   S    
C93   H21   S    
C132  H119  S    
O45   C131  S    
C130  H115  S    
C110  H64   S    
C80   C81   A    
C102  H45   S    
C25   C27   A    
C56   C67   S    
C91   H16   S    
C36   H8    S    
C33   H4    S    
C61   O38   S    
C98   H34   S    
C2    C3    S    
C5    C10   A    
C5    O54   S    
C108  C109  S    
C144  H147  S    
C63   O40   S    
C20   C26   A    
C146  H153  S    
C109  H62   S    
C23   O21   A    
C98   H35   S    
C112  H69   S    
C123  H98   S    
O38   C116  S    
C79   C80   A    
C113  C114  S    
C58   O14   A    
C143  C144  S    
C27   C28   A    
C79   O49   S    
C13   C14   A    
