data_mof_unit_62442.cif
_audit_creation_date              2012-12-10T18:39:53-0500
_audit_creation_method            fapswitch 2.2
_symmetry_space_group_name_H-M    P1
_symmetry_Int_Tables_number       1
_space_group_crystal_system       triclinic
_cell_length_a                    15.081735
_cell_length_b                    13.947968
_cell_length_c                    23.570109
_cell_angle_alpha                 89.998079
_cell_angle_beta                  91.330037
_cell_angle_gamma                 89.998884
_cell_volume                      4956.86184136

loop_
_atom_site_label
_atom_site_type_symbol
_atom_type_description
_atom_site_fract_x
_atom_site_fract_y
_atom_site_fract_z
_atom_type_partial_charge
C1    C     C_R   0.330117 0.499893 0.499894 0.922915
C2    C     C_R   0.669881 0.499892 0.500108 0.922986
C3    C     C_R   0.529913 0.582209 0.239186 0.029567
C4    C     C_R   0.470108 0.582203 0.760814 0.029555
C5    C     C_R   0.530285 0.581688 0.298659 0.486621
C6    C     C_R   0.469734 0.581686 0.701341 0.486650
C7    C     C_R   0.501840 0.499908 0.328326 -0.410403
C8    C     C_R   0.498161 0.499900 0.671674 -0.410406
C9    C     C_R   0.474963 0.417984 0.297455 0.463025
C10   C     C_R   0.525021 0.417965 0.702546 0.463013
C11   C     C_R   0.475770 0.418262 0.238340 0.588321
C12   C     C_R   0.524217 0.418240 0.761661 0.588324
C13   C     C_R   0.502692 0.500153 0.209018 0.041136
C14   C     C_R   0.497313 0.500138 0.790982 0.041147
C15   C     C_R   0.092075 0.549411 0.459066 0.606493
C16   C     C_R   0.907912 0.549292 0.540998 0.606526
C17   C     C_R   0.903480 0.442489 0.459552 0.609645
C18   C     C_R   0.096518 0.442382 0.540412 0.609634
C19   C     C_R   0.184721 0.551910 0.459135 -0.016252
C20   C     C_R   0.815265 0.551791 0.540925 -0.016318
C21   C     C_R   0.810774 0.443662 0.459376 -0.030392
C22   C     C_R   0.189224 0.443556 0.540585 -0.030392
C23   C     C_R   0.233404 0.499047 0.500078 -0.162636
C24   C     C_R   0.766591 0.499043 0.499929 -0.162597
C25   C     C_R   0.048325 0.495196 0.499751 -0.080547
C26   C     C_R   0.951668 0.495191 0.500264 -0.080554
C27   C     C_R   0.500496 0.499979 0.390960 0.936392
C28   C     C_R   0.499504 0.499977 0.609040 0.936372
C29   C     C_R   0.572663 0.107551 0.521784 0.504552
C30   C     C_R   0.463389 0.892428 0.454290 0.504464
C31   C     C_R   0.427341 0.107554 0.478219 0.504537
C32   C     C_R   0.536621 0.892418 0.545710 0.504468
C33   C     C_R   0.569132 0.208698 0.524750 0.180779
C34   C     C_R   0.458958 0.791259 0.456650 0.188139
C35   C     C_R   0.430869 0.208701 0.475251 0.180785
C36   C     C_R   0.541049 0.791249 0.543348 0.188179
C37   C     C_R   0.500003 0.054495 0.500001 -0.071926
C38   C     C_R   0.500004 0.945487 0.500001 -0.082442
C39   C     C_R   0.577220 0.501472 0.880954 0.694259
C40   C     C_R   0.422786 0.501490 0.119046 0.694269
C41   C     C_R   0.418974 0.497466 0.879321 0.684612
C42   C     C_R   0.581032 0.497479 0.120679 0.684605
C43   C     C_R   0.417417 0.498635 0.939217 -0.075833
C44   C     C_R   0.582588 0.498643 0.060783 -0.075832
C45   C     C_R   0.499307 0.499454 0.969947 -0.127473
C46   C     C_R   0.500699 0.499458 0.030053 -0.127476
C47   C     C_R   0.579913 0.500265 0.940613 -0.162400
C48   C     C_R   0.420092 0.500274 0.059387 -0.162403
C49   C     C_R   0.337123 0.498948 0.969200 0.052964
C50   C     C_R   0.662882 0.498951 0.030800 0.052966
C51   C     C_R   0.339027 0.500098 0.028596 0.620058
C52   C     C_R   0.660979 0.500092 0.971404 0.620054
Cu1   Cu    Cu3+1 0.500000 0.596430 0.500000 1.070446
Cu2   Cu    Cu3+1 0.500000 0.403570 0.500000 1.065785
N1    N     N_R   0.497825 0.499745 0.851929 -0.429380
N2    N     N_R   0.502180 0.499763 0.148071 -0.429385
N3    N     N_R   0.500000 0.258690 0.500000 -0.214114
N4    N     N_R   0.500000 0.741310 0.500000 -0.214671
O1    O     O_R   0.371460 0.581430 0.500000 -0.553151
O2    O     O_R   0.628540 0.418570 0.500000 -0.560030
O3    O     O_R   0.628540 0.581430 0.500000 -0.553177
O4    O     O_R   0.371460 0.418570 0.500000 -0.559999
O5    O     O_R   0.499970 0.581450 0.417880 -0.519334
O6    O     O_R   0.500030 0.418550 0.582120 -0.521384
O7    O     O_R   0.500030 0.581450 0.582120 -0.519316
O8    O     O_R   0.499970 0.418550 0.417880 -0.521383
O9    O     O_2   0.653147 0.504803 0.851832 -0.402736
O10   O     O_2   0.346858 0.504827 0.148168 -0.402722
O11   O     O_2   0.342757 0.493623 0.848299 -0.464299
O12   O     O_2   0.657248 0.493636 0.151702 -0.464308
N5    N     N_3   0.252773 0.498763 0.939803 -0.456314
H1    H     H_    0.217366 0.438335 0.952567 0.278140
H2    H     H_    0.217665 0.559803 0.951898 0.271239
N6    N     N_3   0.747232 0.498770 0.060197 -0.456315
H3    H     H_    0.782647 0.438346 0.047434 0.278144
H4    H     H_    0.782334 0.559815 0.048101 0.271232
N7    N     N_3   0.638527 0.258732 0.554554 -0.445665
H5    H     H_    0.698547 0.242732 0.535319 0.248098
H6    H     H_    0.642007 0.232892 0.596180 0.299265
N8    N     N_3   0.409719 0.741170 0.413479 -0.456298
H7    H     H_    0.344711 0.767068 0.413345 0.238429
H8    H     H_    0.436443 0.758387 0.374255 0.293408
N9    N     N_3   0.361471 0.258737 0.445448 -0.445645
H9    H     H_    0.301453 0.242744 0.464688 0.248072
H10   H     H_    0.357984 0.232894 0.403824 0.299274
N10   N     N_3   0.590304 0.741150 0.586512 -0.456293
H11   H     H_    0.655318 0.767026 0.586625 0.238397
H12   H     H_    0.563610 0.758379 0.625742 0.293416
F1    F     F_    0.260443 0.500598 0.055708 -0.590739
F2    F     F_    0.739563 0.500589 0.944292 -0.590742
N11   N     N_3   0.556754 0.666096 0.209030 -0.501111
H13   H     H_    0.621855 0.682585 0.221748 0.288716
H14   H     H_    0.516069 0.722961 0.220996 0.270714
N12   N     N_3   0.443284 0.666096 0.790969 -0.501121
H15   H     H_    0.378188 0.682607 0.778248 0.288716
H16   H     H_    0.483984 0.722948 0.779005 0.270717
F3    F     F_    0.560403 0.660404 0.327024 -0.630440
F4    F     F_    0.439633 0.660414 0.672975 -0.630430
F5    F     F_    0.446649 0.337828 0.324215 -0.581698
F6    F     F_    0.553316 0.337803 0.675787 -0.581699
F7    F     F_    0.450124 0.338561 0.209276 -0.557600
F8    F     F_    0.549847 0.338531 0.790727 -0.557604
F9    F     F_    0.044695 0.600368 0.419671 -0.609215
F10   F     F_    0.955286 0.600140 0.580443 -0.609205
F11   F     F_    0.946559 0.389977 0.420205 -0.608129
F12   F     F_    0.053444 0.389761 0.579712 -0.608129
N13   N     N_3   0.229451 0.606010 0.416783 -0.539412
H17   H     H_    0.210265 0.579097 0.376959 0.275631
H18   H     H_    0.207609 0.677002 0.419106 0.272968
N14   N     N_3   0.770525 0.605774 0.583323 -0.539465
H19   H     H_    0.792364 0.676774 0.581067 0.272960
H20   H     H_    0.789706 0.578753 0.623123 0.275655
N15   N     N_3   0.761275 0.390371 0.417372 -0.530318
H21   H     H_    0.779784 0.414225 0.377293 0.278144
H22   H     H_    0.779074 0.318164 0.421153 0.275840
N16   N     N_3   0.238725 0.390150 0.582539 -0.530246
H23   H     H_    0.220936 0.317951 0.578688 0.275806
H24   H     H_    0.220212 0.413885 0.622641 0.278145
F13   F     F_    0.648291 0.062560 0.539336 -0.582395
F14   F     F_    0.433183 0.937430 0.406547 -0.575534
F15   F     F_    0.351714 0.062565 0.460668 -0.582411
F16   F     F_    0.566834 0.937410 0.593453 -0.575523

loop_
_geom_bond_atom_site_label_1
_geom_bond_atom_site_label_2
_ccdc_geom_bond_type
N13   H18   S    
C52   F2    S    
C49   N5    S    
C1    O4    A    
Cu1   O1    S    
Cu2   O2    S    
N7    H5    S    
C15   C19   A    
C29   F13   S    
N6    H4    S    
C17   C26   A    
C6    F4    S    
C39   C47   A    
C36   N4    A    
C1    O1    A    
N10   H12   S    
C15   C25   A    
C11   C13   A    
C29   C33   A    
C42   O12   S    
C7    C27   S    
N16   H23   S    
C30   C38   A    
C3    N11   S    
N14   H19   S    
C41   N1    A    
C34   N8    S    
Cu1   O3    S    
C16   F10   S    
C48   C51   A    
C39   N1    A    
C20   C24   A    
C49   C51   A    
C50   C52   A    
N13   H17   S    
C32   C38   A    
Cu1   O7    S    
C3    C13   A    
C2    O3    A    
C13   N2    S    
C42   N2    A    
C45   C47   A    
C14   N1    S    
C9    F5    S    
C40   N2    A    
C41   C43   A    
C18   C25   A    
C42   C44   A    
C44   C46   A    
C7    C9    A    
N7    H6    S    
C16   C26   A    
C46   C48   A    
N6    H3    S    
C30   C34   A    
C32   F16   S    
C31   F15   S    
N8    H8    S    
N11   H13   S    
C5    C7    A    
C35   N9    S    
C19   C23   A    
C43   C49   A    
C6    C8    A    
Cu2   O4    S    
C36   N10   S    
C25   C26   S    
Cu1   Cu2   S    
C17   C21   A    
C31   C37   A    
C10   F6    S    
C18   F12   S    
C12   F8    S    
C37   C38   S    
C17   F11   S    
N11   H14   S    
C43   C45   A    
N9    H9    S    
C16   C20   A    
C11   F7    S    
N12   H16   S    
C9    C11   A    
C50   N6    S    
C10   C12   A    
C20   N14   S    
C28   O6    A    
C21   N15   S    
N9    H10   S    
C5    F3    S    
C1    C23   S    
C2    C24   S    
C8    C28   S    
C31   C35   A    
C4    C6    A    
C29   C37   A    
C32   C36   A    
C41   O11   S    
N15   H21   S    
C44   C50   A    
C40   C48   A    
C33   N3    A    
N10   H11   S    
C39   O9    S    
C12   C14   A    
N8    H7    S    
C3    C5    A    
Cu1   N4    S    
C47   C52   A    
Cu2   O8    S    
C35   N3    A    
C18   C22   A    
C28   O7    A    
N5    H1    S    
C27   O8    A    
C51   F1    S    
Cu1   O5    S    
C33   N7    S    
C4    N12   S    
C30   F14   S    
C22   N16   S    
N16   H24   S    
C2    O2    A    
C4    C14   A    
N12   H15   S    
N14   H20   S    
C45   C46   A    
Cu2   O6    S    
C8    C10   A    
C40   O10   S    
C21   C24   A    
N5    H2    S    
C34   N4    A    
C22   C23   A    
C27   O5    A    
C15   F9    S    
N15   H22   S    
Cu2   N3    S    
C19   N13   S    
