data_mof_unit_59750.cif
_audit_creation_date              2012-12-11T14:52:50-0500
_audit_creation_method            fapswitch 2.2
_symmetry_space_group_name_H-M    P1
_symmetry_Int_Tables_number       1
_space_group_crystal_system       triclinic
_cell_length_a                    8.184501
_cell_length_b                    15.160745
_cell_length_c                    27.046394
_cell_angle_alpha                 97.383166
_cell_angle_beta                  92.222591
_cell_angle_gamma                 80.591086
_cell_volume                      3282.85985781

loop_
_atom_site_label
_atom_site_type_symbol
_atom_type_description
_atom_site_fract_x
_atom_site_fract_y
_atom_site_fract_z
_atom_type_partial_charge
Ba1   Ba    Ba6+2 0.860900 0.457020 0.523210 1.637973
Ba2   Ba    Ba6+2 0.328940 0.542910 0.476780 1.629736
C1    C     C_3   0.711079 0.138599 0.655064 -0.363300
C2    C     C_R   0.898942 0.569971 0.178689 0.586398
C3    C     C_2   0.728519 0.519463 0.269119 -0.069398
C4    C     C_3   0.199037 0.250407 0.656455 0.288146
C5    C     C_3   0.694296 0.515467 0.323171 -0.073719
C6    C     C_1   0.989181 0.470053 0.337040 0.060881
C7    C     C_2   0.018473 0.450231 0.287175 -0.026263
C8    C     C_2   0.881353 0.486621 0.250716 0.213453
C9    C     C_R   0.977037 0.492443 0.096124 -0.077772
C10   C     C_R   0.974726 0.409906 0.114541 -0.028837
C11   C     C_R   0.022422 0.329475 0.083042 -0.063394
C12   C     C_3   0.700658 0.228927 0.635426 0.339415
C13   C     C_R   0.931272 0.573161 0.127871 -0.029338
C14   C     C_2   0.851453 0.521956 0.353691 -0.270484
C15   C     C_2   0.353588 0.480297 0.641549 -0.280433
C16   C     C_3   0.179283 0.224235 0.707984 -0.352815
C17   C     C_R   0.142394 0.415402 0.966968 0.019965
C18   C     C_R   0.037195 0.578104 0.974106 0.019490
C19   C     C_R   0.113500 0.497605 0.945638 0.051270
C20   C     C_R   0.233221 0.339061 0.939087 -0.100207
C21   C     C_R   0.288229 0.342731 0.891300 -0.060725
C22   C     C_R   0.251093 0.421917 0.868514 -0.030443
C23   C     C_3   0.476959 0.684045 0.629189 0.300575
C24   C     C_R   0.161512 0.499257 0.895437 -0.078274
C25   C     C_R   0.120980 0.578357 0.872325 -0.034669
C26   C     C_R   0.165450 0.578086 0.822099 0.590721
C27   C     C_R   0.302419 0.425275 0.819468 0.581302
C28   C     C_3   0.225534 0.268892 0.418506 0.302980
C29   C     C_2   0.458805 0.484351 0.729520 -0.068820
C30   C     C_3   0.502114 0.488784 0.675691 -0.052362
C31   C     C_1   0.206666 0.519801 0.657380 0.041602
C32   C     C_2   0.165917 0.522301 0.704825 -0.102115
C33   C     C_2   0.298237 0.502151 0.743968 0.205954
C34   C     C_3   0.440314 0.720351 0.683214 -0.366968
C35   C     C_R   0.082236 0.412552 0.015527 0.019748
C36   C     C_R   0.021066 0.494228 0.045593 0.049684
C37   C     C_R   0.003279 0.577567 0.025552 0.019666
C38   C     C_R   0.078633 0.330586 0.035105 -0.100050
C39   C     C_R   0.920650 0.655287 0.108176 -0.065578
C40   C     C_3   0.255252 0.167357 0.404728 -0.396510
C41   C     C_R   0.996863 0.656259 0.949756 -0.101475
C42   C     C_R   0.036080 0.655928 0.899915 -0.061174
C43   C     C_R   0.953483 0.657533 0.058115 -0.100216
C44   C     C_R   0.755632 0.767704 0.480872 -0.281275
C45   C     C_3   0.016067 0.743531 0.341168 0.302802
C46   C     C_R   0.844329 0.827249 0.463116 0.017545
C47   C     C_R   0.784777 0.920207 0.469673 -0.131246
C48   C     C_R   0.635564 0.954982 0.495822 0.012955
C49   C     C_R   0.553682 0.891797 0.515442 -0.108377
C50   C     C_R   0.613835 0.799695 0.507938 0.042769
C51   C     C_R   0.417873 0.087903 0.529739 -0.132152
C52   C     C_3   0.970776 0.732516 0.583602 0.306936
C53   C     C_R   0.354826 0.179755 0.536775 0.009321
C54   C     C_R   0.584743 0.212311 0.493687 0.080069
C55   C     C_R   0.649527 0.119961 0.485928 -0.114012
C56   C     C_3   0.075178 0.755084 0.289792 -0.149874
C57   C     C_R   0.568889 0.055143 0.504515 0.002785
C58   C     C_R   0.441221 0.241761 0.520499 -0.286699
C59   C     C_3   0.943049 0.834192 0.597861 -0.380901
C60   C     C_3   0.712926 0.327905 0.371095 0.301086
C61   C     C_3   0.759094 0.285329 0.318338 -0.396447
C62   C     C_3   0.967638 0.831503 0.265721 -0.198881
C63   C     C_3   0.977510 0.924957 0.293623 -0.379813
C64   C     C_3   0.141558 0.366587 0.267059 -0.179233
C65   C     C_3   0.326407 0.369015 0.277939 -0.378068
C66   C     C_3   0.512968 0.772263 0.367455 0.342315
C67   C     C_3   0.508572 0.863332 0.349464 -0.384197
C68   C     C_R   0.924882 0.409688 0.164080 0.566462
H1    H     H_    0.818089 0.229785 0.616615 0.111296
H2    H     H_    0.820789 0.355012 0.389360 0.019522
H3    H     H_    0.605980 0.382929 0.369743 0.027857
H4    H     H_    0.740120 0.083021 0.624040 0.080490
H5    H     H_    0.873413 0.234734 0.319462 0.130329
H6    H     H_    0.780964 0.336731 0.295006 0.079215
H7    H     H_    0.657564 0.251141 0.300689 0.125856
H8    H     H_    0.596515 0.235437 0.608102 -0.025025
H9    H     H_    0.590693 0.133443 0.671248 0.117728
H10   H     H_    0.363157 0.662739 0.611610 0.027801
H11   H     H_    0.577811 0.625348 0.627683 0.031686
H12   H     H_    0.347534 0.148489 0.374884 0.123597
H13   H     H_    0.347006 0.782628 0.685020 0.139956
H14   H     H_    0.389547 0.670143 0.701992 0.076693
H15   H     H_    0.554977 0.736119 0.703077 0.123338
H16   H     H_    0.810335 0.131614 0.684212 0.136198
H17   H     H_    0.234687 0.270311 0.736184 0.145410
H18   H     H_    0.065559 0.673626 0.348011 0.066059
H19   H     H_    0.878869 0.752530 0.341620 -0.014877
H20   H     H_    0.206140 0.766330 0.292199 0.138947
H21   H     H_    0.073491 0.691021 0.265095 0.116121
H22   H     H_    0.626913 0.758330 0.390236 -0.035450
H23   H     H_    0.301384 0.132679 0.437174 0.070472
H24   H     H_    0.402197 0.775815 0.390303 0.107571
H25   H     H_    0.622722 0.863711 0.328886 0.112284
H26   H     H_    0.500157 0.916587 0.381935 0.079952
H27   H     H_    0.138151 0.321373 0.655953 0.075704
H28   H     H_    0.400108 0.877772 0.324334 0.124842
H29   H     H_    0.020883 0.264850 0.096012 0.116969
H30   H     H_    0.557849 0.472439 0.756907 0.102406
H31   H     H_    0.358915 0.282421 0.871887 0.120269
H32   H     H_    0.268844 0.276014 0.954129 0.070077
H33   H     H_    0.113542 0.265954 0.013279 0.069962
H34   H     H_    0.138189 0.144318 0.391387 0.126056
H35   H     H_    0.627716 0.542996 0.244338 0.096246
H36   H     H_    0.886039 0.718680 0.131603 0.111303
H37   H     H_    0.929971 0.718342 0.968013 0.069508
H38   H     H_    0.333396 0.244644 0.649169 -0.010084
H39   H     H_    0.000657 0.717518 0.883086 0.121196
H40   H     H_    0.037250 0.539211 0.715615 0.120427
H41   H     H_    0.944625 0.723427 0.046233 0.068190
H42   H     H_    0.856256 0.576860 0.383998 0.051735
H43   H     H_    0.367469 0.443316 0.604405 0.071864
H44   H     H_    0.341859 0.044370 0.542657 0.078206
H45   H     H_    0.852302 0.710300 0.571640 0.003739
H46   H     H_    0.859430 0.963152 0.455387 0.073029
H47   H     H_    0.759240 0.100739 0.463854 0.080694
H48   H     H_    0.446420 0.911446 0.538405 0.071931
H49   H     H_    0.390093 0.312738 0.525345 0.067456
H50   H     H_    0.045849 0.229093 0.716070 0.134137
H51   H     H_    0.802788 0.696228 0.476453 0.063370
H52   H     H_    0.242545 0.154266 0.710285 0.119938
H53   H     H_    0.343284 0.292001 0.429688 0.009687
H54   H     H_    0.138131 0.286183 0.449725 0.078532
H55   H     H_    0.906414 0.935828 0.328434 0.147797
H56   H     H_    0.059044 0.715210 0.552501 0.074105
H57   H     H_    0.108099 0.933219 0.302636 0.140739
H58   H     H_    0.922956 0.977361 0.269977 0.115501
H59   H     H_    0.011117 0.829444 0.227172 0.122432
H60   H     H_    0.836534 0.820580 0.262948 0.148059
H61   H     H_    0.357500 0.437044 0.276167 0.157188
H62   H     H_    0.366525 0.342723 0.313728 0.162387
H63   H     H_    0.400558 0.322602 0.248862 0.098862
H64   H     H_    0.105548 0.304570 0.279460 0.126892
H65   H     H_    0.135869 0.357076 0.225764 0.143488
H66   H     H_    0.846867 0.853788 0.626850 0.131702
H67   H     H_    0.901979 0.869041 0.564960 0.066652
H68   H     H_    0.060389 0.856305 0.612630 0.126559
N1    N     N_R   0.908051 0.488147 0.197435 -0.423063
N2    N     N_R   0.254926 0.501853 0.795976 -0.424134
O1    O     O_2   0.905540 0.548000 0.618290 -0.466540
O2    O     O_2   0.183500 0.820143 0.468691 -0.481595
O3    O     O_3   0.075811 0.806562 0.377065 -0.613964
O4    O     O_3   0.137550 0.547930 0.558110 -0.491451
O5    O     O_3   0.574690 0.391440 0.474610 -0.487056
O6    O     O_2   0.341330 0.720570 0.525000 -0.459026
O7    O     O_3   0.526413 0.752311 0.605853 -0.641547
O8    O     O_2   0.346760 0.575767 0.327946 -0.502869
O9    O     O_3   0.514650 0.705335 0.326379 -0.602073
O10   O     O_2   0.896204 0.339708 0.177499 -0.607305
O11   O     O_2   0.389078 0.359694 0.797627 -0.603869
O12   O     O_3   0.668105 0.260983 0.396118 -0.638298
O13   O     O_2   0.859634 0.640150 0.206085 -0.621989
O14   O     O_2   0.126619 0.646290 0.801873 -0.595737
O15   O     O_3   0.688580 0.383890 0.587540 -0.489878
O16   O     O_2   0.848318 0.426660 0.672304 -0.497117
O17   O     O_3   0.032679 0.692118 0.625482 -0.628158
O18   O     O_3   0.673561 0.298781 0.675126 -0.593264
O19   O     O_2   0.848360 0.279400 0.474970 -0.464040
O20   O     O_3   0.104690 0.337720 0.562900 -0.490821
O21   O     O_2   0.016430 0.178145 0.529305 -0.485254
O22   O     O_3   0.124026 0.192310 0.621474 -0.605892
O23   O     O_2   0.284150 0.451970 0.381680 -0.469076
O24   O     O_3   0.052160 0.451990 0.441880 -0.487972
O25   O     O_3   0.501140 0.616030 0.412450 -0.474672
O26   O     O_3   0.161610 0.307550 0.376400 -0.646896
O27   O     O_3   0.615020 0.608480 0.525380 -0.476202
O28   O     O_3   0.085020 0.662210 0.437090 -0.488621
P1    P     P_3+3 0.070480 0.574800 0.610950 0.994872
P2    P     P_3+3 0.668430 0.292880 0.460530 0.985567
P3    P     P_3+3 0.149123 0.220944 0.562021 0.935747
P4    P     P_3+3 0.119230 0.425130 0.389040 0.982288
P5    P     P_3+3 0.047082 0.779570 0.436735 0.935480
P6    P     P_3+3 0.679500 0.401829 0.652720 0.969769
P7    P     P_3+3 0.526648 0.721508 0.541322 0.951911
P8    P     P_3+3 0.515115 0.600739 0.347662 0.952477

loop_
_geom_bond_atom_site_label_1
_geom_bond_atom_site_label_2
_ccdc_geom_bond_type
C26   O14   D    
C19   C24   A    
O26   P4    S    
O19   P2    D    
C44   C50   A    
C40   H23   S    
Ba2   O4    S    
C12   H1    S    
Ba1   O5    S    
C65   H62   S    
C68   O10   D    
C67   H26   S    
C31   P1    S    
C65   H63   S    
C51   C57   A    
C15   H43   S    
C3    H35   S    
O25   P8    S    
C40   H12   S    
C52   H56   S    
O16   P6    D    
C24   C25   A    
C60   C61   S    
C60   O12   S    
C12   O18   S    
C48   C57   S    
C63   H57   S    
C55   H47   S    
C17   C19   A    
C22   C24   A    
C32   C33   S    
C35   C38   A    
C61   H7    S    
C36   C37   A    
O7    P7    S    
C59   H68   S    
C55   C57   A    
C52   O17   S    
C61   H6    S    
Ba1   O27   S    
C34   H13   S    
C23   H10   S    
C45   O3    S    
Ba1   P2    S    
C49   H48   S    
C54   C55   A    
C58   H49   S    
Ba1   Ba2   S    
Ba1   O15   S    
C1    H4    S    
C7    C64   S    
C11   C38   A    
C66   O9    S    
C17   C35   A    
O17   P1    S    
C64   H64   S    
C9    C13   A    
C25   C42   A    
O18   P6    S    
O22   P3    S    
C4    O22   S    
Ba1   O24   S    
C6    C7    D    
C26   N2    Am   
C21   C22   A    
C60   H3    S    
C38   H33   S    
C7    C8    S    
C37   C43   A    
C42   H39   S    
C64   C65   S    
C1    H9    S    
C68   N1    Am   
C6    C14   D    
C53   C58   A    
C52   H45   S    
C1    H16   S    
C23   H11   S    
C45   H19   S    
C15   C31   D    
C53   P3    S    
C31   C32   D    
O2    P5    D    
C51   C53   A    
C56   C62   S    
O28   P5    S    
C4    C16   S    
C44   C46   A    
C39   H36   S    
C49   C50   A    
C63   H58   S    
Ba1   O19   S    
C17   C20   A    
C28   O26   S    
Ba2   O24   S    
C3    C5    S    
C18   C37   A    
C66   C67   S    
C30   P6    S    
O4    P1    S    
C66   H24   S    
C54   C58   A    
Ba2   O5    S    
C63   H55   S    
C11   H29   S    
C9    C36   A    
C41   C42   A    
C4    H27   S    
C35   C36   A    
C33   N2    S    
C27   O11   D    
O12   P2    S    
Ba2   O28   S    
C29   C30   S    
Ba2   O25   S    
C5    P8    S    
O1    P1    D    
C48   C49   A    
C60   H2    S    
C23   O7    S    
C41   H37   S    
C29   H30   S    
C18   C19   A    
O23   P4    D    
C56   H20   S    
C50   P7    S    
C13   C39   A    
C1    C12   S    
C16   H52   S    
O15   P6    S    
C46   C47   A    
C28   H54   S    
C32   H40   S    
C29   C33   D    
O24   P4    S    
C8    N1    S    
O3    P5    S    
O8    P8    D    
C16   H50   S    
C18   C41   A    
C51   H44   S    
C14   H42   S    
O27   P7    S    
C46   P5    S    
C56   H21   S    
C15   C30   S    
C27   N2    Am   
C10   C68   A    
O5    P2    S    
C5    C14   S    
C4    H38   S    
C54   P2    S    
Ba1   O20   S    
C65   H61   S    
C62   H60   S    
C67   H25   S    
C40   H34   S    
Ba2   O23   S    
C9    C10   A    
C43   H41   S    
C52   C59   S    
C34   H15   S    
Ba2   O6    S    
C16   H17   S    
C20   H32   S    
O9    P8    S    
C45   H18   S    
C2    C13   A    
C3    C8    D    
Ba1   O4    S    
C67   H28   S    
C2    N1    Am   
C44   H51   S    
C59   H67   S    
C21   H31   S    
C61   H5    S    
C34   H14   S    
C62   C63   S    
Ba1   P1    S    
C66   H22   S    
O20   P3    S    
C2    O13   D    
C12   H8    S    
Ba1   O1    S    
C23   C34   S    
C64   H65   S    
O21   P3    D    
C22   C27   A    
C47   H46   S    
C62   H59   S    
C47   C48   A    
C25   C26   A    
C28   H53   S    
C39   C43   A    
C20   C21   A    
C28   C40   S    
C10   C11   A    
Ba2   O27   S    
O6    P7    D    
C6    P4    S    
C59   H66   S    
Ba2   P4    S    
C45   C56   S    
