data_mof_unit_66115.cif
_audit_creation_date              2012-12-10T20:45:42-0500
_audit_creation_method            fapswitch 2.2
_symmetry_space_group_name_H-M    P1
_symmetry_Int_Tables_number       1
_space_group_crystal_system       triclinic
_cell_length_a                    28.148022
_cell_length_b                    25.934712
_cell_length_c                    15.101808
_cell_angle_alpha                 90.204897
_cell_angle_beta                  98.166396
_cell_angle_gamma                 89.918318
_cell_volume                      10912.6177023

loop_
_atom_site_label
_atom_site_type_symbol
_atom_type_description
_atom_site_fract_x
_atom_site_fract_y
_atom_site_fract_z
_atom_type_partial_charge
C1    C     C_R   0.408722 0.099036 0.489532 0.527732
C2    C     C_R   0.014430 0.525930 0.114144 0.063349
C3    C     C_R   0.454967 0.956892 0.113884 0.084071
C4    C     C_R   0.954964 0.456895 0.113883 0.084070
C5    C     C_R   0.453355 0.950941 0.020802 0.105071
C6    C     C_R   0.953350 0.450946 0.020800 0.105073
C7    C     C_R   0.633456 0.865768 0.524222 -0.032158
C8    C     C_R   0.624445 0.142884 0.501692 -0.039287
C9    C     C_R   0.133457 0.365769 0.524225 -0.032150
C10   C     C_R   0.124444 0.642884 0.501692 -0.039282
C11   C     C_R   0.662504 0.862278 0.456363 -0.151705
C12   C     C_R   0.408732 0.900878 0.489671 0.530465
C13   C     C_R   0.642433 0.148604 0.420295 -0.148906
C14   C     C_R   0.162502 0.362274 0.456363 -0.151697
C15   C     C_R   0.142410 0.648622 0.420278 -0.148913
C16   C     C_R   0.705224 0.833983 0.467789 0.047846
C17   C     C_R   0.671287 0.190322 0.404249 0.037214
C18   C     C_R   0.205223 0.333981 0.467792 0.047846
C19   C     C_R   0.171263 0.690342 0.404236 0.037212
C20   C     C_R   0.718547 0.806461 0.548341 0.172132
C21   C     C_R   0.684268 0.226694 0.473054 0.170188
C22   C     C_R   0.218554 0.306474 0.548357 0.172123
C23   C     C_R   0.908723 0.599035 0.489532 0.527733
C24   C     C_R   0.184270 0.726693 0.473064 0.170184
C25   C     C_R   0.691134 0.811751 0.619108 0.028452
C26   C     C_R   0.665296 0.222792 0.555141 0.036151
C27   C     C_R   0.191139 0.311763 0.619120 0.028473
C28   C     C_R   0.165317 0.722774 0.555168 0.036149
C29   C     C_R   0.592105 0.901775 0.510986 0.529503
C30   C     C_R   0.591284 0.099127 0.508813 0.539658
C31   C     C_R   0.092105 0.401775 0.510986 0.529502
C32   C     C_R   0.091283 0.599126 0.508813 0.539674
C33   C     C_R   0.647885 0.840283 0.606661 0.010570
C34   C     C_R   0.908732 0.400878 0.489671 0.530464
C35   C     C_R   0.635263 0.180724 0.569493 0.001317
C36   C     C_R   0.147887 0.340290 0.606668 0.010568
C37   C     C_R   0.135281 0.680707 0.569514 0.001321
C38   C     C_R   0.317916 0.182825 0.578915 0.107685
C39   C     C_R   0.283779 0.848480 0.478954 0.120041
C40   C     C_R   0.817862 0.682771 0.578860 0.107701
C41   C     C_R   0.783776 0.348484 0.478937 0.120030
C42   C     C_R   0.357449 0.151401 0.573115 -0.147192
C43   C     C_R   0.322456 0.880609 0.470852 -0.148567
C44   C     C_R   0.857401 0.651350 0.573091 -0.147179
C45   C     C_R   0.484800 0.980094 0.975648 0.005383
C46   C     C_R   0.822455 0.380610 0.470834 -0.148568
C47   C     C_R   0.290539 0.201860 0.500007 0.219108
C48   C     C_R   0.292306 0.796848 0.506942 0.214296
C49   C     C_R   0.790536 0.701860 0.499940 0.219097
C50   C     C_R   0.792300 0.296856 0.506951 0.214292
C51   C     C_R   0.369615 0.136503 0.490234 -0.009129
C52   C     C_R   0.369817 0.863010 0.490541 -0.011767
C53   C     C_R   0.869618 0.636504 0.490222 -0.009099
C54   C     C_R   0.869815 0.363011 0.490544 -0.011772
C55   C     C_R   0.341877 0.153874 0.410722 0.075522
C56   C     C_R   0.984796 0.480097 0.975647 0.005384
C57   C     C_R   0.378742 0.811065 0.515906 0.078286
C58   C     C_R   0.841926 0.653919 0.410695 0.075507
C59   C     C_R   0.878738 0.311070 0.515933 0.078287
C60   C     C_R   0.301814 0.185876 0.416095 0.118540
C61   C     C_R   0.339745 0.778511 0.525567 0.103371
C62   C     C_R   0.801861 0.685921 0.416036 0.118558
C63   C     C_R   0.839738 0.278519 0.525598 0.103373
C64   C     C_R   0.489379 0.999261 0.257297 0.547951
C65   C     C_R   0.989379 0.499260 0.257297 0.547955
C66   C     C_R   0.511420 0.000150 0.742506 0.547724
C67   C     C_R   0.516516 0.016380 0.023251 0.005865
C68   C     C_R   0.011420 0.500150 0.742506 0.547722
C69   C     C_R   0.485155 0.994799 0.159941 0.019599
C70   C     C_R   0.985155 0.494800 0.159940 0.019598
C71   C     C_R   0.517748 0.001284 0.839889 0.016082
C72   C     C_R   0.017747 0.501283 0.839889 0.016087
C73   C     C_R   0.550727 0.041471 0.979384 -0.094664
C74   C     C_R   0.050730 0.541466 0.979386 -0.094664
C75   C     C_R   0.552766 0.032937 0.888726 0.034211
C76   C     C_R   0.052768 0.532930 0.888728 0.034214
C77   C     C_R   0.485245 0.974096 0.883433 -0.116228
C78   C     C_R   0.016516 0.516379 0.023250 0.005863
C79   C     C_R   0.985240 0.474100 0.883431 -0.116227
C80   C     C_2   0.620032 0.845921 0.682299 0.643643
C81   C     C_2   0.615290 0.176951 0.654914 0.654963
C82   C     C_2   0.120032 0.345924 0.682304 0.643609
C83   C     C_2   0.115326 0.676917 0.654950 0.654970
C84   C     C_2   0.736467 0.836238 0.396333 0.630802
C85   C     C_2   0.688348 0.193972 0.315272 0.628236
C86   C     C_2   0.236455 0.336215 0.396316 0.630798
C87   C     C_2   0.188295 0.694015 0.315238 0.628232
C88   C     C_2   0.593571 0.054525 0.848223 0.627946
C89   C     C_R   0.514430 0.025931 0.114145 0.063343
C90   C     C_2   0.093580 0.554507 0.848228 0.627940
C91   C     C_2   0.708346 0.788410 0.707072 0.641190
C92   C     C_2   0.677589 0.262338 0.626234 0.652946
C93   C     C_2   0.208351 0.288426 0.707087 0.641196
C94   C     C_2   0.177633 0.762302 0.626286 0.652948
H1    H     H_    0.652446 0.883325 0.394653 0.197247
H2    H     H_    0.315388 0.920470 0.452080 0.170673
H3    H     H_    0.877485 0.636253 0.634068 0.163073
H4    H     H_    0.815388 0.420469 0.452043 0.170680
H5    H     H_    0.561477 0.825500 0.736750 0.358326
H6    H     H_    0.577490 0.210946 0.742904 0.367226
H7    H     H_    0.061474 0.325499 0.736744 0.358327
H8    H     H_    0.077557 0.710897 0.743001 0.367238
H9    H     H_    0.741450 0.849134 0.266233 0.370486
H10   H     H_    0.696038 0.158796 0.198577 0.371133
H11   H     H_    0.241421 0.349084 0.266202 0.370483
H12   H     H_    0.632706 0.120673 0.367346 0.212239
H13   H     H_    0.195920 0.658881 0.198477 0.371139
H14   H     H_    0.640087 0.045141 0.759022 0.375577
H15   H     H_    0.140100 0.545103 0.759041 0.375594
H16   H     H_    0.694476 0.741635 0.806611 0.368544
H17   H     H_    0.700479 0.277558 0.756391 0.365775
H18   H     H_    0.194493 0.241623 0.806596 0.368537
H19   H     H_    0.200552 0.777485 0.756443 0.365777
H20   H     H_    0.152439 0.383313 0.394646 0.197245
H21   H     H_    0.132665 0.620704 0.367315 0.212241
H22   H     H_    0.577702 0.066003 0.015935 0.190742
H23   H     H_    0.077708 0.565993 0.015938 0.190740
H24   H     H_    0.459647 0.949532 0.843345 0.158186
H25   H     H_    0.959639 0.449539 0.843342 0.158181
H26   H     H_    0.377571 0.136344 0.634086 0.163129
I1    I     I_    0.552072 0.090583 0.181626 -0.250809
I2    I     I_    0.850614 0.200124 0.567132 -0.123573
I3    I     I_    0.414681 0.905278 0.185948 -0.169217
I4    I     I_    0.914677 0.405282 0.185946 -0.169225
I5    I     I_    0.404865 0.895857 0.950063 -0.212907
I6    I     I_    0.904855 0.395866 0.950059 -0.212902
I7    I     I_    0.299041 0.191548 0.708923 -0.157572
I8    I     I_    0.214958 0.883939 0.454609 -0.107269
I9    I     I_    0.798888 0.691398 0.708815 -0.157623
I10   I     I_    0.714956 0.383942 0.454552 -0.107271
I11   I     I_    0.052072 0.590581 0.181624 -0.250773
I12   I     I_    0.362205 0.134606 0.283213 -0.160995
I13   I     I_    0.450169 0.780222 0.533324 -0.124719
I14   I     I_    0.862330 0.634709 0.283220 -0.161045
I15   I     I_    0.950163 0.280223 0.533381 -0.124710
I16   I     I_    0.256451 0.209965 0.297929 -0.125284
I17   I     I_    0.350626 0.700111 0.567064 -0.123567
I18   I     I_    0.756563 0.710070 0.297832 -0.125273
N1    N     N_2   0.757902 0.771532 0.556838 -0.140186
N2    N     N_2   0.719246 0.264378 0.460805 -0.132638
N3    N     N_2   0.257916 0.271554 0.556862 -0.140195
N4    N     N_2   0.219248 0.764375 0.460812 -0.132630
N5    N     N_2   0.250883 0.235725 0.501140 -0.180785
N6    N     N_2   0.254883 0.762299 0.519871 -0.185889
N7    N     N_2   0.750884 0.735731 0.501054 -0.180783
N8    N     N_2   0.754874 0.262310 0.519878 -0.185899
O1    O     O_3   0.500000 0.000000 0.500000 -0.473648
O2    O     O_R   0.057820 0.602510 0.558190 -0.500569
O3    O     O_R   0.402690 0.940060 0.437800 -0.532045
O4    O     O_R   0.402690 0.059940 0.437800 -0.514823
O5    O     O_R   0.902690 0.440060 0.437800 -0.532055
O6    O     O_R   0.902690 0.559940 0.437800 -0.514840
O7    O     O_R   0.592810 0.059930 0.457190 -0.530128
O8    O     O_R   0.592810 0.940070 0.457190 -0.538265
O9    O     O_R   0.092810 0.559930 0.457190 -0.530120
O10   O     O_R   0.092810 0.440070 0.457190 -0.538263
O11   O     O_R   0.451940 0.000000 0.295720 -0.505142
O12   O     O_3   0.000000 0.500000 0.500000 -0.473651
O13   O     O_R   0.951940 0.500000 0.295720 -0.505144
O14   O     O_R   0.508560 0.042600 0.700250 -0.517395
O15   O     O_R   0.508560 0.957400 0.700250 -0.523181
O16   O     O_R   0.008560 0.542600 0.700250 -0.517403
O17   O     O_R   0.008560 0.457400 0.700250 -0.523173
O18   O     O_R   0.530930 0.000000 0.303780 -0.515634
O19   O     O_R   0.030930 0.500000 0.303780 -0.515635
O20   O     O_2   0.634919 0.873905 0.745466 -0.464232
O21   O     O_R   0.577280 0.818488 0.681627 -0.608697
O22   O     O_2   0.622414 0.138258 0.700709 -0.457072
O23   O     O_R   0.446670 0.102520 0.546820 -0.536921
O24   O     O_R   0.588969 0.218020 0.683451 -0.640207
O25   O     O_2   0.134918 0.373903 0.745478 -0.464218
O26   O     O_R   0.077279 0.318491 0.681622 -0.608710
O27   O     O_2   0.122448 0.638209 0.700709 -0.457104
O28   O     O_R   0.089024 0.717985 0.683543 -0.640195
O29   O     O_2   0.779701 0.828897 0.414105 -0.441603
O30   O     O_R   0.716591 0.848364 0.308659 -0.667919
O31   O     O_2   0.705924 0.233898 0.291861 -0.435585
O32   O     O_R   0.683549 0.151600 0.257061 -0.666258
O33   O     O_2   0.279688 0.328862 0.414068 -0.441615
O34   O     O_R   0.446670 0.897480 0.546820 -0.513139
O35   O     O_R   0.216569 0.348331 0.308643 -0.667924
O36   O     O_2   0.205887 0.733938 0.291854 -0.435587
O37   O     O_R   0.183450 0.651668 0.256974 -0.666258
O38   O     O_2   0.613912 0.093588 0.879316 -0.448428
O39   O     O_R   0.610314 0.028711 0.777210 -0.655745
O40   O     O_2   0.113927 0.593566 0.879320 -0.448455
O41   O     O_R   0.110321 0.528684 0.777222 -0.655733
O42   O     O_2   0.747912 0.799992 0.746335 -0.429073
O43   O     O_R   0.678842 0.754542 0.746121 -0.632648
O44   O     O_2   0.674198 0.308132 0.607608 -0.435103
O45   O     O_R   0.946670 0.602520 0.546820 -0.536888
O46   O     O_R   0.693216 0.247139 0.714319 -0.635637
O47   O     O_2   0.247900 0.300044 0.746384 -0.429060
O48   O     O_R   0.178863 0.254524 0.746100 -0.632661
O49   O     O_2   0.174252 0.808101 0.607695 -0.435112
O50   O     O_R   0.193271 0.747078 0.714352 -0.635640
O51   O     O_R   0.946670 0.397480 0.546820 -0.513137
O52   O     O_R   0.557820 0.897490 0.558190 -0.492792
O53   O     O_R   0.557820 0.102510 0.558190 -0.500564
O54   O     O_R   0.057820 0.397490 0.558190 -0.492785
Zn1   Zn    Zn3+2 0.503210 0.939150 0.575020 1.019153
Zn2   Zn    Zn3+2 0.503210 0.060850 0.575020 1.011014
Zn3   Zn    Zn3+2 0.003210 0.439150 0.575020 1.019155
Zn4   Zn    Zn3+2 0.003210 0.560850 0.575020 1.011025
Zn5   Zn    Zn3+2 0.440370 0.000000 0.419230 1.003386
Zn6   Zn    Zn3+2 0.940370 0.500000 0.419230 1.003372
Zn7   Zn    Zn3+2 0.553220 0.000000 0.430750 1.003431
Zn8   Zn    Zn3+2 0.053220 0.500000 0.430750 1.003437

loop_
_geom_bond_atom_site_label_1
_geom_bond_atom_site_label_2
_ccdc_geom_bond_type
C58   C62   A    
C71   C75   A    
C40   I9    S    
C1    O4    A    
C8    C13   A    
C7    C29   S    
C47   N5    S    
O12   Zn4   S    
C14   C18   A    
C24   N4    S    
C93   O48   S    
C16   C84   S    
C23   O6    A    
C42   H26   S    
C87   O36   D    
C66   O14   A    
C31   O10   A    
C35   C81   S    
C92   O46   S    
H15   O41   S    
C15   C19   A    
C91   O43   S    
C48   N6    S    
C18   C86   S    
C56   C79   A    
C74   C76   A    
C10   C37   A    
C94   O50   S    
C20   N1    S    
O15   Zn1   S    
C3    C69   A    
C55   I12   S    
C38   C42   A    
C72   C79   A    
C19   C87   S    
C10   C15   A    
N3    N5    D    
O14   Zn2   S    
C41   I10   S    
C43   C52   A    
C88   O38   D    
C90   O41   S    
C26   C92   S    
C65   C70   S    
O53   Zn2   S    
C65   O19   A    
C67   C89   A    
C56   C78   A    
C4    I4    S    
H7    O26   S    
C28   C94   S    
C11   C16   A    
C59   I15   S    
O1    Zn5   S    
C86   O33   D    
C47   C60   A    
O7    Zn7   S    
C44   C53   A    
C30   O7    A    
H10   O32   S    
C64   O18   A    
C36   C82   S    
C85   O32   S    
C91   O42   D    
C79   H25   S    
C64   O11   A    
C45   C67   A    
C9    C36   A    
C41   C46   A    
C67   C73   A    
C84   O29   D    
C60   I16   S    
C80   O21   S    
C51   C55   A    
O8    Zn7   S    
C65   O13   A    
C42   C51   A    
C39   C48   A    
C50   N8    S    
C30   O53   A    
C46   H4    S    
H17   O46   S    
C55   C60   A    
C50   C63   A    
C7    C33   A    
C57   I13   S    
C69   C89   A    
C17   C85   S    
C80   O20   D    
C31   O54   A    
C12   C52   S    
C21   C26   A    
C3    I3    S    
C23   C53   S    
H5    O21   S    
C54   C59   A    
C82   O26   S    
C4    C70   A    
C25   C91   S    
C75   C88   S    
H6    O24   S    
C94   O49   D    
O12   Zn6   S    
C24   C28   A    
C23   O45   A    
O1    Zn1   S    
O11   Zn5   S    
C6    I6    S    
C20   C25   A    
C4    C6    A    
O34   Zn1   S    
O3    Zn5   S    
C39   C43   A    
C90   O40   D    
C14   H20   S    
C5    C45   A    
C17   C21   A    
C66   O15   A    
H13   O37   S    
C68   C72   S    
C8    C35   A    
C7    C11   A    
C9    C14   A    
C2    C78   A    
C92   O44   D    
C32   O9    A    
C43   H2    S    
C44   H3    S    
H14   O39   S    
O16   Zn4   S    
C66   C71   S    
C58   I14   S    
C86   O35   S    
C16   C20   A    
O17   Zn3   S    
C46   C54   A    
O52   Zn1   S    
C2    I11   S    
C49   N7    S    
C72   C76   A    
C64   C69   S    
C62   I18   S    
O1    Zn7   S    
C1    C51   S    
H18   O48   S    
C38   C47   A    
C32   O2    A    
C34   O5    A    
C88   O39   S    
C12   O34   A    
C34   C54   S    
C22   C27   A    
C83   O27   D    
H19   O50   S    
C15   H21   S    
C27   C93   S    
O45   Zn4   S    
C73   C75   A    
N2    N8    D    
C41   C50   A    
C71   C77   A    
C63   I2    S    
O2    Zn4   S    
O13   Zn6   S    
C76   C90   S    
C68   O17   A    
C11   H1    S    
C74   H23   S    
C82   O25   D    
N1    N7    D    
C49   C62   A    
C18   C22   A    
C12   O3    A    
O1    Zn2   S    
C93   O47   D    
O23   Zn2   S    
O4    Zn5   S    
C6    C56   A    
C13   H12   S    
C3    C5    A    
O18   Zn7   S    
C53   C58   A    
C33   C80   S    
C57   C61   A    
C39   I8    S    
C68   O16   A    
C27   C36   A    
H8    O28   S    
H16   O43   S    
C59   C63   A    
C13   C17   A    
O6    Zn6   S    
O12   Zn8   S    
C77   H24   S    
C19   C24   A    
C8    C30   S    
C84   O30   S    
C87   O37   S    
C34   O51   A    
C61   I17   S    
C48   C61   A    
C89   I1    S    
C28   C37   A    
O54   Zn3   S    
C38   I7    S    
C22   N3    S    
C1    O23   A    
H9    O30   S    
C81   O22   D    
O51   Zn3   S    
C73   H22   S    
O12   Zn3   S    
O5    Zn6   S    
C81   O24   S    
O10   Zn8   S    
O19   Zn8   S    
C52   C57   A    
C9    C31   S    
O9    Zn8   S    
C10   C32   S    
C26   C35   A    
C40   C44   A    
C85   O31   D    
C29   O52   A    
C74   C78   A    
C83   O28   S    
C5    I5    S    
C37   C83   S    
C45   C77   A    
C21   N2    S    
H11   O35   S    
C2    C70   A    
N4    N6    D    
C40   C49   A    
C25   C33   A    
C29   O8    A    
