data_mof_unit_57255.cif
_audit_creation_date              2012-12-10T17:31:12-0500
_audit_creation_method            fapswitch 2.2
_symmetry_space_group_name_H-M    P1
_symmetry_Int_Tables_number       1
_space_group_crystal_system       triclinic
_cell_length_a                    12.007754
_cell_length_b                    12.901385
_cell_length_c                    15.429972
_cell_angle_alpha                 86.189385
_cell_angle_beta                  116.779758
_cell_angle_gamma                 94.632439
_cell_volume                      2125.79590528

loop_
_atom_site_label
_atom_site_type_symbol
_atom_type_description
_atom_site_fract_x
_atom_site_fract_y
_atom_site_fract_z
_atom_type_partial_charge
C1    C     C_R   0.476076 0.299074 0.499287 0.889022
C2    C     C_R   0.627158 0.977812 0.467373 -0.201994
C3    C     C_R   0.372312 0.130319 0.525831 0.192055
C4    C     C_R   0.627689 0.869681 0.474171 0.192056
C5    C     C_R   0.541123 0.134830 0.477758 -0.315226
C6    C     C_R   0.458877 0.865169 0.522241 -0.315226
C7    C     C_R   0.542063 0.028234 0.485991 0.131972
C8    C     C_R   0.457937 0.971766 0.514008 0.131972
C9    C     C_R   0.000330 0.596426 0.406270 -0.377081
C10   C     C_R   0.999669 0.403574 0.593730 -0.377082
C11   C     C_R   0.121798 0.587638 0.415600 0.274288
C12   C     C_R   0.523924 0.700926 0.500713 0.889022
C13   C     C_R   0.878202 0.412362 0.584400 0.274287
C14   C     C_R   0.161911 0.458509 0.541145 -0.083075
C15   C     C_R   0.838089 0.541491 0.458854 -0.083073
C16   C     C_R   0.578440 0.496132 0.681074 0.901729
C17   C     C_R   0.421560 0.503869 0.318925 0.901729
C18   C     C_R   0.040853 0.465020 0.534150 0.077504
C19   C     C_R   0.959147 0.534980 0.465850 0.077504
C20   C     C_R   0.632539 0.500575 0.786927 -0.096119
C21   C     C_R   0.367462 0.499431 0.213073 -0.096118
C22   C     C_R   0.780353 0.573126 0.940538 -0.206402
C23   C     C_R   0.641097 0.543072 0.110666 -0.222047
C24   C     C_R   0.219646 0.426891 0.059459 -0.206407
C25   C     C_R   0.745294 0.559079 0.842227 0.135693
C26   C     C_R   0.254705 0.440930 0.157771 0.135691
C27   C     C_R   0.561800 0.454138 0.832069 0.098557
C28   C     C_R   0.438201 0.545872 0.167932 0.098558
C29   C     C_R   0.579517 0.493017 0.920695 0.076912
C30   C     C_R   0.420484 0.506998 0.079305 0.076913
C31   C     C_R   0.696613 0.543548 0.979078 0.088119
C32   C     C_R   0.303387 0.456470 0.020920 0.088119
C33   C     C_R   0.484701 0.485732 0.952179 0.078337
C34   C     C_R   0.358904 0.456949 0.889333 -0.222049
C35   C     C_R   0.515300 0.514286 0.047820 0.078337
C36   C     C_3   0.509102 0.649103 0.204142 -0.935939
C37   C     C_3   0.490897 0.350906 0.795862 -0.935943
C38   C     C_3   0.171832 0.392602 0.201231 -0.859414
C39   C     C_3   0.828167 0.607403 0.798765 -0.859419
C40   C     C_3   0.718899 0.818390 0.450690 -0.893775
C41   C     C_3   0.281106 0.181611 0.549315 -0.893777
C42   C     C_R   0.728627 0.563206 0.075315 -0.223147
C43   C     C_R   0.271373 0.436817 0.924682 -0.223149
C44   C     C_R   0.540290 0.813214 0.500355 -0.079075
C45   C     C_R   0.459710 0.186785 0.499645 -0.079074
C46   C     C_R   0.372843 0.022188 0.532628 -0.201993
H1    H     H_    0.821724 0.593582 0.123569 0.141290
H2    H     H_    0.606223 0.177575 0.455591 0.171845
H3    H     H_    0.307790 0.977127 0.553335 0.138353
H4    H     H_    0.692212 0.022873 0.446667 0.138353
H5    H     H_    0.775350 0.595939 0.407352 0.125396
H6    H     H_    0.224650 0.404061 0.592648 0.125397
H7    H     H_    0.899772 0.366418 0.718215 0.150131
H8    H     H_    0.843049 0.272214 0.635617 0.165669
H9    H     H_    0.100228 0.633580 0.281785 0.150131
H10   H     H_    0.156948 0.727786 0.364381 0.165668
H11   H     H_    0.597879 0.637411 0.269885 0.236180
H12   H     H_    0.178276 0.406443 0.876428 0.141292
H13   H     H_    0.528460 0.693190 0.147662 0.252954
H14   H     H_    0.451933 0.698760 0.222620 0.238665
H15   H     H_    0.471538 0.306824 0.852344 0.252955
H16   H     H_    0.402122 0.362597 0.730118 0.236183
H17   H     H_    0.548067 0.301246 0.777389 0.238665
H18   H     H_    0.225621 0.339670 0.263601 0.240572
H19   H     H_    0.134465 0.454394 0.225789 0.250833
H20   H     H_    0.090858 0.346194 0.147715 0.228179
H21   H     H_    0.774379 0.660334 0.736394 0.240574
H22   H     H_    0.909142 0.653811 0.852280 0.228180
H23   H     H_    0.938897 0.650603 0.352557 0.143116
H24   H     H_    0.865531 0.545609 0.774208 0.250834
H25   H     H_    0.775816 0.876127 0.428493 0.225395
H26   H     H_    0.784579 0.774314 0.515540 0.256058
H27   H     H_    0.667412 0.765680 0.389548 0.241564
H28   H     H_    0.224191 0.123874 0.571514 0.225395
H29   H     H_    0.332595 0.234321 0.610456 0.241565
H30   H     H_    0.215423 0.225686 0.484466 0.256058
H31   H     H_    0.061102 0.349397 0.647443 0.143117
H32   H     H_    0.869004 0.613447 0.985272 0.147176
H33   H     H_    0.130995 0.386574 0.014723 0.147179
H34   H     H_    0.673529 0.551416 0.187445 0.171523
H35   H     H_    0.326473 0.448606 0.812554 0.171526
H36   H     H_    0.393776 0.822425 0.544408 0.171845
N1    N     N_R   0.799120 0.480200 0.517090 -0.091080
N2    N     N_R   0.200880 0.519800 0.482910 -0.091081
N3    N     N_3   0.837488 0.350474 0.646196 -0.399272
N4    N     N_3   0.162512 0.649525 0.353804 -0.399271
O1    O     O_R   0.580150 0.341050 0.504560 -0.603310
O2    O     O_R   0.419850 0.658950 0.495440 -0.603310
O3    O     O_R   0.388090 0.353760 0.493600 -0.620148
O4    O     O_R   0.611910 0.646240 0.506400 -0.620148
O5    O     O_R   0.650890 0.490020 0.640860 -0.594733
O6    O     O_R   0.349110 0.509980 0.359140 -0.594732
O7    O     O_R   0.458830 0.502730 0.629890 -0.612536
O8    O     O_R   0.541170 0.497270 0.370110 -0.612535
Zn1   Zn    Zn3+2 0.628240 0.491510 0.507320 0.945284
Zn2   Zn    Zn3+2 0.371760 0.508490 0.492680 0.945284

loop_
_geom_bond_atom_site_label_1
_geom_bond_atom_site_label_2
_ccdc_geom_bond_type
C1    O1    A    
C21   C26   A    
O2    Zn2   S    
C6    H36   S    
C31   C42   A    
C27   C29   A    
C39   H22   S    
C14   C18   A    
C2    C7    A    
C14   N2    A    
C36   H13   S    
C37   H16   S    
C7    C8    A    
C15   C19   A    
C46   H3    S    
C16   O7    A    
C23   C42   A    
C30   C35   A    
C12   O4    A    
C40   H25   S    
C9    H23   S    
C39   H24   S    
C20   C25   A    
C11   N4    S    
C29   C33   A    
O6    Zn2   S    
C40   H27   S    
C18   C19   A    
N2    Zn2   S    
C2    H4    S    
C43   H12   S    
C41   H28   S    
C9    C19   A    
C14   H6    S    
C38   H20   S    
C22   C25   A    
O1    Zn1   S    
C34   H35   S    
C15   H5    S    
C23   H34   S    
C6    C44   A    
C17   O6    A    
C37   H17   S    
C10   H31   S    
C38   H18   S    
C5    H2    S    
C22   C31   A    
C12   O2    A    
H9    N4    S    
C4    C40   S    
O4    Zn1   S    
C22   H32   S    
C36   H11   S    
C5    C7    A    
C26   C38   S    
C15   N1    A    
C4    C44   A    
C5    C45   A    
C3    C45   A    
C17   C21   S    
C2    C4    A    
C24   C32   A    
C41   H29   S    
C24   H33   S    
H10   N4    S    
C38   H19   S    
C16   C20   S    
N1    Zn1   S    
C33   C34   A    
C9    C11   A    
C21   C28   A    
O7    Zn2   S    
C23   C35   A    
C37   H15   S    
C3    C41   S    
C1    O3    A    
C40   H26   S    
C39   H21   S    
C34   C43   A    
C24   C26   A    
C36   H14   S    
C10   C13   A    
H8    N3    S    
C6    C8    A    
C20   C27   A    
C11   N2    A    
C13   N1    A    
C3    C46   A    
O3    Zn2   S    
C28   C30   A    
C12   C44   S    
C25   C39   S    
C41   H30   S    
C30   C32   A    
C1    C45   S    
C10   C18   A    
C33   C35   A    
C32   C43   A    
C42   H1    S    
O8    Zn1   S    
C8    C46   A    
O5    Zn1   S    
C28   C36   S    
C16   O5    A    
C29   C31   A    
C13   N3    S    
H7    N3    S    
C17   O8    A    
C27   C37   S    
