data_mof_unit_8289.cif
_audit_creation_date              2013-03-05T16:07:22-0500
_audit_creation_method            fapswitch 2.2
_symmetry_space_group_name_H-M    P1
_symmetry_Int_Tables_number       1
_space_group_crystal_system       triclinic
_cell_length_a                    9.599062
_cell_length_b                    10.861406
_cell_length_c                    16.979555
_cell_angle_alpha                 86.177114
_cell_angle_beta                  92.724003
_cell_angle_gamma                 90.055098
_cell_volume                      1764.33747443

loop_
_atom_site_label
_atom_site_type_symbol
_atom_site_description
_atom_site_fract_x
_atom_site_fract_y
_atom_site_fract_z
_atom_type_partial_charge
O1    O     O_R   0.618740 0.319660 0.500000 -0.579100
O2    O     O_R   0.381260 0.680340 0.500000 -0.578991
O3    O     O_R   0.381170 0.319630 0.500010 -0.542679
O4    O     O_R   0.618830 0.680370 0.499990 -0.542811
C1    C     C_R   0.499835 0.262407 0.498670 0.820823
C2    C     C_R   0.500164 0.737591 0.501340 0.820814
O5    O     O_R   0.631780 0.498870 0.613920 -0.513627
O6    O     O_R   0.368220 0.501130 0.386080 -0.513684
O7    O     O_R   0.394210 0.498840 0.613930 -0.578092
O8    O     O_R   0.605790 0.501160 0.386070 -0.578001
C3    C     C_R   0.516209 0.508197 0.650598 0.875904
C4    C     C_R   0.483793 0.491778 0.349405 0.875952
Cu1   Cu    Cu3+1 0.640660 0.500020 0.500000 1.093580
Cu2   Cu    Cu3+1 0.359340 0.499980 0.500000 1.093595
C5    C     C_R   0.521388 0.529492 0.736148 -0.216130
C6    C     C_R   0.478620 0.470426 0.263862 -0.216145
C7    C     C_R   0.397293 0.516938 0.776592 -0.262790
C8    C     C_R   0.602722 0.482934 0.223419 -0.262708
C9    C     C_R   0.394860 0.527588 0.857943 0.314830
C10   C     C_R   0.605155 0.472260 0.142072 0.314799
C11   C     C_R   0.521471 0.547901 0.900772 0.226015
C12   C     C_R   0.478543 0.451950 0.099244 0.226013
C13   C     C_R   0.643026 0.571802 0.860371 -0.203068
C14   C     C_R   0.356986 0.428063 0.139647 -0.203046
C15   C     C_R   0.644072 0.566741 0.778090 0.324707
C16   C     C_R   0.355938 0.433150 0.221927 0.324672
N1    N     N_2   0.530254 0.545363 0.984233 -0.136397
N2    N     N_2   0.469759 0.454482 0.015784 -0.136389
H1    H     H_    0.700060 0.496925 0.255511 0.259043
H2    H     H_    0.299963 0.502926 0.744499 0.259037
H3    H     H_    0.737394 0.595643 0.893476 0.235244
H4    H     H_    0.262619 0.404210 0.106544 0.235256
C17   C     C_R   0.373647 0.064100 0.493545 -0.071762
C18   C     C_R   0.626342 0.935896 0.506505 -0.071829
H5    H     H_    0.274699 0.111703 0.486561 0.220457
H6    H     H_    0.725284 0.888292 0.513508 0.220500
C19   C     C_R   0.373820 0.936452 0.498010 -0.116437
C20   C     C_R   0.626170 0.063543 0.502035 -0.116491
H7    H     H_    0.275001 0.889263 0.498181 0.216273
H8    H     H_    0.724988 0.110733 0.501871 0.216297
C21   C     C_R   0.500147 0.871482 0.502628 -0.059478
C22   C     C_R   0.499845 0.128514 0.497405 -0.059445
C23   C     C_R   0.078266 0.422862 0.552099 0.299355
C24   C     C_R   0.921735 0.577175 0.447926 0.299361
C25   C     C_R   0.930024 0.423106 0.552212 0.314679
C26   C     C_R   0.069973 0.576872 0.447777 0.314619
N3    N     N_R   0.852070 0.500030 0.499980 -0.318466
N4    N     N_R   0.147930 0.499970 0.500020 -0.318444
N5    N     N_R   0.736542 0.477966 0.104516 0.156873
O9    O     O_R   0.760523 0.406266 0.048213 -0.276136
O10   O     O_R   0.838569 0.543333 0.132839 -0.232738
N6    N     N_R   0.263474 0.521863 0.895498 0.156872
O11   O     O_R   0.239486 0.593553 0.951806 -0.276152
O12   O     O_R   0.161448 0.456504 0.867165 -0.232691
N7    N     N_R   0.766338 0.608252 0.738527 0.167015
O13   O     O_R   0.889362 0.587352 0.772321 -0.241539
O14   O     O_R   0.754279 0.689560 0.678726 -0.344547
N8    N     N_R   0.233684 0.391624 0.261497 0.167022
O15   O     O_R   0.110658 0.412419 0.227681 -0.241591
O16   O     O_R   0.245776 0.310376 0.321330 -0.344566
N9    N     N_R   0.153697 0.339651 0.607232 0.177103
O17   O     O_R   0.172652 0.227238 0.588279 -0.326557
O18   O     O_R   0.152895 0.359157 0.681846 -0.284100
N10   N     N_R   0.846302 0.660553 0.392902 0.177163
O19   O     O_R   0.827900 0.773047 0.411885 -0.326611
O20   O     O_R   0.846579 0.640977 0.318272 -0.284316
N11   N     N_R   0.863169 0.339917 0.607249 0.179347
O21   O     O_R   0.863516 0.222970 0.595575 -0.330069
O22   O     O_R   0.850256 0.371941 0.678933 -0.247514
N12   N     N_R   0.136829 0.659940 0.392670 0.179400
O23   O     O_R   0.136873 0.776889 0.404365 -0.329987
O24   O     O_R   0.149404 0.627885 0.320962 -0.247493

loop_
_geom_bond_atom_site_label_1
_geom_bond_atom_site_label_2
_geom_bond_distance
_ccdc_geom_bond_type
C9    C11   1.411186 A    
C25   N11   1.429981 S    
O5    C3    1.305037 A    
O7    Cu2   1.946709 S    
C14   H4    1.083578 S    
C5    C7    1.405018 A    
N12   O23   1.298673 A    
O3    Cu2   1.970220 S    
C16   N8    1.437198 S    
C23   N4    1.373653 A    
C8    C10   1.395085 A    
C24   N3    1.373617 A    
O6    C4    1.305051 A    
N1    N2    1.247611 D    
N10   O19   1.298590 A    
N7    O13   1.301561 A    
C13   C15   1.402344 A    
C11   N1    1.414057 S    
O8    Cu1   1.946709 S    
C19   H7    1.077789 S    
C8    H1    1.074888 S    
C12   N2    1.414055 S    
Cu1   Cu2   2.700407 S    
C24   N10   1.428787 S    
C20   H8    1.077778 S    
C7    H2    1.074880 S    
O7    C3    1.307012 A    
C24   C26   1.423079 A    
C10   N5    1.439474 S    
C18   C21   1.399320 A    
O8    C4    1.307009 A    
O1    C1    1.299230 A    
C17   C22   1.399339 A    
O4    C2    1.300018 A    
C17   H5    1.079619 S    
C14   C16   1.402356 A    
C20   C22   1.399912 A    
C18   H6    1.079593 S    
N7    O14   1.301451 A    
C11   C13   1.396850 A    
C19   C21   1.399927 A    
N9    O17   1.298387 A    
O2    Cu2   1.970030 S    
C12   C14   1.396855 A    
C5    C15   1.419686 A    
O1    Cu1   1.970030 S    
C2    C21   1.455866 S    
C10   C12   1.411182 A    
N8    O16   1.301454 A    
N11   O21   1.298606 A    
C26   N4    1.372528 A    
C15   N7    1.437183 S    
O5    Cu1   1.939438 S    
C26   N12   1.429964 S    
N6    O11   1.301525 A    
C23   N9    1.428801 S    
C1    C22   1.455859 S    
C6    C8    1.405035 A    
N5    O9    1.301520 A    
C25   N3    1.372535 A    
N11   O22   1.299496 A    
O4    Cu1   1.970218 S    
Cu1   N3    2.029354 S    
Cu2   N4    2.029355 S    
C13   H3    1.083576 S    
C7    C9    1.395091 A    
C23   C25   1.423077 A    
O6    Cu2   1.939442 S    
C4    C6    1.484593 S    
O3    C1    1.299999 A    
N8    O15   1.301566 A    
C18   C20   1.383444 A    
C3    C5    1.484574 S    
C9    N6    1.439471 S    
N12   O24   1.299554 A    
N9    O18   1.298733 A    
C17   C19   1.383453 A    
O2    C2    1.299216 A    
N6    O12   1.301514 A    
N5    O10   1.301507 A    
C6    C16   1.419697 A    
N10   O20   1.298930 A    
