data_mof_unit_34644.cif
_audit_creation_date              2013-03-05T16:07:04-0500
_audit_creation_method            fapswitch 2.2
_symmetry_space_group_name_H-M    P1
_symmetry_Int_Tables_number       1
_space_group_crystal_system       triclinic
_cell_length_a                    17.065409
_cell_length_b                    7.254025
_cell_length_c                    16.677544
_cell_angle_alpha                 90.115061
_cell_angle_beta                  100.240414
_cell_angle_gamma                 89.830143
_cell_volume                      2031.66283964

loop_
_atom_site_label
_atom_site_type_symbol
_atom_site_description
_atom_site_fract_x
_atom_site_fract_y
_atom_site_fract_z
_atom_type_partial_charge
O1    O     O_R   0.413450 0.494370 0.415710 -0.547159
O2    O     O_R   0.586550 0.994370 0.584290 -0.557237
O3    O     O_R   0.578420 0.819350 0.429360 -0.607308
O4    O     O_R   0.421580 0.319350 0.570640 -0.601679
C1    C     C_R   0.604278 0.655745 0.413641 1.114856
C2    C     C_R   0.395107 0.156480 0.585723 1.120554
O5    O     O_R   0.413570 0.823780 0.406240 -0.552485
O6    O     O_R   0.586430 0.323780 0.593760 -0.533084
O7    O     O_R   0.420530 0.998740 0.561000 -0.550850
O8    O     O_R   0.579470 0.498740 0.439000 -0.571109
C3    C     C_R   0.386653 0.655413 0.383497 1.045447
C4    C     C_R   0.614269 0.155246 0.615784 1.030586
O9    O     O_3   0.502480 0.662320 0.550800 -0.254431
O10   O     O_3   0.497520 0.162320 0.449200 -0.278228
V1    V     V_3+5 0.499540 0.935370 0.490580 1.368536
V2    V     V_3+5 0.500460 0.435370 0.509420 1.380654
C5    C     C_R   0.702754 0.985525 0.728347 -0.011014
C6    C     C_R   0.314946 0.527622 0.249587 -0.158621
C7    C     C_R   0.685999 0.144361 0.680766 -0.467815
C8    C     C_R   0.318237 0.649389 0.315122 -0.335889
C9    C     C_R   0.742737 0.287219 0.693272 0.792652
C10   C     C_R   0.254978 0.775919 0.311468 0.755133
C11   C     C_R   0.809491 0.278585 0.757248 0.171490
C12   C     C_R   0.186802 0.766969 0.248706 0.175107
C13   C     C_R   0.820813 0.123569 0.810925 -0.325946
C14   C     C_R   0.181503 0.627987 0.186509 -0.382713
C15   C     C_R   0.767657 0.976308 0.792058 -0.047612
C16   C     C_R   0.249492 0.518735 0.187236 -0.008210
C17   C     C_3   0.720472 0.875201 0.845419 0.499761
C18   C     C_3   0.261248 0.317612 0.174520 0.514709
C19   C     C_3   0.650186 0.883391 0.775394 0.551270
C20   C     C_3   0.333314 0.327546 0.243217 0.539035
H1    H     H_    0.742537 0.733850 0.861932 0.140440
H2    H     H_    0.211817 0.231021 0.187866 0.120890
H3    H     H_    0.598383 0.965148 0.787772 0.112271
H4    H     H_    0.391499 0.300709 0.224180 0.124361
C21   C     C_R   0.330206 0.155882 0.634341 -0.488128
C22   C     C_R   0.669097 0.652114 0.365103 -0.492982
C23   C     C_R   0.167698 0.114562 0.863750 -0.509887
C24   C     C_R   0.831327 0.615562 0.135113 -0.514579
C25   C     C_R   0.293567 0.985214 0.837957 0.224660
C26   C     C_R   0.702980 0.496684 0.157751 0.240784
C27   C     C_R   0.235092 0.002661 0.887112 0.709846
C28   C     C_R   0.761064 0.516610 0.108230 0.668700
C29   C     C_R   0.158782 0.211844 0.789719 0.288514
C30   C     C_R   0.843414 0.697651 0.212754 0.303169
C31   C     C_R   0.216870 0.194336 0.738850 -0.090783
C32   C     C_R   0.784820 0.682422 0.263038 -0.104178
C33   C     C_R   0.284215 0.077880 0.761923 -0.273730
C34   C     C_R   0.713898 0.581125 0.235904 -0.264812
C35   C     C_R   0.339416 0.056489 0.707847 0.788379
C36   C     C_R   0.655964 0.569449 0.287403 0.788295
C37   C     C_R   0.263329 0.272505 0.612348 0.279817
C38   C     C_R   0.740753 0.748558 0.392355 0.273419
C39   C     C_R   0.208021 0.290531 0.664651 -0.091400
C40   C     C_R   0.797237 0.762792 0.341121 -0.093970
H5    H     H_    0.157270 0.380309 0.646234 0.214805
H6    H     H_    0.851807 0.836386 0.363531 0.217877
O11   O     O_R   0.920630 0.775410 0.061150 -0.578675
O12   O     O_R   0.079370 0.275410 0.938850 -0.565601
O13   O     O_R   0.086500 0.441450 0.093690 -0.591848
O14   O     O_R   0.913500 0.941450 0.906310 -0.580723
C41   C     C_R   0.112515 0.611313 0.117888 1.061442
C42   C     C_R   0.886873 0.110970 0.882700 1.049901
O15   O     O_R   0.921670 0.445960 0.070740 -0.564270
O16   O     O_R   0.078330 0.945960 0.929260 -0.568016
O17   O     O_R   0.913380 0.271130 0.915780 -0.560373
O18   O     O_R   0.086620 0.771130 0.084220 -0.550539
C43   C     C_R   0.895333 0.613511 0.085150 1.097717
C44   C     C_R   0.103977 0.113289 0.913980 1.083744
O19   O     O_3   0.997500 0.603030 0.949220 -0.248711
O20   O     O_3   0.002500 0.103030 0.050780 -0.256057
V3    V     V_3+5 0.000470 0.329940 0.009420 1.369841
V4    V     V_3+5 0.999530 0.829940 0.990580 1.371196
F1    F     F_    0.732825 0.438580 0.644685 -0.591102
F2    F     F_    0.257256 0.903214 0.371747 -0.583281
F3    F     F_    0.244957 0.911991 0.959506 -0.614173
F4    F     F_    0.750328 0.431972 0.034289 -0.619568
N1    N     N_R   0.087453 0.315529 0.762995 0.230929
O21   O     O_R   0.079645 0.480167 0.791640 -0.325903
O22   O     O_R   0.033166 0.250808 0.705184 -0.330566
N2    N     N_R   0.918874 0.779091 0.243638 0.241580
O23   O     O_R   0.981295 0.673936 0.261885 -0.367901
O24   O     O_R   0.925815 0.957242 0.250292 -0.311336
N3    N     N_R   0.863746 0.430566 0.766692 0.270405
O25   O     O_R   0.859058 0.553293 0.822522 -0.368540
O26   O     O_R   0.897958 0.476206 0.705906 -0.225091
N4    N     N_R   0.122024 0.890417 0.254320 0.278307
O27   O     O_R   0.100595 0.012821 0.197942 -0.347780
O28   O     O_R   0.100465 0.915227 0.324622 -0.197846
F5    F     F_    0.708073 0.980660 0.911387 -0.632022
F6    F     F_    0.282498 0.282959 0.099592 -0.628548
F7    F     F_    0.630345 0.711452 0.741818 -0.616943
F8    F     F_    0.321628 0.229932 0.311279 -0.617432
F9    F     F_    0.403132 0.941824 0.726095 -0.657471
F10   F     F_    0.584372 0.488098 0.261182 -0.669978
N5    N     N_R   0.249660 0.370729 0.536141 0.250312
O29   O     O_R   0.264572 0.292673 0.470137 -0.274332
O30   O     O_R   0.213573 0.529743 0.530427 -0.332964
N6    N     N_R   0.757316 0.832965 0.471886 0.249906
O31   O     O_R   0.734251 0.755395 0.533996 -0.298064
O32   O     O_R   0.802354 0.978416 0.484272 -0.334101
N7    N     N_R   0.362810 0.876118 0.867572 0.307413
O33   O     O_R   0.354868 0.705911 0.889214 -0.261149
O34   O     O_R   0.431725 0.955963 0.887498 -0.237564
N8    N     N_R   0.635539 0.381914 0.129045 0.308864
O35   O     O_R   0.591952 0.413083 0.058065 -0.215258
O36   O     O_R   0.627299 0.227030 0.165857 -0.288010

loop_
_geom_bond_atom_site_label_1
_geom_bond_atom_site_label_2
_geom_bond_distance
_ccdc_geom_bond_type
C20   F8    1.383545 S    
C15   C17   1.496396 S    
N4    O28   1.301753 A    
O1    C3    1.332088 A    
C10   F2    1.359184 S    
O2    C4    1.331914 A    
C2    O7    1.313898 A    
N5    O29   1.301289 A    
C31   C33   1.421573 A    
N3    O25   1.299488 A    
C24   C30   1.405880 A    
C20   H4    1.111463 S    
C10   C12   1.421502 A    
C7    C9    1.410041 A    
C12   C14   1.436508 A    
C21   C35   1.407744 A    
C22   C36   1.408353 A    
N8    O35   1.301045 A    
O18   V4    2.000846 S    
O16   V4    2.015357 S    
C17   H1    1.109499 S    
O12   V3    1.978135 S    
O15   V3    2.010308 S    
C29   C31   1.419982 A    
O13   C41   1.347516 A    
O14   C42   1.344883 A    
C30   N2    1.428308 S    
N7    O34   1.301285 A    
C16   C18   1.491947 S    
C33   C35   1.423193 A    
C34   C36   1.423027 A    
O17   V3    2.001388 S    
C23   C29   1.407689 A    
C21   C37   1.414019 A    
C32   C34   1.420848 A    
O6    V2    2.012450 S    
C1    C22   1.482461 S    
C25   C27   1.404843 A    
C38   N6    1.441724 S    
C26   C28   1.406389 A    
C25   C33   1.419894 A    
N5    O30   1.301624 A    
C30   C32   1.419331 A    
C37   C39   1.400134 A    
C38   C40   1.401321 A    
C3    C8    1.480589 S    
C24   C43   1.486975 S    
C18   H2    1.107326 S    
N3    O26   1.300430 A    
C5    C15   1.393422 A    
C42   O17   1.330630 A    
C28   F4    1.359593 S    
C6    C16   1.385763 A    
O4    C2    1.306902 A    
N1    O22   1.300562 A    
C23   C27   1.403518 A    
C37   N5    1.440358 S    
C19   F7    1.384242 S    
C25   N7    1.433545 S    
C13   C42   1.494049 S    
O4    V2    2.015348 S    
O5    C3    1.336433 A    
C14   C41   1.493864 S    
C26   N8    1.433560 S    
C22   C38   1.413343 A    
O12   C44   1.337335 A    
O6    C4    1.338495 A    
N6    O32   1.301582 A    
C2    C21   1.484413 S    
C29   N1    1.431464 S    
O1    V2    2.001073 S    
O2    V1    2.001615 S    
C12   N4    1.436428 S    
O11   V4    1.980677 S    
C26   C34   1.421232 A    
C18   F6    1.384037 S    
O11   C43   1.338720 A    
N2    O24   1.300797 A    
C39   H5    1.082330 S    
C5    C19   1.491942 S    
C19   H3    1.112263 S    
C13   C15   1.402112 A    
C17   F5    1.385216 S    
O3    V1    2.010297 S    
C31   C39   1.406214 A    
C32   C40   1.407192 A    
C41   O18   1.328885 A    
C8    C10   1.408028 A    
O20   V3    1.783838 S    
O3    C1    1.307172 A    
O19   V4    1.781470 S    
C27   F3    1.359747 S    
C9    F1    1.358128 S    
C14   C16   1.401429 A    
O13   V3    2.013399 S    
C9    C11   1.416953 A    
O7    V1    1.991434 S    
C1    O8    1.312890 A    
C17   C19   1.519173 S    
O8    V2    1.994368 S    
C18   C20   1.526275 S    
O16   C44   1.331869 A    
N8    O36   1.301309 A    
O15   C43   1.330789 A    
C4    C7    1.485678 S    
O5    V1    2.013674 S    
N6    O31   1.301212 A    
C5    C7    1.400023 A    
C23   C44   1.486043 S    
C40   H6    1.081815 S    
C36   F10   1.358468 S    
C6    C8    1.397322 A    
C11   C13   1.429838 A    
N1    O21   1.300648 A    
C24   C28   1.402374 A    
C6    C20   1.491473 S    
N4    O27   1.298211 A    
N2    O23   1.300023 A    
C11   N3    1.432134 S    
O9    V2    1.781873 S    
N7    O33   1.301258 A    
O10   V1    1.784243 S    
O14   V4    2.012168 S    
C35   F9    1.358227 S    
