data_mof_unit_13687.cif
_audit_creation_date              2012-12-10T20:43:19-0500
_audit_creation_method            fapswitch 2.2
_symmetry_space_group_name_H-M    P1
_symmetry_Int_Tables_number       1
_space_group_crystal_system       triclinic
_cell_length_a                    15.832891
_cell_length_b                    10.652631
_cell_length_c                    9.892098
_cell_angle_alpha                 89.849387
_cell_angle_beta                  90.605554
_cell_angle_gamma                 90.493037
_cell_volume                      1668.26017085

loop_
_atom_site_label
_atom_site_type_symbol
_atom_type_description
_atom_site_fract_x
_atom_site_fract_y
_atom_site_fract_z
_atom_type_partial_charge
C1    C     C_R   0.500337 0.260529 0.499946 0.888173
C2    C     C_R   0.042951 0.463044 0.620506 0.455918
C3    C     C_1   0.823733 0.499447 0.500602 -0.048099
C4    C     C_1   0.176158 0.497432 0.499461 -0.068808
C5    C     C_1   0.251037 0.498760 0.498372 -0.194571
C6    C     C_1   0.748894 0.500072 0.501639 -0.171045
C7    C     C_R   0.562025 0.062933 0.566688 0.097822
C8    C     C_R   0.500385 0.128859 0.496721 -0.097244
C9    C     C_R   0.444396 0.067248 0.408539 -0.251985
C10   C     C_R   0.440850 0.936882 0.407626 0.072795
C11   C     C_R   0.496222 0.871494 0.495890 -0.110539
C12   C     C_R   0.339441 0.499870 0.499357 0.887370
C13   C     C_R   0.559725 0.935087 0.566387 0.084568
C14   C     C_3   0.587960 0.926428 0.710689 -0.491146
C15   C     C_3   0.591001 0.068943 0.710672 -0.442228
C16   C     C_R   0.429107 0.466407 0.070066 0.115259
C17   C     C_R   0.566333 0.547427 0.073885 -0.130787
C18   C     C_R   0.565822 0.551018 0.930601 0.441189
C19   C     C_R   0.429130 0.465935 0.928116 0.118945
C20   C     C_3   0.381199 0.344620 0.923307 0.241540
C21   C     C_3   0.381782 0.345210 0.077454 -0.528321
C22   C     C_R   0.497455 0.739430 0.499448 0.864828
C23   C     C_R   0.660539 0.500338 0.500636 0.900036
C24   C     C_R   0.955420 0.464751 0.616484 -0.211351
C25   C     C_R   0.912740 0.498188 0.497855 0.039012
C26   C     C_R   0.956448 0.530602 0.379441 0.113123
C27   C     C_R   0.044358 0.529188 0.383288 -0.263645
C28   C     C_R   0.087108 0.495919 0.502081 0.017104
H1    H     H_    0.656123 0.107871 0.720730 0.201303
H2    H     H_    0.619912 0.585202 0.129522 0.164644
H3    H     H_    0.317528 0.353605 0.875499 0.100552
H4    H     H_    0.317889 0.357225 0.120774 0.169543
H5    H     H_    0.419761 0.268989 0.124475 0.228655
H6    H     H_    0.920491 0.440186 0.706690 0.173637
H7    H     H_    0.079750 0.553873 0.293571 0.163115
H8    H     H_    0.400390 0.120470 0.346647 0.151533
H9    H     H_    0.538553 0.886721 0.777966 0.216416
H10   H     H_    0.651338 0.883183 0.721258 0.213368
H11   H     H_    0.543937 0.111099 0.778623 0.262797
N1    N     N_R   0.499440 0.499140 0.142800 -0.122502
N2    N     N_R   0.499440 0.499180 0.857150 -0.134333
O1    O     O_R   0.500010 0.316790 0.614690 -0.560660
O2    O     O_R   0.500000 0.316760 0.385350 -0.621446
O3    O     O_R   0.378030 0.499990 0.614640 -0.617132
O4    O     O_R   0.378020 0.499950 0.385300 -0.614297
O5    O     O_R   0.500000 0.683240 0.614650 -0.652368
O6    O     O_R   0.499990 0.683210 0.385310 -0.619511
O7    O     O_R   0.621980 0.500050 0.614700 -0.597430
O8    O     O_R   0.621970 0.500010 0.385360 -0.622599
Zn1   Zn    Zn3+2 0.500010 0.500020 0.653130 0.978894
Zn2   Zn    Zn3+2 0.499990 0.499980 0.346870 0.942044
O9    O     O_3   0.081656 0.429423 0.741100 -0.779968
H12   H     H_    0.143751 0.431029 0.731479 0.335011
O10   O     O_3   0.632656 0.609462 0.868841 -0.782721
H13   H     H_    0.610083 0.649866 0.786453 0.367220
O11   O     O_3   0.429623 0.247353 0.870909 -0.742129
H14   H     H_    0.392774 0.171577 0.872673 0.324632
C29   C     C_3   0.911232 0.568156 0.249901 -0.407078
C30   C     C_3   0.876294 0.452777 0.174773 -0.357226
C31   C     C_3   0.831297 0.490585 0.043818 -0.790821
H15   H     H_    0.777904 0.554056 0.065770 0.273797
H16   H     H_    0.876003 0.538926 0.974812 0.262217
H17   H     H_    0.805973 0.405523 0.992334 0.252290
H18   H     H_    0.929027 0.388744 0.150202 0.232837
H19   H     H_    0.830848 0.400871 0.239469 0.232065
H20   H     H_    0.859303 0.634017 0.273218 0.205586
H21   H     H_    0.955360 0.619563 0.182199 0.201150
C32   C     C_3   0.373674 0.873161 0.320838 -0.392304
C33   C     C_3   0.402705 0.863202 0.173757 -0.303472
C34   C     C_3   0.338335 0.791198 0.087439 -0.888681
H22   H     H_    0.328886 0.694912 0.128257 0.268474
H23   H     H_    0.276931 0.840852 0.085799 0.262161
H24   H     H_    0.361643 0.783950 0.982268 0.243859
H25   H     H_    0.411361 0.958859 0.130505 0.214008
H26   H     H_    0.464234 0.814053 0.169332 0.242096
H27   H     H_    0.357182 0.778801 0.361070 0.206170
H28   H     H_    0.314354 0.928223 0.324381 0.188692

loop_
_geom_bond_atom_site_label_1
_geom_bond_atom_site_label_2
_ccdc_geom_bond_type
C16   C21   S    
C1    C8    S    
C19   C20   S    
C20   O11   S    
C3    C6    T    
C7    C8    A    
C30   H18   S    
C31   H17   S    
C23   O8    A    
C21   H5    S    
O4    Zn2   S    
O11   H14   S    
C31   H16   S    
C32   C33   S    
C29   H20   S    
C8    C9    A    
O8    Zn2   S    
C9    H8    S    
C34   H22   S    
C9    C10   A    
C7    C15   S    
C22   O6    A    
C30   C31   S    
C13   C14   S    
C17   H2    S    
C4    C28   S    
C1    O2    A    
C15   H1    S    
C21   H4    S    
C3    C25   S    
C24   C25   A    
C5    C12   S    
C18   N2    A    
C4    C5    T    
O6    Zn2   S    
C27   H7    S    
C29   C30   S    
C24   H6    S    
C31   H15   S    
C17   N1    A    
C14   H10   S    
C1    O1    A    
C34   H24   S    
C17   C18   A    
C26   C27   A    
C33   H25   S    
C26   C29   S    
C15   H11   S    
C2    O9    S    
C16   N1    A    
C22   O5    A    
O1    Zn1   S    
C2    C24   A    
N2    Zn1   S    
O9    H12   S    
O3    Zn1   S    
C32   H28   S    
O10   H13   S    
C23   O7    A    
C12   O4    A    
C2    C28   A    
C10   C32   S    
C32   H27   S    
N1    Zn2   S    
O5    Zn1   S    
C11   C22   S    
C25   C26   A    
C12   O3    A    
C30   H19   S    
C14   H9    S    
C11   C13   A    
O2    Zn2   S    
C16   C19   A    
C6    C23   S    
O7    Zn1   S    
C33   H26   S    
C33   C34   S    
C10   C11   A    
C18   O10   S    
C29   H21   S    
C7    C13   A    
C20   C21   S    
C27   C28   A    
C14   C15   S    
C34   H23   S    
C19   N2    A    
C20   H3    S    
