data_mof_unit_65742.cif
_audit_creation_date              2012-12-10T17:46:43-0500
_audit_creation_method            fapswitch 2.2
_symmetry_space_group_name_H-M    P1
_symmetry_Int_Tables_number       1
_space_group_crystal_system       triclinic
_cell_length_a                    30.43092
_cell_length_b                    30.430934
_cell_length_c                    18.344058
_cell_angle_alpha                 90.000756
_cell_angle_beta                  90.000416
_cell_angle_gamma                 90.000024
_cell_volume                      16987.3556473

loop_
_atom_site_label
_atom_site_type_symbol
_atom_type_description
_atom_site_fract_x
_atom_site_fract_y
_atom_site_fract_z
_atom_type_partial_charge
C1    C     C_R   0.226067 0.000000 0.500001 -0.081779
C2    C     C_R   0.000006 0.226468 0.500004 -0.063498
C3    C     C_R   0.773933 0.000000 0.499999 -0.081776
C4    C     C_R   1.000000 0.773532 0.500000 -0.063488
C5    C     C_R   0.726468 0.499993 0.999999 -0.063494
C6    C     C_R   0.500000 0.726067 0.000002 -0.081776
C7    C     C_R   0.273532 0.500001 0.999998 -0.063486
C8    C     C_R   0.500000 0.273933 0.999999 -0.081777
C9    C     C_R   0.203044 0.036358 0.470859 -0.054650
C10   C     C_R   0.977621 0.203601 0.444502 -0.052133
C11   C     C_R   0.796956 0.963642 0.470855 -0.054651
C12   C     C_R   0.022389 0.796399 0.444503 -0.052132
C13   C     C_R   0.796956 0.036358 0.529142 -0.054649
C14   C     C_R   0.022391 0.203600 0.555504 -0.052136
C15   C     C_R   0.203044 0.963642 0.529143 -0.054648
C16   C     C_R   0.977610 0.796400 0.555495 -0.052129
C17   C     C_R   0.703601 0.522381 0.944501 -0.052130
C18   C     C_R   0.463642 0.703044 0.970857 -0.054650
C19   C     C_R   0.296399 0.477610 0.944504 -0.052132
C20   C     C_R   0.536358 0.296956 0.970854 -0.054649
C21   C     C_R   0.296400 0.522391 0.055494 -0.052134
C22   C     C_R   0.536358 0.703044 0.029146 -0.054650
C23   C     C_R   0.703600 0.477607 0.055498 -0.052138
C24   C     C_R   0.463643 0.296956 0.029143 -0.054650
C25   C     C_R   0.156636 0.036423 0.470815 -0.087052
C26   C     C_R   0.977490 0.157285 0.444224 -0.097694
C27   C     C_R   0.843364 0.963577 0.470811 -0.087055
C28   C     C_R   0.022515 0.842716 0.444223 -0.097694
C29   C     C_R   0.843364 0.036423 0.529186 -0.087057
C30   C     C_R   0.022519 0.157283 0.555780 -0.097701
C31   C     C_R   0.156636 0.963577 0.529187 -0.087057
C32   C     C_R   0.977481 0.842717 0.555772 -0.097702
C33   C     C_R   0.657284 0.522512 0.944225 -0.097697
C34   C     C_R   0.463577 0.656636 0.970813 -0.087055
C35   C     C_R   0.342716 0.477482 0.944225 -0.097700
C36   C     C_R   0.536422 0.343364 0.970810 -0.087051
C37   C     C_R   0.342717 0.522518 0.055773 -0.097696
C38   C     C_R   0.536422 0.656636 0.029190 -0.087056
C39   C     C_R   0.657283 0.477482 0.055777 -0.097692
C40   C     C_R   0.463578 0.343364 0.029187 -0.087055
C41   C     C_R   0.133480 0.000000 0.500001 -0.183325
C42   C     C_R   0.000003 0.133932 0.500001 -0.174014
C43   C     C_R   0.866520 1.000000 0.499999 -0.183327
C44   C     C_R   0.999998 0.866068 0.499998 -0.174014
C45   C     C_R   0.633932 0.499998 0.000001 -0.174018
C46   C     C_R   0.500000 0.633480 0.000001 -0.183328
C47   C     C_R   0.366068 0.500000 1.000000 -0.174014
C48   C     C_R   0.500000 0.366520 0.999998 -0.183326
C49   C     C_R   0.415096 0.000000 0.500000 0.868324
C50   C     C_R   0.000000 0.415111 0.500005 0.871915
C51   C     C_R   0.584904 0.000000 0.500000 0.868326
C52   C     C_R   0.000000 0.584889 0.500000 0.872020
C53   C     C_R   0.915111 0.500000 0.000002 0.871965
C54   C     C_R   0.500000 0.915096 1.000000 0.868325
C55   C     C_R   0.084889 0.500000 1.000000 0.872015
C56   C     C_R   0.500000 0.084904 0.000000 0.868324
C57   C     C_R   0.500000 1.000000 0.360232 0.920454
C58   C     C_R   1.000000 0.499999 0.360234 0.920824
C59   C     C_R   0.500000 0.000000 0.639768 0.920457
C60   C     C_R   0.000000 0.499999 0.639766 0.920840
C61   C     C_R   1.000000 0.500000 0.860234 0.920854
C62   C     C_R   0.500000 1.000000 0.860232 0.920457
C63   C     C_R   1.000000 0.500000 0.139766 0.920857
C64   C     C_R   0.500000 1.000000 0.139768 0.920454
C65   C     C_R   0.999999 0.914779 0.499999 0.855723
C66   C     C_R   0.085060 1.000000 0.500000 0.841249
C67   C     C_R   0.000001 0.085221 0.500000 0.855718
C68   C     C_R   0.914940 1.000000 0.500000 0.841251
C69   C     C_R   0.500000 0.414940 1.000000 0.841246
C70   C     C_R   0.585221 0.500000 0.000000 0.855709
C71   C     C_R   0.500000 0.585060 0.000000 0.841248
C72   C     C_R   0.414779 0.500000 1.000000 0.855722
C73   C     C_1   0.500000 0.999999 0.282664 -0.088270
C74   C     C_1   0.999999 0.500000 0.282667 -0.070851
C75   C     C_1   0.500000 0.000001 0.717336 -0.088269
C76   C     C_1   0.000000 0.499999 0.717333 -0.070861
C77   C     C_1   1.000000 0.499999 0.782667 -0.070845
C78   C     C_1   0.500000 0.000000 0.782664 -0.088268
C79   C     C_1   0.999999 0.500000 0.217333 -0.070844
C80   C     C_1   0.500000 0.999999 0.217335 -0.088270
C81   C     C_R   0.297484 0.004085 0.565546 -0.104636
C82   C     C_R   0.976881 0.297631 0.553639 -0.118976
C83   C     C_R   0.702517 0.995919 0.565546 -0.104640
C84   C     C_R   0.023106 0.702368 0.553652 -0.118967
C85   C     C_R   0.702516 0.004081 0.434453 -0.104638
C86   C     C_R   0.023130 0.297634 0.446379 -0.118975
C87   C     C_R   0.297483 0.995916 0.434454 -0.104637
C88   C     C_R   0.976893 0.702366 0.446348 -0.118986
C89   C     C_R   0.797631 0.523110 0.053643 -0.118985
C90   C     C_R   0.495919 0.797484 0.065547 -0.104638
C91   C     C_R   0.202368 0.476896 0.053651 -0.118984
C92   C     C_R   0.504084 0.202517 0.065545 -0.104639
C93   C     C_R   0.202367 0.523105 0.946345 -0.118968
C94   C     C_R   0.504082 0.797483 0.934455 -0.104639
C95   C     C_R   0.797634 0.476879 0.946361 -0.118962
C96   C     C_R   0.495917 0.202516 0.934453 -0.104637
C97   C     C_R   0.343475 0.004458 0.566744 -0.036106
C98   C     C_R   0.977165 0.343535 0.555436 -0.042785
C99   C     C_R   0.656526 0.995546 0.566744 -0.036103
C100  C     C_R   0.022819 0.656464 0.555448 -0.042791
C101  C     C_R   0.656525 0.004454 0.433256 -0.036102
C102  C     C_R   0.022841 0.343537 0.444585 -0.042732
C103  C     C_R   0.343474 0.995543 0.433256 -0.036105
C104  C     C_R   0.977181 0.656463 0.444552 -0.042784
C105  C     C_R   0.843535 0.522826 0.055440 -0.042783
C106  C     C_R   0.495545 0.843475 0.066744 -0.036101
C107  C     C_R   0.156464 0.477183 0.055448 -0.042787
C108  C     C_R   0.504456 0.156526 0.066743 -0.036105
C109  C     C_R   0.156463 0.522817 0.944550 -0.042789
C110  C     C_R   0.504455 0.843474 0.933257 -0.036105
C111  C     C_R   0.843537 0.477169 0.944567 -0.042766
C112  C     C_R   0.495544 0.156525 0.933256 -0.036103
C113  C     C_R   0.366874 0.000000 0.500000 -0.158168
C114  C     C_R   0.000001 0.366921 0.500008 -0.165288
C115  C     C_R   0.633126 0.000000 0.500000 -0.158168
C116  C     C_R   0.000000 0.633079 0.500000 -0.165285
C117  C     C_R   0.866921 0.499999 0.000003 -0.165285
C118  C     C_R   0.500000 0.866874 0.000000 -0.158168
C119  C     C_R   0.133079 0.500000 0.999999 -0.165283
C120  C     C_R   0.500000 0.133126 1.000000 -0.158168
C121  C     C_R   0.274627 0.000000 0.500000 0.087640
C122  C     C_R   0.000006 0.274874 0.500008 0.064065
C123  C     C_R   0.725373 0.000000 0.499999 0.087645
C124  C     C_R   1.000000 0.725125 0.500000 0.064061
C125  C     C_R   0.774874 0.499993 0.000002 0.064067
C126  C     C_R   0.500001 0.774627 0.000001 0.087644
C127  C     C_R   0.225126 0.500000 0.999998 0.064067
C128  C     C_R   0.500001 0.225373 0.999999 0.087644
Cu1   Cu    Cu3+1 0.500000 0.044060 0.500000 1.085302
Cu2   Cu    Cu3+1 0.955940 0.500000 0.500000 1.083964
Cu3   Cu    Cu3+1 0.500000 0.955940 0.500000 1.085300
Cu4   Cu    Cu3+1 0.044060 0.500000 0.500000 1.083929
Cu5   Cu    Cu3+1 1.000000 0.544060 0.000000 1.083957
Cu6   Cu    Cu3+1 0.455940 0.000000 0.000000 1.085302
Cu7   Cu    Cu3+1 1.000000 0.455940 0.000000 1.083947
Cu8   Cu    Cu3+1 0.544060 0.000000 0.000000 1.085299
Cu9   Cu    Cu3+1 0.000000 1.000000 0.427490 1.135422
Cu10  Cu    Cu3+1 0.000000 0.000000 0.572510 1.135415
Cu11  Cu    Cu3+1 0.500000 0.500000 0.927490 1.135417
Cu12  Cu    Cu3+1 0.500000 0.500000 0.072510 1.135424
H1    H     H_    0.279032 0.007616 0.615763 0.181548
H2    H     H_    0.959542 0.279204 0.595259 0.191460
H3    H     H_    0.720969 0.992390 0.615762 0.181545
H4    H     H_    0.040433 0.720795 0.595287 0.191470
H5    H     H_    0.720968 0.007610 0.384236 0.181543
H6    H     H_    0.040473 0.279210 0.404757 0.191391
H7    H     H_    0.279030 0.992385 0.384238 0.181548
H8    H     H_    0.959567 0.720792 0.404712 0.191455
H9    H     H_    0.779204 0.540443 0.095271 0.191456
H10   H     H_    0.492390 0.779033 0.115765 0.181543
H11   H     H_    0.220794 0.459570 0.095288 0.191455
H12   H     H_    0.507614 0.220970 0.115762 0.181546
H13   H     H_    0.220793 0.540431 0.904709 0.191466
H14   H     H_    0.507612 0.779030 0.884238 0.181546
H15   H     H_    0.779209 0.459543 0.904733 0.191434
H16   H     H_    0.492387 0.220967 0.884236 0.181545
O1    O     O_R   0.435730 0.037210 0.500000 -0.560182
O2    O     O_R   0.962790 0.435730 0.500000 -0.570551
O3    O     O_R   0.564270 0.962790 0.500000 -0.560184
O4    O     O_R   0.037210 0.564270 0.500000 -0.570568
O5    O     O_R   0.564270 0.037210 0.500000 -0.560183
O6    O     O_R   0.037210 0.435730 0.500000 -0.570628
O7    O     O_R   0.435730 0.962790 0.500000 -0.560182
O8    O     O_R   0.962790 0.564270 0.500000 -0.570577
O9    O     O_R   0.935730 0.537210 0.000000 -0.570562
O10   O     O_R   0.462790 0.935730 0.000000 -0.560181
O11   O     O_R   0.064270 0.462790 0.000000 -0.570574
O12   O     O_R   0.537210 0.064270 0.000000 -0.560184
O13   O     O_R   0.064270 0.537210 0.000000 -0.570576
O14   O     O_R   0.537210 0.935730 0.000000 -0.560186
O15   O     O_R   0.935730 0.462790 0.000000 -0.570603
O16   O     O_R   0.462790 0.064270 0.000000 -0.560181
O17   O     O_R   0.500010 0.037210 0.394200 -0.570028
O18   O     O_R   0.962790 0.500010 0.394200 -0.567809
O19   O     O_R   0.499990 0.962790 0.394200 -0.570028
O20   O     O_R   0.037210 0.499990 0.394200 -0.567833
O21   O     O_R   0.499990 0.037210 0.605800 -0.570026
O22   O     O_R   0.037210 0.500010 0.605800 -0.567819
O23   O     O_R   0.500010 0.962790 0.605800 -0.570029
O24   O     O_R   0.962790 0.499990 0.605800 -0.567789
O25   O     O_R   0.000010 0.537210 0.894200 -0.567811
O26   O     O_R   0.462790 0.000010 0.894200 -0.570027
O27   O     O_R   0.999990 0.462790 0.894200 -0.567826
O28   O     O_R   0.537210 0.999990 0.894200 -0.570030
O29   O     O_R   0.999990 0.537210 0.105800 -0.567801
O30   O     O_R   0.537210 0.000010 0.105800 -0.570030
O31   O     O_R   0.000010 0.462790 0.105800 -0.567810
O32   O     O_R   0.462790 0.999990 0.105800 -0.570026
O33   O     O_R   0.999990 0.935750 0.438770 -0.559176
O34   O     O_R   0.064250 0.999990 0.438770 -0.545683
O35   O     O_R   0.000010 0.064250 0.438770 -0.559173
O36   O     O_R   0.935750 0.000010 0.438770 -0.545682
O37   O     O_R   0.000010 0.935750 0.561230 -0.559168
O38   O     O_R   0.935750 0.999990 0.561230 -0.545678
O39   O     O_R   0.999990 0.064250 0.561230 -0.559171
O40   O     O_R   0.064250 0.000010 0.561230 -0.545679
O41   O     O_R   0.499990 0.435750 0.938770 -0.545680
O42   O     O_R   0.564250 0.499990 0.938770 -0.559172
O43   O     O_R   0.500010 0.564250 0.938770 -0.545677
O44   O     O_R   0.435750 0.500010 0.938770 -0.559170
O45   O     O_R   0.500010 0.435750 0.061230 -0.545681
O46   O     O_R   0.435750 0.499990 0.061230 -0.559174
O47   O     O_R   0.499990 0.564250 0.061230 -0.545682
O48   O     O_R   0.564250 0.500010 0.061230 -0.559176
C129  C     C_2   0.365392 0.009373 0.638895 0.841528
O49   O     O_2   0.401805 0.025991 0.643757 -0.602075
O50   O     O_R   0.343534 0.995929 0.702177 -0.733991
H17   H     H_    0.361496 0.001151 0.747927 0.353592
C130  C     C_2   0.954619 0.365387 0.617626 0.869310
O51   O     O_2   0.968441 0.400072 0.642166 -0.612135
O52   O     O_R   0.918258 0.345209 0.650121 -0.726303
H18   H     H_    0.906027 0.362837 0.692415 0.346794
C131  C     C_2   0.634610 0.990634 0.638896 0.841530
O53   O     O_2   0.598196 0.974018 0.643760 -0.602080
O54   O     O_R   0.656469 0.004082 0.702176 -0.733990
H19   H     H_    0.638507 0.998863 0.747926 0.353591
C132  C     C_2   0.045346 0.634613 0.617658 0.869285
O55   O     O_2   0.031518 0.599926 0.642181 -0.612165
O56   O     O_R   0.081695 0.654793 0.650188 -0.726306
H20   H     H_    0.093912 0.637165 0.692491 0.346793
C133  C     C_2   0.634608 0.009366 0.361104 0.841525
O57   O     O_2   0.598195 0.025985 0.356240 -0.602078
O58   O     O_R   0.656465 0.995916 0.297824 -0.733989
H21   H     H_    0.638502 0.001135 0.252074 0.353590
C134  C     C_2   0.045392 0.365392 0.382406 0.869307
O59   O     O_2   0.031535 0.400048 0.357807 -0.612130
O60   O     O_R   0.081801 0.345251 0.349996 -0.726270
H22   H     H_    0.094036 0.362880 0.307710 0.346786
C135  C     C_2   0.365390 0.990627 0.361105 0.841529
O61   O     O_2   0.401804 0.974010 0.356243 -0.602074
O62   O     O_R   0.343531 0.004071 0.297823 -0.733991
H23   H     H_    0.361493 0.998850 0.252074 0.353592
C136  C     C_2   0.954654 0.634610 0.382343 0.869289
O63   O     O_2   0.968484 0.599924 0.357818 -0.612159
O64   O     O_R   0.918303 0.654788 0.349817 -0.726310
H24   H     H_    0.906085 0.637159 0.307514 0.346794
C137  C     C_2   0.865386 0.545365 0.117640 0.869295
O65   O     O_2   0.900074 0.531542 0.142170 -0.612151
O66   O     O_R   0.845204 0.581718 0.150155 -0.726308
H25   H     H_    0.862832 0.593943 0.192453 0.346794
C138  C     C_2   0.490633 0.865393 0.138896 0.841524
O67   O     O_2   0.474013 0.901805 0.143759 -0.602075
O68   O     O_R   0.504083 0.843537 0.202177 -0.733989
H26   H     H_    0.498863 0.861500 0.247926 0.353590
C139  C     C_2   0.134612 0.454658 0.117658 0.869292
O69   O     O_2   0.099926 0.468488 0.142182 -0.612161
O70   O     O_R   0.154791 0.418309 0.150187 -0.726314
H27   H     H_    0.137164 0.406092 0.192491 0.346795
C140  C     C_2   0.509370 0.134610 0.138896 0.841529
O71   O     O_2   0.525987 0.098197 0.143759 -0.602077
O72   O     O_R   0.495923 0.156469 0.202176 -0.733990
H28   H     H_    0.501143 0.138508 0.247926 0.353592
C141  C     C_2   0.134610 0.545342 0.882340 0.869283
O73   O     O_2   0.099924 0.531513 0.857817 -0.612172
O74   O     O_R   0.154789 0.581691 0.849809 -0.726306
H29   H     H_    0.137161 0.593907 0.807506 0.346793
C142  C     C_2   0.509367 0.865389 0.861104 0.841531
O75   O     O_2   0.525983 0.901803 0.856240 -0.602080
O76   O     O_R   0.495920 0.843530 0.797824 -0.733989
H30   H     H_    0.501139 0.861492 0.752074 0.353590
C143  C     C_2   0.865392 0.454631 0.882372 0.869301
O77   O     O_2   0.900063 0.468475 0.857812 -0.612146
O78   O     O_R   0.845232 0.418252 0.849899 -0.726291
H31   H     H_    0.862861 0.406027 0.807604 0.346790
C144  C     C_2   0.490629 0.134607 0.861104 0.841526
O79   O     O_2   0.474011 0.098194 0.856242 -0.602076
O80   O     O_R   0.504077 0.156464 0.797823 -0.733989
H32   H     H_    0.498855 0.138501 0.752073 0.353591
C145  C     C_2   0.227601 0.074292 0.439491 0.900930
O81   O     O_2   0.257572 0.091309 0.473796 -0.547851
O82   O     O_R   0.216245 0.090487 0.370691 -0.722452
H33   H     H_    0.235186 0.116283 0.355337 0.359639
C146  C     C_2   0.952165 0.228570 0.389245 0.865562
O83   O     O_2   0.920016 0.249854 0.407994 -0.550284
O84   O     O_R   0.965788 0.228722 0.316509 -0.695976
H34   H     H_    0.946088 0.247312 0.284337 0.355583
C147  C     C_2   0.772398 0.925708 0.439486 0.900930
O85   O     O_2   0.742427 0.908691 0.473790 -0.547850
O86   O     O_R   0.783753 0.909513 0.370684 -0.722451
H35   H     H_    0.764812 0.883717 0.355329 0.359640
C148  C     C_2   0.047852 0.771431 0.389254 0.865532
O87   O     O_2   0.080000 0.750149 0.408014 -0.550280
O88   O     O_R   0.034238 0.771278 0.316513 -0.695970
H36   H     H_    0.053942 0.752689 0.284348 0.355583
C149  C     C_2   0.772399 0.074292 0.560511 0.900928
O89   O     O_2   0.742427 0.091309 0.526207 -0.547853
O90   O     O_R   0.783755 0.090488 0.629311 -0.722452
H37   H     H_    0.764815 0.116284 0.644666 0.359640
C150  C     C_2   0.047848 0.228567 0.610761 0.865587
O91   O     O_2   0.080005 0.249840 0.592016 -0.550271
O92   O     O_R   0.034217 0.228730 0.683493 -0.695976
H38   H     H_    0.053919 0.247319 0.715666 0.355581
C151  C     C_2   0.227602 0.925709 0.560511 0.900931
O93   O     O_2   0.257573 0.908691 0.526207 -0.547855
O94   O     O_R   0.216247 0.909514 0.629312 -0.722452
H39   H     H_    0.235188 0.883718 0.644666 0.359639
C152  C     C_2   0.952148 0.771433 0.610744 0.865569
O95   O     O_2   0.919991 0.750162 0.591990 -0.550277
O96   O     O_R   0.965774 0.771267 0.683479 -0.695977
H40   H     H_    0.946069 0.752679 0.715646 0.355584
C153  C     C_2   0.728570 0.547838 0.889248 0.865573
O97   O     O_2   0.749844 0.579994 0.907998 -0.550281
O98   O     O_R   0.728733 0.534210 0.816515 -0.695980
H41   H     H_    0.747322 0.553912 0.784345 0.355583
C154  C     C_2   0.425709 0.727602 0.939488 0.900928
O99   O     O_2   0.408692 0.757573 0.973791 -0.547852
O100  O     O_R   0.409515 0.716246 0.870686 -0.722452
H42   H     H_    0.383719 0.735186 0.855330 0.359640
C155  C     C_2   0.271432 0.452146 0.889255 0.865563
O101  O     O_2   0.250158 0.419991 0.908012 -0.550278
O102  O     O_R   0.271268 0.465767 0.816519 -0.695975
H43   H     H_    0.252680 0.446061 0.784353 0.355584
C156  C     C_2   0.574291 0.272398 0.939484 0.900927
O103  O     O_2   0.591309 0.242427 0.973788 -0.547852
O104  O     O_R   0.590485 0.283753 0.870683 -0.722453
H44   H     H_    0.616281 0.264813 0.855327 0.359640
C157  C     C_2   0.271433 0.547856 0.110741 0.865536
O105  O     O_2   0.250150 0.580003 0.091980 -0.550282
O106  O     O_R   0.271281 0.534244 0.183483 -0.695970
H45   H     H_    0.252692 0.553950 0.215647 0.355583
C158  C     C_2   0.574292 0.727602 0.060515 0.900928
O107  O     O_2   0.591310 0.757572 0.026211 -0.547851
O108  O     O_R   0.590487 0.716247 0.129317 -0.722450
H46   H     H_    0.616283 0.735187 0.144672 0.359640
C159  C     C_2   0.728567 0.452147 0.110751 0.865544
O109  O     O_2   0.749851 0.419998 0.091995 -0.550274
O110  O     O_R   0.728717 0.465763 0.183490 -0.695969
H47   H     H_    0.747306 0.446060 0.215659 0.355583
C160  C     C_2   0.425710 0.272398 0.060513 0.900928
O111  O     O_2   0.408692 0.242427 0.026209 -0.547852
O112  O     O_R   0.409517 0.283754 0.129315 -0.722451
H48   H     H_    0.383721 0.264813 0.144671 0.359640
C161  C     C_2   0.132728 0.076166 0.444690 0.916610
O113  O     O_2   0.104813 0.073102 0.397075 -0.543196
O114  O     O_R   0.143444 0.117419 0.473193 -0.703157
H49   H     H_    0.125165 0.141925 0.451204 0.354959
C162  C     C_2   0.951307 0.133518 0.388197 0.904895
O115  O     O_2   0.959184 0.138786 0.323447 -0.508041
O116  O     O_R   0.918230 0.104471 0.409811 -0.756019
H50   H     H_    0.903023 0.089921 0.366974 0.351722
C163  C     C_2   0.867271 0.923834 0.444683 0.916619
O117  O     O_2   0.895186 0.926899 0.397070 -0.543194
O118  O     O_R   0.856555 0.882580 0.473181 -0.703159
H51   H     H_    0.874833 0.858075 0.451191 0.354961
C164  C     C_2   0.048697 0.866483 0.388198 0.904897
O119  O     O_2   0.040819 0.861216 0.323448 -0.508031
O120  O     O_R   0.081773 0.895531 0.409814 -0.756027
H52   H     H_    0.096979 0.910082 0.366978 0.351720
C165  C     C_2   0.867272 0.076166 0.555313 0.916605
O121  O     O_2   0.895187 0.073102 0.602927 -0.543197
O122  O     O_R   0.856556 0.117420 0.526812 -0.703153
H53   H     H_    0.874834 0.141925 0.548802 0.354962
C166  C     C_2   0.048700 0.133515 0.611806 0.904891
O123  O     O_2   0.040829 0.138790 0.676557 -0.508058
O124  O     O_R   0.081770 0.104460 0.590190 -0.756021
H54   H     H_    0.096976 0.089910 0.633027 0.351722
C167  C     C_2   0.132729 0.923834 0.555314 0.916610
O125  O     O_2   0.104814 0.926899 0.602927 -0.543199
O126  O     O_R   0.143445 0.882580 0.526814 -0.703152
H55   H     H_    0.125167 0.858075 0.548803 0.354962
C168  C     C_2   0.951296 0.866484 0.611796 0.904892
O127  O     O_2   0.959163 0.861208 0.676547 -0.508059
O128  O     O_R   0.918230 0.895541 0.590176 -0.756029
H56   H     H_    0.903021 0.910091 0.633012 0.351722
C169  C     C_2   0.633518 0.548697 0.888201 0.904892
O129  O     O_2   0.638793 0.540827 0.823449 -0.508059
O130  O     O_R   0.604465 0.581768 0.909819 -0.756019
H57   H     H_    0.589916 0.596977 0.866983 0.351722
C170  C     C_2   0.423834 0.632729 0.944684 0.916616
O131  O     O_2   0.426899 0.604813 0.897071 -0.543199
O132  O     O_R   0.382580 0.643446 0.973182 -0.703154
H58   H     H_    0.358075 0.625167 0.951190 0.354962
C171  C     C_2   0.366483 0.451296 0.888202 0.904891
O133  O     O_2   0.361208 0.459164 0.823451 -0.508052
O134  O     O_R   0.395539 0.418228 0.909822 -0.756030
H59   H     H_    0.410088 0.403019 0.866987 0.351722
C172  C     C_2   0.576164 0.367271 0.944679 0.916607
O135  O     O_2   0.573098 0.395185 0.897064 -0.543195
O136  O     O_R   0.617419 0.356557 0.973180 -0.703152
H60   H     H_    0.641923 0.374835 0.951188 0.354959
C173  C     C_2   0.366485 0.548702 0.111798 0.904898
O137  O     O_2   0.361217 0.540827 0.176548 -0.508032
O138  O     O_R   0.395534 0.581775 0.090180 -0.756032
H61   H     H_    0.410085 0.596983 0.133015 0.351720
C174  C     C_2   0.576165 0.632729 0.055319 0.916609
O139  O     O_2   0.573100 0.604815 0.102934 -0.543190
O140  O     O_R   0.617419 0.643443 0.026818 -0.703156
H62   H     H_    0.641924 0.625165 0.048809 0.354962
C175  C     C_2   0.633515 0.451301 0.111802 0.904900
O141  O     O_2   0.638781 0.459181 0.176553 -0.508031
O142  O     O_R   0.604467 0.418225 0.090186 -0.756023
H63   H     H_    0.589915 0.403020 0.133023 0.351720
C176  C     C_2   0.423835 0.367271 0.055316 0.916617
O143  O     O_2   0.426901 0.395186 0.102930 -0.543191
O144  O     O_R   0.382581 0.356555 0.026817 -0.703158
H64   H     H_    0.358076 0.374833 0.048808 0.354961

loop_
_geom_bond_atom_site_label_1
_geom_bond_atom_site_label_2
_ccdc_geom_bond_type
C49   C113  S    
C22   C158  S    
C167  O125  D    
C33   C45   A    
C108  C120  A    
O92   H38   S    
C35   C47   A    
C110  C118  A    
C162  O115  D    
C89   C125  A    
C161  O113  D    
Cu2   O18   S    
C91   C127  A    
C32   C168  S    
C98   C114  A    
O82   H33   S    
C22   C38   A    
O120  H52   S    
C111  C143  S    
Cu9   O35   S    
O58   H21   S    
C43   C68   S    
C1    C15   A    
C4    C12   A    
C3    C13   A    
C160  O111  D    
C155  O102  S    
C139  O69   D    
C106  C118  A    
C82   C98   A    
Cu1   O17   S    
C58   O18   A    
C166  O124  S    
C3    C123  S    
C131  O54   S    
C70   O48   A    
C61   O27   A    
O108  H46   S    
C84   C100  A    
C91   C107  A    
O72   H28   S    
C25   C41   A    
C112  C120  A    
C55   C119  S    
C99   C131  S    
Cu10  O39   S    
C60   C76   S    
C102  C134  S    
C81   C121  A    
C50   C114  S    
O54   H19   S    
C135  O61   D    
C102  C114  A    
Cu12  O46   S    
O60   H22   S    
C11   C27   A    
O134  H59   S    
C90   C126  A    
C57   O17   A    
C13   C149  S    
C65   O33   A    
C7    C19   A    
C74   C79   T    
C145  O82   S    
C175  O141  D    
C101  C115  A    
C106  C138  S    
O138  H61   S    
C143  O78   S    
Cu10  O37   S    
Cu2   O8    S    
C40   C48   A    
Cu8   O30   S    
C25   C161  S    
Cu11  Cu12  S    
C176  O143  D    
C21   C157  S    
C19   C155  S    
C93   H13   S    
C149  O90   S    
C19   C35   A    
C169  O129  D    
C83   H3    S    
C96   H16   S    
C85   C123  A    
C2    C14   A    
C3    C11   A    
O114  H49   S    
C158  O107  D    
O126  H55   S    
Cu5   Cu7   S    
C105  C137  S    
C142  O76   S    
C82   C122  A    
C64   O30   A    
O68   H26   S    
Cu4   O22   S    
C174  O140  S    
C52   O4    A    
C67   O35   A    
C165  O121  D    
C50   O6    A    
O122  H53   S    
Cu7   O27   S    
C90   H10   S    
C40   C176  S    
C50   O2    A    
C140  O71   D    
C133  O57   D    
C85   H5    S    
Cu12  O48   S    
C143  O77   D    
C156  O104  S    
C33   C169  S    
C84   H4    S    
C4    C124  S    
C138  O67   D    
C39   C175  S    
Cu3   O19   S    
C159  O110  S    
C57   O19   A    
C8    C128  S    
C61   C77   S    
C154  O100  S    
C34   C46   A    
C37   C47   A    
C136  O63   D    
Cu5   O29   S    
C39   C45   A    
C70   O42   A    
C104  C116  A    
C147  O85   D    
C29   C165  S    
C152  O96   S    
C49   O1    A    
C44   C65   S    
Cu6   O26   S    
Cu7   O31   S    
C88   C104  A    
C146  O83   D    
C161  O114  S    
C163  O118  S    
C32   C44   A    
C134  O60   S    
C98   C130  S    
Cu11  O44   S    
C132  O55   D    
C4    C16   A    
Cu10  O38   S    
C151  O93   D    
C136  O64   S    
C23   C159  S    
C5    C23   A    
O86   H35   S    
C130  O51   D    
Cu1   O5    S    
Cu3   O3    S    
C144  O80   S    
C64   O32   A    
Cu2   O24   S    
Cu5   O25   S    
Cu8   O14   S    
C63   O31   A    
C42   C67   S    
C86   C102  A    
C26   C42   A    
C72   O46   A    
O124  H54   S    
C9    C145  S    
C130  O52   S    
C31   C41   A    
C62   C78   S    
O80   H32   S    
C15   C31   A    
C41   C66   S    
Cu10  O40   S    
C16   C32   A    
C111  C117  A    
C97   C129  S    
C137  O66   S    
C66   O34   A    
C89   H9    S    
C8    C24   A    
C55   O13   A    
C36   C48   A    
C37   C173  S    
Cu4   O6    S    
C49   O7    A    
C62   O28   A    
Cu9   O34   S    
C89   C105  A    
O88   H36   S    
Cu7   O11   S    
C68   O38   A    
C7    C127  S    
C97   C113  A    
C112  C144  S    
C29   C43   A    
O76   H30   S    
C93   C109  A    
C170  O132  S    
C103  C135  S    
C54   O14   A    
O66   H25   S    
C100  C116  A    
C55   O11   A    
C82   H2    S    
C166  O123  D    
Cu11  O42   S    
C9    C25   A    
O136  H60   S    
C131  O53   D    
C168  O128  S    
C58   C74   S    
C87   H7    S    
C12   C28   A    
C13   C29   A    
C26   C162  S    
C171  O134  S    
C99   C115  A    
C5    C17   A    
C60   O22   A    
O132  H58   S    
C6    C22   A    
C96   C128  A    
Cu4   O20   S    
C157  O106  S    
Cu5   O13   S    
C63   O29   A    
C86   C122  A    
C2    C122  S    
O128  H56   S    
Cu6   O10   S    
Cu7   O15   S    
C164  O120  S    
C88   C124  A    
C12   C148  S    
C52   C116  S    
O104  H44   S    
C167  O126  S    
C83   C99   A    
C145  O81   D    
C56   O16   A    
C64   C80   S    
C105  C117  A    
C17   C33   A    
C54   O10   A    
C86   H6    S    
C107  C119  A    
C162  O116  S    
C65   O37   A    
C153  O98   S    
C173  O138  S    
O50   H17   S    
C1    C9    A    
C6    C126  S    
O56   H20   S    
C87   C121  A    
C20   C156  S    
C155  O101  D    
Cu1   O21   S    
C94   C110  A    
C51   C115  S    
O100  H42   S    
C18   C154  S    
Cu2   Cu4   S    
O96   H40   S    
C149  O89   D    
Cu6   O32   S    
C62   O26   A    
Cu9   O36   S    
C176  O144  S    
O116  H50   S    
Cu3   O7    S    
Cu8   O28   S    
C14   C150  S    
Cu4   O4    S    
C30   C166  S    
C90   C106  A    
C46   C71   S    
C52   O8    A    
C31   C167  S    
C53   O9    A    
C17   C153  S    
C139  O70   S    
C148  O88   S    
O94   H39   S    
C109  C119  A    
C174  O139  D    
Cu9   Cu10  S    
C101  C133  S    
C45   C70   S    
C153  O97   D    
O144  H64   S    
C71   O43   A    
C28   C164  S    
C60   O24   A    
C61   O25   A    
C108  C140  S    
Cu2   O2    S    
C59   O23   A    
O110  H47   S    
C135  O62   S    
C7    C21   A    
Cu12  O45   S    
C38   C46   A    
O118  H51   S    
C156  O103  D    
C141  O73   D    
C109  C141  S    
C28   C44   A    
C51   O5    A    
Cu11  O43   S    
C159  O109  D    
C47   C72   S    
C35   C171  S    
C53   O15   A    
O106  H45   S    
C20   C36   A    
C38   C174  S    
C27   C43   A    
C21   C37   A    
C133  O58   S    
C154  O99   D    
C175  O142  S    
C30   C42   A    
C83   C123  A    
C11   C147  S    
O102  H43   S    
C69   O45   A    
C152  O95   D    
O130  H57   S    
C48   C69   S    
O112  H48   S    
Cu1   O1    S    
C147  O86   S    
O142  H63   S    
C63   C79   S    
C129  O49   D    
C71   O47   A    
C96   C112  A    
C8    C20   A    
C103  C113  A    
C142  O75   D    
Cu5   O9    S    
C169  O130  S    
C53   C117  S    
C68   O36   A    
C57   C73   S    
C150  O92   S    
O52   H18   S    
C158  O108  S    
C92   H12   S    
C146  O84   S    
C144  O79   D    
C10   C26   A    
C81   H1    S    
C36   C172  S    
C165  O122  S    
O98   H41   S    
C69   O41   A    
C56   C120  S    
C157  O105  D    
C14   C30   A    
C67   O39   A    
C92   C128  A    
C92   C108  A    
C1    C121  S    
C94   C126  A    
C88   H8    S    
C6    C18   A    
C140  O72   S    
C172  O136  S    
C59   O21   A    
C76   C77   T    
C110  C142  S    
Cu12  O47   S    
C141  O74   S    
Cu3   O23   S    
Cu6   Cu8   S    
Cu8   O12   S    
C148  O87   D    
C16   C152  S    
C138  O68   S    
C93   C127  A    
C72   O44   A    
C95   C125  A    
C94   H14   S    
C56   O12   A    
C134  O59   D    
C160  O112  S    
C34   C170  S    
C18   C34   A    
C172  O135  D    
Cu9   O33   S    
C104  C136  S    
O84   H34   S    
C100  C132  S    
C54   C118  S    
O90   H37   S    
C87   C103  A    
C24   C160  S    
C5    C125  S    
O74   H29   S    
C2    C10   A    
C59   C75   S    
C85   C101  A    
C150  O91   D    
C170  O131  D    
C27   C163  S    
C15   C151  S    
C107  C139  S    
C58   O20   A    
C66   O40   A    
O70   H27   S    
Cu11  O41   S    
C84   C124  A    
C168  O127  D    
O78   H31   S    
C151  O94   S    
C95   C111  A    
C171  O133  D    
C91   H11   S    
C173  O137  D    
C81   C97   A    
C23   C39   A    
C51   O3    A    
C24   C40   A    
C73   C80   T    
C95   H15   S    
C132  O56   S    
C75   C78   T    
O64   H24   S    
O62   H23   S    
C163  O117  D    
Cu6   O16   S    
C10   C146  S    
C164  O119  D    
C137  O65   D    
C129  O50   S    
O140  H62   S    
Cu1   Cu3   S    
