data_mof_unit_49700.cif
_audit_creation_date              2012-12-11T14:15:19-0500
_audit_creation_method            fapswitch 2.2
_symmetry_space_group_name_H-M    P1
_symmetry_Int_Tables_number       1
_space_group_crystal_system       triclinic
_cell_length_a                    11.166769
_cell_length_b                    12.714642
_cell_length_c                    23.533506
_cell_angle_alpha                 90.697291
_cell_angle_beta                  96.745903
_cell_angle_gamma                 68.520471
_cell_volume                      3086.01569605

loop_
_atom_site_label
_atom_site_type_symbol
_atom_type_description
_atom_site_fract_x
_atom_site_fract_y
_atom_site_fract_z
_atom_type_partial_charge
C1    C     C_R   0.149487 0.616614 0.428824 0.547545
C2    C     C_R   0.666625 0.555098 0.310123 -0.129092
C3    C     C_R   0.714101 0.727380 0.317829 -0.125379
C4    C     C_R   0.705241 0.735577 0.258310 0.042919
C5    C     C_R   0.685667 0.648251 0.225607 0.042413
C6    C     C_R   0.680430 0.653097 0.166890 -0.117226
C7    C     C_R   0.693549 0.839233 0.170787 -0.129296
C8    C     C_R   0.715252 0.828692 0.230587 -0.137228
C9    C     C_1   0.236653 0.160953 0.123464 0.016164
C10   C     C_2   0.184633 0.225243 0.228312 -0.074543
C11   C     C_2   0.150922 0.159451 0.262701 0.287780
C12   C     C_R   0.750220 0.603715 0.403814 0.544587
C13   C     C_1   0.130859 0.195883 0.321071 -0.075477
C14   C     C_1   0.212472 0.193548 0.170694 0.005381
C15   C     C_1   0.116041 0.230664 0.368705 -0.036137
C16   C     C_1   0.167680 0.750206 0.123800 0.011001
C17   C     C_2   0.143157 0.688460 0.227917 -0.135502
C18   C     C_2   0.236706 0.676309 0.271581 -0.134731
C19   C     C_1   0.217891 0.652468 0.329154 -0.056010
C20   C     C_1   0.155661 0.720883 0.170820 -0.038578
C21   C     C_1   0.193942 0.634736 0.376101 -0.005407
C22   C     C_1   0.629781 0.755163 0.865387 0.000173
C23   C     C_R   0.101171 0.282238 0.423379 0.547162
C24   C     C_2   0.700658 0.707204 0.761735 -0.082414
C25   C     C_2   0.612981 0.702011 0.718665 0.394569
C26   C     C_1   0.651723 0.669082 0.662768 -0.010131
C27   C     C_1   0.665341 0.734575 0.818649 0.012373
C28   C     C_1   0.690630 0.639751 0.617267 -0.031903
C29   C     C_R   0.198981 0.168351 0.851962 0.042014
C30   C     C_R   0.106570 0.233983 0.640398 0.038250
C31   C     C_R   0.105753 0.090629 0.705367 -0.101993
C32   C     C_R   0.090655 0.132145 0.649617 -0.146107
C33   C     C_R   0.126885 0.299369 0.685732 -0.100027
C34   C     C_R   0.147129 0.615417 0.591690 0.546226
C35   C     C_R   0.142895 0.258785 0.741332 -0.041861
C36   C     C_R   0.137363 0.151322 0.751389 0.038490
C37   C     C_R   0.169505 0.104664 0.806871 0.213574
C38   C     C_R   0.200891 0.276205 0.842235 0.219001
C39   C     C_R   0.170013 0.322145 0.786544 -0.121452
C40   C     C_R   0.126271 0.742171 0.854341 0.005265
C41   C     C_R   0.178583 0.631900 0.651825 -0.043682
C42   C     C_R   0.309192 0.568342 0.742979 0.394988
C43   C     C_R   0.293698 0.561656 0.683592 -0.060670
C44   C     C_R   0.079041 0.708065 0.679454 -0.148112
C45   C     C_R   0.749892 0.602328 0.566046 0.545418
C46   C     C_R   0.091549 0.712961 0.738076 -0.015698
C47   C     C_R   0.207725 0.643548 0.770463 0.045265
C48   C     C_R   0.222308 0.656078 0.829163 -0.110804
C49   C     C_R   0.006878 0.803045 0.822668 -0.095680
C50   C     C_R   0.989606 0.788422 0.764452 -0.132354
C51   C     C_R   0.265785 0.110066 0.069444 0.550385
C52   C     C_R   0.600771 0.774610 0.081049 0.546491
C53   C     C_R   0.189703 0.787978 0.069871 0.547244
C54   C     C_R   0.240979 0.114309 0.907867 0.609381
C55   C     C_R   0.574486 0.776037 0.918392 0.533237
C56   C     C_R   0.100331 0.277827 0.584148 0.537007
C57   C     C_R   0.163433 0.785360 0.908006 0.555193
C58   C     C_R   0.670217 0.753046 0.138937 0.007358
C59   C     C_R   0.699900 0.634418 0.343918 0.008780
C60   C     C_R   0.663229 0.560225 0.251426 -0.142982
Cr1   Cr    Cr6+3 0.189770 0.415650 0.511620 1.034970
Cr2   Cr    Cr6+3 0.930400 0.667320 0.496770 1.018345
Cr3   Cr    Cr6+3 0.879870 0.417010 0.491650 1.030933
Cr4   Cr    Cr6+3 0.149500 0.973980 0.985330 1.064904
Cr5   Cr    Cr6+3 0.457000 0.976510 0.994660 1.028813
Cr6   Cr    Cr6+3 0.411170 0.724270 0.995270 1.030464
H1    H     H_    0.666692 0.584115 0.142900 0.134738
H2    H     H_    0.053803 0.678002 0.235252 0.141337
H3    H     H_    0.800936 0.686975 0.754776 0.066015
H4    H     H_    0.096567 0.009935 0.712167 0.163500
H5    H     H_    0.169617 0.406066 0.778517 0.129863
H6    H     H_    0.070747 0.083856 0.613974 0.114165
H7    H     H_    0.134154 0.380561 0.677382 0.114139
H8    H     H_    0.313973 0.607655 0.853971 0.179117
H9    H     H_    0.686907 0.916947 0.149918 0.136302
H10   H     H_    0.931146 0.868220 0.841876 0.141569
H11   H     H_    0.899410 0.840405 0.739662 0.108503
H12   H     H_    0.370100 0.501097 0.662611 0.154384
H13   H     H_    0.988097 0.761382 0.655597 0.147242
H14   H     H_    0.643546 0.495085 0.226264 0.111416
H15   H     H_    0.730880 0.896310 0.254998 0.108516
H16   H     H_    0.653416 0.483530 0.329127 0.143409
H17   H     H_    0.737896 0.789874 0.343626 0.123037
H18   H     H_    0.194355 0.303009 0.243731 0.079879
H19   H     H_    0.325548 0.688060 0.264624 0.149392
O1    O     O_R   0.196340 0.303200 0.448500 -0.504301
O2    O     O_R   0.811960 0.658090 0.547150 -0.501999
O3    O     O_R   0.757930 0.506140 0.547110 -0.496724
O4    O     O_R   0.988670 0.321620 0.556040 -0.497548
O5    O     O_3   0.000020 0.499990 0.500010 -0.252379
O6    O     O_R   0.113660 0.883270 0.047820 -0.505896
O7    O     O_R   0.186930 0.068530 0.043990 -0.491554
O8    O     O_R   0.377770 0.089040 0.054220 -0.510359
O9    O     O_R   0.562800 0.872960 0.056970 -0.498780
O10   O     O_R   0.555390 0.700940 0.062700 -0.520365
O11   O     O_R   0.295020 0.731920 0.049950 -0.497337
O12   O     O_R   0.199310 0.519670 0.454880 -0.489738
O13   O     O_R   0.094290 0.884230 0.921550 -0.488667
O14   O     O_R   0.168980 0.069410 0.926940 -0.463715
O15   O     O_R   0.358400 0.089990 0.927950 -0.523644
O16   O     O_R   0.544850 0.873850 0.939920 -0.508147
O17   O     O_R   0.536020 0.701900 0.936430 -0.494454
O18   O     O_R   0.277070 0.732810 0.932890 -0.516162
O19   O     O_3   0.339220 0.891590 0.991750 -0.254952
O20   O     O_R   0.045660 0.691380 0.441680 -0.511803
O21   O     O_R   0.811930 0.659460 0.430950 -0.503552
O22   O     O_R   0.757900 0.507620 0.421760 -0.518316
O23   O     O_R   0.988630 0.322990 0.439840 -0.496978
O24   O     O_R   0.196380 0.301720 0.573850 -0.512167
O25   O     O_R   0.199350 0.518300 0.571080 -0.503657
O26   O     O_R   0.045700 0.689900 0.567030 -0.518182
F1    F     F_    0.487820 0.724306 0.727261 -0.634295
O27   O     O_3   0.178399 0.994720 0.817121 -0.569486
C61   C     C_3   0.304387 0.920679 0.808719 -0.075309
H20   H     H_    0.380577 0.942746 0.835190 0.116641
H21   H     H_    0.319740 0.919871 0.762884 0.166571
H22   H     H_    0.316554 0.833682 0.821798 0.178386
O28   O     O_3   0.224975 0.338397 0.887837 -0.567601
C62   C     C_3   0.346904 0.346851 0.885975 -0.095039
H23   H     H_    0.346311 0.398341 0.848137 0.166576
H24   H     H_    0.425397 0.261926 0.886264 0.141203
H25   H     H_    0.369229 0.390156 0.924694 0.143492
F2    F     F_    0.422757 0.502238 0.773231 -0.642375
O29   O     O_3   0.139947 0.059800 0.241251 -0.549306
C63   C     C_3   0.095183 0.003429 0.280210 -0.104626
H26   H     H_    0.998642 0.058496 0.291789 0.116986
H27   H     H_    0.166910 0.972518 0.319040 0.126402
H28   H     H_    0.083340 0.928676 0.259292 0.153042

loop_
_geom_bond_atom_site_label_1
_geom_bond_atom_site_label_2
_ccdc_geom_bond_type
C12   O21   A    
C1    C21   S    
Cr3   O3    S    
C6    C58   A    
C35   C36   A    
C9    C51   S    
C24   C27   S    
Cr5   O16   S    
C4    C8    A    
Cr1   O24   S    
C61   H20   S    
C7    C8    A    
C32   H6    S    
Cr2   O20   S    
C43   H12   S    
C55   O17   A    
C36   C37   A    
C45   O2    A    
C55   O16   A    
C38   C39   A    
C2    C60   A    
C37   O27   S    
C29   C54   S    
C23   O23   A    
C40   C49   A    
C17   C20   S    
C52   O10   A    
C40   C48   A    
C18   C19   S    
C10   H18   S    
Cr6   O17   S    
O28   C62   S    
C25   F1    S    
C16   C53   S    
C12   C59   S    
Cr4   O14   S    
Cr2   O26   S    
C47   C48   A    
C24   H3    S    
C23   O1    A    
C29   C38   A    
C53   O6    A    
C63   H28   S    
C52   O9    A    
C7    C58   A    
C5    C60   A    
Cr4   O13   S    
C53   O11   A    
C34   O26   A    
C41   C43   A    
C54   O15   A    
C34   C41   S    
Cr1   O25   S    
C44   C46   A    
C42   F2    S    
C62   H24   S    
C57   O18   A    
C28   C45   S    
C18   H19   S    
C8    H15   S    
C48   H8    S    
C45   O3    A    
C24   C25   D    
C10   C14   S    
C1    O12   A    
C2    C59   A    
C7    H9    S    
C25   C26   S    
C30   C56   S    
C35   C39   A    
C9    C14   T    
Cr6   O19   S    
C51   O7    A    
C31   C32   A    
C16   C20   T    
Cr3   O4    S    
C17   C18   D    
C49   H10   S    
C52   C58   S    
C51   O8    A    
C33   H7    S    
Cr5   O9    S    
C22   C27   T    
C13   C15   T    
C3    H17   S    
C63   H26   S    
C34   O25   A    
C41   C44   A    
C54   O14   A    
C2    H16   S    
C42   C43   A    
Cr4   O7    S    
Cr3   O22   S    
C3    C4    A    
C50   H11   S    
C56   O24   A    
Cr1   O5    S    
Cr6   O11   S    
O27   C61   S    
C62   H25   S    
Cr4   O19   S    
C56   O4    A    
C46   C47   A    
C60   H14   S    
C17   H2    S    
C40   C57   S    
C30   C33   A    
C19   C21   T    
Cr6   O18   S    
C44   H13   S    
Cr1   O12   S    
Cr5   O15   S    
C4    C5    A    
C12   O22   A    
C61   H21   S    
C62   H23   S    
C22   C55   S    
Cr2   O21   S    
Cr2   O2    S    
C46   C50   A    
C26   C28   T    
Cr4   O6    S    
C10   C11   D    
C31   H4    S    
C6    H1    S    
Cr5   O19   S    
C30   C32   A    
C11   C13   S    
C5    C6    A    
C57   O13   A    
Cr2   O5    S    
Cr3   O5    S    
C15   C23   S    
Cr5   O8    S    
C33   C35   A    
C42   C47   A    
C61   H22   S    
Cr1   O1    S    
C38   O28   S    
C49   C50   A    
C29   C37   A    
C63   H27   S    
C39   H5    S    
C31   C36   A    
O29   C63   S    
C11   O29   S    
Cr3   O23   S    
C1    O20   A    
Cr6   O10   S    
C3    C59   A    
