data_mof_unit_28579.cif
_audit_creation_date              2012-12-10T18:15:25-0500
_audit_creation_method            fapswitch 2.2
_symmetry_space_group_name_H-M    P1
_symmetry_Int_Tables_number       1
_space_group_crystal_system       triclinic
_cell_length_a                    22.420973
_cell_length_b                    22.53021
_cell_length_c                    14.663558
_cell_angle_alpha                 89.773145
_cell_angle_beta                  89.998037
_cell_angle_gamma                 89.999586
_cell_volume                      7407.22696922

loop_
_atom_site_label
_atom_site_type_symbol
_atom_type_description
_atom_site_fract_x
_atom_site_fract_y
_atom_site_fract_z
_atom_type_partial_charge
C1    C     C_R   0.080104 0.419851 0.500110 0.831416
C2    C     C_R   0.080104 0.580149 0.499888 0.831411
C3    C     C_R   0.580105 0.919851 0.500110 0.831413
C4    C     C_R   0.580104 0.080149 0.499888 0.831411
C5    C     C_1   0.159385 0.665702 0.498229 -0.116414
C6    C     C_1   0.159383 0.334295 0.501765 -0.116410
C7    C     C_1   0.659383 0.165703 0.498217 -0.116416
C8    C     C_1   0.659386 0.834299 0.501764 -0.116415
C9    C     C_1   0.836363 0.338349 0.499387 -0.102350
C10   C     C_1   0.836364 0.661651 0.500604 -0.102384
C11   C     C_1   0.336365 0.838348 0.499399 -0.102373
C12   C     C_1   0.336358 0.161644 0.500602 -0.102360
C13   C     C_1   0.874859 0.375301 0.500043 -0.195326
C14   C     C_1   0.874860 0.624698 0.499957 -0.195352
C15   C     C_1   0.374860 0.875301 0.500047 -0.195352
C16   C     C_1   0.374856 0.124693 0.499956 -0.195365
C17   C     C_3   0.974067 0.555863 0.055289 0.165665
C18   C     C_3   0.971075 0.554398 0.948736 0.200800
C19   C     C_3   0.974068 0.444144 0.944717 0.165727
C20   C     C_3   0.971070 0.445610 0.051269 0.200783
C21   C     C_3   0.474063 0.055864 0.055291 0.165685
C22   C     C_3   0.471066 0.054399 0.948737 0.200754
C23   C     C_3   0.474061 0.944145 0.944714 0.165692
C24   C     C_3   0.471067 0.945610 0.051268 0.200780
C25   C     C_3   0.008163 0.499584 0.092333 -0.084563
C26   C     C_3   0.008167 0.500421 0.907669 -0.084577
C27   C     C_3   0.508160 0.999585 0.092332 -0.084580
C28   C     C_3   0.508159 0.000423 0.907668 -0.084549
C29   C     C_3   0.077667 0.496270 0.942309 -0.052969
C30   C     C_3   0.077665 0.503733 0.057689 -0.052962
C31   C     C_3   0.577661 0.996270 0.942307 -0.052965
C32   C     C_3   0.577661 0.003735 0.057685 -0.052971
C33   C     C_1   0.002891 0.499844 0.804656 0.166604
C34   C     C_1   0.002889 0.500159 0.195344 0.166525
C35   C     C_1   0.502887 0.999845 0.804656 0.166528
C36   C     C_1   0.502888 0.000159 0.195343 0.166623
C37   C     C_R   0.920059 0.419655 0.500083 0.832537
C38   C     C_R   0.920059 0.580345 0.499918 0.832549
C39   C     C_R   0.420060 0.919655 0.500083 0.832539
C40   C     C_R   0.420058 0.080343 0.499918 0.832534
C41   C     C_3   0.797802 0.249258 0.577679 -0.404565
C42   C     C_3   0.789767 0.259047 0.407298 -0.381591
C43   C     C_3   0.797811 0.750741 0.422301 -0.404619
C44   C     C_3   0.789763 0.740954 0.592683 -0.381565
C45   C     C_3   0.297803 0.749259 0.577701 -0.404627
C46   C     C_3   0.289770 0.759045 0.407318 -0.381569
C47   C     C_3   0.297794 0.250723 0.422280 -0.404599
C48   C     C_3   0.289771 0.240960 0.592670 -0.381564
C49   C     C_3   0.241537 0.709701 0.407684 -0.402865
C50   C     C_3   0.249319 0.700655 0.573991 -0.398861
C51   C     C_3   0.241539 0.290306 0.592301 -0.402872
C52   C     C_3   0.249310 0.299329 0.425987 -0.398866
C53   C     C_3   0.741532 0.209703 0.407664 -0.402856
C54   C     C_3   0.749318 0.200654 0.573970 -0.398881
C55   C     C_3   0.741530 0.790298 0.592314 -0.402865
C56   C     C_3   0.749325 0.799346 0.426007 -0.398867
C57   C     C_1   0.123517 0.626195 0.499469 -0.197140
C58   C     C_1   0.123516 0.373804 0.500525 -0.197138
C59   C     C_1   0.623516 0.126195 0.499465 -0.197134
C60   C     C_1   0.623518 0.873806 0.500525 -0.197140
C61   C     C_3   0.788840 0.293849 0.498430 0.301077
C62   C     C_3   0.788842 0.706151 0.501552 0.301098
C63   C     C_3   0.288842 0.793849 0.498447 0.301097
C64   C     C_3   0.288835 0.206144 0.501551 0.301098
C65   C     C_3   0.203477 0.713703 0.496627 0.280019
C66   C     C_3   0.203473 0.286293 0.503369 0.280024
C67   C     C_3   0.703474 0.213704 0.496610 0.280021
C68   C     C_3   0.703477 0.786297 0.503368 0.280023
C69   C     C_3   0.173879 0.779053 0.500512 0.064739
C70   C     C_3   0.173873 0.220944 0.499511 0.064737
C71   C     C_3   0.673877 0.279053 0.500500 0.064740
C72   C     C_3   0.673879 0.720949 0.499478 0.064739
C73   C     C_3   0.727326 0.324326 0.512226 -0.407225
C74   C     C_3   0.727328 0.675675 0.487754 -0.407227
C75   C     C_3   0.227328 0.824326 0.512239 -0.407222
C76   C     C_3   0.227319 0.175668 0.487782 -0.407235
Cu1   Cu    Cu3+1 0.999990 0.500000 0.589920 0.950274
Cu2   Cu    Cu3+1 0.999990 0.500000 0.410080 0.950272
Cu3   Cu    Cu3+1 0.499990 0.000000 0.589920 0.950269
Cu4   Cu    Cu3+1 0.499990 0.000000 0.410080 0.950303
H1    H     H_    0.271898 0.657514 0.560392 0.170584
H2    H     H_    0.263623 0.665543 0.402820 0.162355
H3    H     H_    0.271891 0.342471 0.439565 0.170581
H4    H     H_    0.263628 0.334463 0.597145 0.162355
H5    H     H_    0.771898 0.157514 0.560367 0.170583
H6    H     H_    0.763619 0.165546 0.402797 0.162353
H7    H     H_    0.771903 0.842486 0.439607 0.170582
H8    H     H_    0.763618 0.834456 0.597180 0.162356
H9    H     H_    0.842723 0.228412 0.572970 0.169278
H10   H     H_    0.834338 0.238280 0.397559 0.172636
H11   H     H_    0.842730 0.771587 0.427017 0.169276
H12   H     H_    0.834335 0.761719 0.602426 0.172631
H13   H     H_    0.342723 0.728413 0.572992 0.169273
H14   H     H_    0.334342 0.738278 0.397580 0.172634
H15   H     H_    0.342714 0.271569 0.426973 0.169268
H16   H     H_    0.334344 0.261725 0.602391 0.172628
H17   H     H_    0.782634 0.289651 0.348763 0.163763
H18   H     H_    0.795613 0.272457 0.644253 0.166082
H19   H     H_    0.782627 0.710350 0.651219 0.163757
H20   H     H_    0.795631 0.727542 0.355724 0.166114
H21   H     H_    0.282639 0.789647 0.348780 0.163756
H22   H     H_    0.295616 0.772460 0.644276 0.166118
H23   H     H_    0.282641 0.210365 0.651218 0.163749
H24   H     H_    0.295604 0.227512 0.355713 0.166106
H25   H     H_    0.213688 0.713283 0.345586 0.169624
H26   H     H_    0.227947 0.692673 0.640582 0.152566
H27   H     H_    0.213694 0.286733 0.654407 0.169620
H28   H     H_    0.227934 0.307302 0.359399 0.152564
H29   H     H_    0.713682 0.213287 0.345569 0.169625
H30   H     H_    0.727948 0.192670 0.640562 0.152569
H31   H     H_    0.713677 0.786717 0.654409 0.169625
H32   H     H_    0.727958 0.807327 0.359414 0.152564
H33   H     H_    0.727736 0.343599 0.581952 0.157437
H34   H     H_    0.722932 0.365152 0.471025 0.142747
H35   H     H_    0.727743 0.656402 0.418028 0.157433
H36   H     H_    0.722932 0.634849 0.528954 0.142747
H37   H     H_    0.227737 0.843601 0.581963 0.157438
H38   H     H_    0.222935 0.865151 0.471035 0.142748
H39   H     H_    0.227722 0.156385 0.418062 0.157431
H40   H     H_    0.222928 0.134846 0.528996 0.142750
H41   H     H_    0.923174 0.454786 0.067181 0.176468
H42   H     H_    0.998097 0.403957 0.922702 0.146730
H43   H     H_    0.923181 0.545224 0.932822 0.176474
H44   H     H_    0.998097 0.596047 0.077317 0.146754
H45   H     H_    0.423172 0.954786 0.067184 0.176463
H46   H     H_    0.498089 0.903959 0.922688 0.146754
H47   H     H_    0.423170 0.045224 0.932829 0.176465
H48   H     H_    0.498093 0.096049 0.077312 0.146767
N1    N     N_1   0.000150 0.500000 0.724970 -0.179480
N2    N     N_1   0.000150 0.500000 0.275030 -0.179495
N3    N     N_1   0.500150 0.000000 0.724970 -0.179494
N4    N     N_1   0.500150 0.000000 0.275030 -0.179463
O1    O     O_R   0.060270 0.439640 0.575970 -0.578534
O2    O     O_R   0.060270 0.439640 0.424030 -0.573149
O3    O     O_R   0.060270 0.560360 0.424030 -0.578544
O4    O     O_R   0.060270 0.560360 0.575970 -0.573152
O5    O     O_R   0.560270 0.939640 0.575970 -0.578538
O6    O     O_R   0.560270 0.939640 0.424030 -0.573155
O7    O     O_R   0.560270 0.060360 0.424030 -0.578541
O8    O     O_R   0.560270 0.060360 0.575970 -0.573150
O9    O     O_R   0.939710 0.439640 0.575970 -0.575572
O10   O     O_R   0.939710 0.439640 0.424030 -0.574726
O11   O     O_R   0.939710 0.560360 0.424030 -0.575542
O12   O     O_R   0.939710 0.560360 0.575970 -0.574729
O13   O     O_R   0.439710 0.939640 0.575970 -0.575546
O14   O     O_R   0.439710 0.939640 0.424030 -0.574729
O15   O     O_R   0.439710 0.060360 0.424030 -0.575520
O16   O     O_R   0.439710 0.060360 0.575970 -0.574745
C77   C     C_R   0.130693 0.789751 0.583394 0.097749
C78   C     C_R   0.073601 0.816502 0.572417 -0.156469
C79   C     C_R   0.035932 0.826555 0.646673 -0.134982
C80   C     C_R   0.054744 0.813042 0.734667 -0.109737
C81   C     C_R   0.112031 0.791367 0.748759 -0.158669
C82   C     C_R   0.149897 0.781399 0.674704 -0.164253
H49   H     H_    0.057574 0.832090 0.507269 0.138199
H50   H     H_    0.992364 0.846075 0.635905 0.117015
H51   H     H_    0.025715 0.821374 0.792181 0.119009
H52   H     H_    0.127903 0.783808 0.817566 0.123346
H53   H     H_    0.195306 0.771493 0.691300 0.120613
C83   C     C_R   0.138898 0.788350 0.408152 0.093279
C84   C     C_R   0.158630 0.825768 0.335844 -0.157031
C85   C     C_R   0.126387 0.830704 0.254499 -0.163740
C86   C     C_R   0.074400 0.798037 0.241690 -0.115670
C87   C     C_R   0.054600 0.759894 0.310004 -0.130132
C88   C     C_R   0.086310 0.754877 0.391574 -0.177551
H54   H     H_    0.199601 0.850452 0.337933 0.120334
H55   H     H_    0.142403 0.859450 0.200472 0.125526
H56   H     H_    0.049861 0.801735 0.178357 0.120214
H57   H     H_    0.014411 0.734161 0.300028 0.141475
H58   H     H_    0.067811 0.726298 0.443620 0.139603
C89   C     C_R   0.130679 0.210240 0.416644 0.097752
C90   C     C_R   0.149876 0.218580 0.325326 -0.164243
C91   C     C_R   0.112001 0.208613 0.251284 -0.158649
C92   C     C_R   0.054711 0.186949 0.265399 -0.109739
C93   C     C_R   0.035905 0.173447 0.353402 -0.135001
C94   C     C_R   0.073582 0.183500 0.427644 -0.156468
H59   H     H_    0.195286 0.228476 0.308714 0.120608
H60   H     H_    0.127868 0.216163 0.182470 0.123335
H61   H     H_    0.025675 0.178618 0.207895 0.119010
H62   H     H_    0.992334 0.153936 0.364188 0.117012
H63   H     H_    0.057559 0.167919 0.492801 0.138198
C95   C     C_R   0.138898 0.211659 0.591886 0.093284
C96   C     C_R   0.086312 0.245135 0.608472 -0.177570
C97   C     C_R   0.054605 0.240123 0.690051 -0.130106
C98   C     C_R   0.074409 0.201983 0.758365 -0.115648
C99   C     C_R   0.126395 0.169315 0.745548 -0.163773
C100  C     C_R   0.158634 0.174245 0.664196 -0.157029
H64   H     H_    0.067810 0.273712 0.556427 0.139603
H65   H     H_    0.014416 0.265856 0.700034 0.141441
H66   H     H_    0.049874 0.198289 0.821705 0.120237
H67   H     H_    0.142414 0.140572 0.799577 0.125526
H68   H     H_    0.199604 0.149561 0.662101 0.120335
C101  C     C_R   0.630692 0.289750 0.583384 0.097752
C102  C     C_R   0.573599 0.316499 0.572410 -0.156469
C103  C     C_R   0.535931 0.326550 0.646668 -0.134975
C104  C     C_R   0.554744 0.313035 0.734660 -0.109745
C105  C     C_R   0.612032 0.291361 0.748749 -0.158676
C106  C     C_R   0.649897 0.281395 0.674692 -0.164249
H69   H     H_    0.557571 0.332088 0.507262 0.138197
H70   H     H_    0.492362 0.346069 0.635902 0.117010
H71   H     H_    0.525716 0.321365 0.792176 0.118999
H72   H     H_    0.627905 0.283801 0.817556 0.123348
H73   H     H_    0.695306 0.271489 0.691286 0.120599
C107  C     C_R   0.638894 0.288352 0.408141 0.093280
C108  C     C_R   0.658625 0.325772 0.335834 -0.157027
C109  C     C_R   0.626381 0.330708 0.254490 -0.163752
C110  C     C_R   0.574395 0.298041 0.241681 -0.115659
C111  C     C_R   0.554596 0.259896 0.309993 -0.130119
C112  C     C_R   0.586307 0.254879 0.391563 -0.177564
H74   H     H_    0.699595 0.350456 0.337923 0.120333
H75   H     H_    0.642396 0.359456 0.200463 0.125528
H76   H     H_    0.549855 0.301740 0.178348 0.120226
H77   H     H_    0.514406 0.234163 0.300016 0.141460
H78   H     H_    0.567809 0.226298 0.443608 0.139603
C113  C     C_R   0.630699 0.710253 0.416593 0.097749
C114  C     C_R   0.649910 0.718605 0.325285 -0.164254
C115  C     C_R   0.612048 0.708641 0.251226 -0.158669
C116  C     C_R   0.554758 0.686972 0.265313 -0.109737
C117  C     C_R   0.535938 0.673460 0.353305 -0.134975
C118  C     C_R   0.573603 0.683509 0.427564 -0.156471
H79   H     H_    0.695321 0.728507 0.308692 0.120613
H80   H     H_    0.627926 0.716200 0.182420 0.123347
H81   H     H_    0.525733 0.678644 0.207796 0.119002
H82   H     H_    0.492368 0.653944 0.364070 0.117011
H83   H     H_    0.557570 0.667921 0.492711 0.138197
C119  C     C_R   0.638891 0.711651 0.591837 0.093281
C120  C     C_R   0.586303 0.745125 0.608414 -0.177556
C121  C     C_R   0.554588 0.740108 0.689983 -0.130130
C122  C     C_R   0.574384 0.701963 0.758297 -0.115669
C123  C     C_R   0.626371 0.669296 0.745488 -0.163744
C124  C     C_R   0.658618 0.674231 0.664144 -0.157027
H84   H     H_    0.567807 0.773705 0.556369 0.139602
H85   H     H_    0.514398 0.765841 0.699959 0.141473
H86   H     H_    0.549842 0.698265 0.821630 0.120222
H87   H     H_    0.642384 0.640548 0.799515 0.125527
H88   H     H_    0.699589 0.649546 0.662056 0.120334
O17   O     O_3   0.987719 0.610672 0.913070 -0.664712
C125  C     C_3   0.943534 0.633717 0.853640 0.008618
H89   H     H_    0.901202 0.641323 0.891575 0.138376
H90   H     H_    0.935041 0.602461 0.796474 0.168392
C126  C     C_3   0.964445 0.692859 0.813841 -0.302268
H91   H     H_    0.971959 0.724950 0.870058 0.209321
H92   H     H_    0.007202 0.686514 0.776824 0.223160
C127  C     C_3   0.918136 0.718083 0.747912 -0.947193
H93   H     H_    0.911780 0.687553 0.689398 0.266862
H94   H     H_    0.933334 0.761657 0.721340 0.252018
H95   H     H_    0.874783 0.724528 0.783189 0.248143
O18   O     O_3   0.915110 0.557585 0.092052 -0.637155
C128  C     C_3   0.895367 0.616383 0.108001 0.031802
H96   H     H_    0.846120 0.617120 0.099820 0.159834
H97   H     H_    0.913514 0.648862 0.057606 0.150665
C129  C     C_3   0.910650 0.635133 0.205624 -0.303231
H98   H     H_    0.887074 0.605556 0.254605 0.238615
H99   H     H_    0.959381 0.630827 0.217782 0.217237
C130  C     C_3   0.892319 0.699249 0.223086 -0.978009
H100  H     H_    0.917917 0.729767 0.178076 0.255637
H101  H     H_    0.901871 0.710780 0.295157 0.256716
H102  H     H_    0.843886 0.705164 0.210023 0.251337
O19   O     O_3   0.987710 0.389336 0.086937 -0.664712
C131  C     C_3   0.943525 0.366297 0.146379 0.008655
H103  H     H_    0.901193 0.358684 0.108448 0.138363
H104  H     H_    0.935028 0.397561 0.203537 0.168371
C132  C     C_3   0.964441 0.307160 0.186195 -0.302219
H105  H     H_    0.971978 0.275067 0.129983 0.209326
H106  H     H_    0.007187 0.313516 0.223237 0.223122
C133  C     C_3   0.918120 0.281929 0.252101 -0.947143
H107  H     H_    0.911726 0.312470 0.310600 0.266845
H108  H     H_    0.933330 0.238366 0.278707 0.252011
H109  H     H_    0.874780 0.275458 0.216790 0.248127
O20   O     O_3   0.915115 0.442427 0.907947 -0.637171
C134  C     C_3   0.895366 0.383632 0.892002 0.031806
H110  H     H_    0.846111 0.382926 0.900062 0.159990
H111  H     H_    0.913446 0.351170 0.942473 0.150599
C135  C     C_3   0.910747 0.364825 0.794439 -0.303522
H112  H     H_    0.887375 0.394493 0.745363 0.238905
H113  H     H_    0.959513 0.368935 0.782485 0.216999
C136  C     C_3   0.892200 0.300779 0.776906 -0.977884
H114  H     H_    0.917550 0.270161 0.822086 0.255653
H115  H     H_    0.901884 0.289193 0.704891 0.256698
H116  H     H_    0.843712 0.295084 0.789685 0.251329
O21   O     O_3   0.487706 0.110673 0.913069 -0.664714
C137  C     C_3   0.443531 0.133703 0.853605 0.008662
H117  H     H_    0.401180 0.141290 0.891505 0.138307
H118  H     H_    0.435070 0.102445 0.796425 0.168405
C138  C     C_3   0.464434 0.192859 0.813836 -0.302233
H119  H     H_    0.471904 0.224951 0.870072 0.209283
H120  H     H_    0.507214 0.186539 0.776863 0.223133
C139  C     C_3   0.418141 0.218064 0.747861 -0.946961
H121  H     H_    0.411840 0.187540 0.689309 0.266834
H122  H     H_    0.433325 0.261660 0.721338 0.251976
H123  H     H_    0.374756 0.224466 0.783091 0.248089
O22   O     O_3   0.415110 0.057587 0.092070 -0.637144
C140  C     C_3   0.395350 0.116386 0.107961 0.031797
H124  H     H_    0.346101 0.117097 0.099842 0.159898
H125  H     H_    0.413456 0.148834 0.057498 0.150722
C141  C     C_3   0.410672 0.135212 0.205526 -0.303612
H126  H     H_    0.387173 0.105642 0.254580 0.238742
H127  H     H_    0.459407 0.130975 0.217595 0.217204
C142  C     C_3   0.392279 0.199315 0.222943 -0.977943
H128  H     H_    0.417814 0.229839 0.177850 0.255666
H129  H     H_    0.401865 0.210893 0.294983 0.256685
H130  H     H_    0.343828 0.205169 0.209962 0.251353
O23   O     O_3   0.487709 0.889336 0.086933 -0.664717
C143  C     C_3   0.443525 0.866296 0.146376 0.008688
H131  H     H_    0.401189 0.858685 0.108445 0.138333
H132  H     H_    0.435029 0.897558 0.203541 0.168378
C144  C     C_3   0.464441 0.807154 0.186176 -0.302203
H133  H     H_    0.471947 0.775058 0.129958 0.209297
H134  H     H_    0.507205 0.813498 0.223177 0.223138
C145  C     C_3   0.418140 0.781937 0.252128 -0.947160
H135  H     H_    0.411804 0.812464 0.310655 0.266864
H136  H     H_    0.433332 0.738357 0.278682 0.252003
H137  H     H_    0.374776 0.775509 0.216876 0.248129
O24   O     O_3   0.415106 0.942428 0.907951 -0.637161
C146  C     C_3   0.395355 0.883632 0.892009 0.031770
H138  H     H_    0.346107 0.882912 0.900152 0.159894
H139  H     H_    0.413476 0.851162 0.942433 0.150661
C147  C     C_3   0.410668 0.864856 0.794408 -0.303404
H140  H     H_    0.387164 0.894460 0.745397 0.238744
H141  H     H_    0.459407 0.869096 0.782311 0.217195
C148  C     C_3   0.392263 0.800771 0.776921 -0.978102
H142  H     H_    0.417805 0.770224 0.821942 0.255691
H143  H     H_    0.401819 0.789229 0.704846 0.256721
H144  H     H_    0.343827 0.794921 0.789961 0.251380
C149  C     C_R   0.102267 0.565347 0.096642 0.046954
C150  C     C_R   0.121280 0.569017 0.189509 -0.128637
C151  C     C_R   0.145576 0.620796 0.225978 -0.132765
C152  C     C_R   0.150052 0.671686 0.172695 -0.110748
C153  C     C_R   0.127678 0.671588 0.084479 -0.145018
C154  C     C_R   0.103189 0.619904 0.047960 -0.141892
H145  H     H_    0.118685 0.531189 0.234895 0.154105
H146  H     H_    0.160960 0.621211 0.295894 0.137870
H147  H     H_    0.169222 0.711749 0.200371 0.138039
H148  H     H_    0.128018 0.712151 0.044637 0.124882
H149  H     H_    0.081373 0.625327 0.984250 0.199542
C155  C     C_R   0.121457 0.542395 0.894702 0.103262
C156  C     C_R   0.184032 0.534684 0.903532 -0.149306
C157  C     C_R   0.224926 0.575329 0.867969 -0.136842
C158  C     C_R   0.205129 0.623007 0.815999 -0.116125
C159  C     C_R   0.144894 0.627653 0.794878 -0.162457
C160  C     C_R   0.103959 0.587134 0.831171 -0.137218
H150  H     H_    0.202170 0.494030 0.930132 0.135710
H151  H     H_    0.272260 0.568514 0.878084 0.121404
H152  H     H_    0.236843 0.654524 0.788610 0.113399
H153  H     H_    0.129734 0.662251 0.749086 0.145742
H154  H     H_    0.059454 0.592523 0.807379 0.189820
C161  C     C_R   0.102268 0.434655 0.903356 0.046957
C162  C     C_R   0.103189 0.380099 0.952039 -0.141921
C163  C     C_R   0.127685 0.328416 0.915523 -0.145017
C164  C     C_R   0.150067 0.328319 0.827309 -0.110746
C165  C     C_R   0.145588 0.379207 0.774023 -0.132783
C166  C     C_R   0.121285 0.430984 0.810490 -0.128636
H155  H     H_    0.081367 0.374675 0.015747 0.199534
H156  H     H_    0.128026 0.287853 0.955366 0.124887
H157  H     H_    0.169244 0.288257 0.799636 0.138043
H158  H     H_    0.160976 0.378792 0.704108 0.137865
H159  H     H_    0.118690 0.468812 0.765103 0.154102
C167  C     C_R   0.121454 0.457607 0.105294 0.103268
C168  C     C_R   0.103954 0.412866 0.168822 -0.137220
C169  C     C_R   0.144888 0.372345 0.205113 -0.162451
C170  C     C_R   0.205124 0.376994 0.183993 -0.116116
C171  C     C_R   0.224923 0.424673 0.132025 -0.136840
C172  C     C_R   0.184030 0.465317 0.096464 -0.149310
H160  H     H_    0.059449 0.407476 0.192615 0.189825
H161  H     H_    0.129727 0.337745 0.250901 0.145725
H162  H     H_    0.236838 0.345476 0.211382 0.113400
H163  H     H_    0.272257 0.431487 0.121910 0.121405
H164  H     H_    0.202167 0.505972 0.069865 0.135707
C173  C     C_R   0.602262 0.065351 0.096634 0.046951
C174  C     C_R   0.621277 0.069023 0.189500 -0.128632
C175  C     C_R   0.645572 0.120802 0.225966 -0.132771
C176  C     C_R   0.650047 0.171692 0.172680 -0.110757
C177  C     C_R   0.627671 0.171591 0.084465 -0.145016
C178  C     C_R   0.603182 0.119906 0.047950 -0.141899
H165  H     H_    0.618683 0.031196 0.234888 0.154101
H166  H     H_    0.660958 0.121220 0.295880 0.137870
H167  H     H_    0.669218 0.211756 0.200353 0.138041
H168  H     H_    0.628009 0.212154 0.044621 0.124885
H169  H     H_    0.581364 0.125328 0.984241 0.199537
C179  C     C_R   0.621451 0.042394 0.894696 0.103263
C180  C     C_R   0.684027 0.034680 0.903520 -0.149310
C181  C     C_R   0.724921 0.075322 0.867951 -0.136845
C182  C     C_R   0.705124 0.123000 0.815982 -0.116115
C183  C     C_R   0.644887 0.127650 0.794868 -0.162452
C184  C     C_R   0.603952 0.087134 0.831167 -0.137236
H170  H     H_    0.702164 0.994027 0.930121 0.135709
H171  H     H_    0.772255 0.068505 0.878062 0.121402
H172  H     H_    0.736838 0.154515 0.788587 0.113406
H173  H     H_    0.629727 0.162248 0.749077 0.145743
H174  H     H_    0.559446 0.092527 0.807383 0.189821
C185  C     C_R   0.602260 0.934654 0.903355 0.046956
C186  C     C_R   0.603179 0.880098 0.952039 -0.141898
C187  C     C_R   0.627666 0.828412 0.915520 -0.145023
C188  C     C_R   0.650041 0.828311 0.827302 -0.110757
C189  C     C_R   0.645568 0.879201 0.774017 -0.132770
C190  C     C_R   0.621274 0.930981 0.810487 -0.128632
H175  H     H_    0.581362 0.874677 0.015751 0.199542
H176  H     H_    0.628004 0.787849 0.955364 0.124883
H177  H     H_    0.669209 0.788246 0.799626 0.138041
H178  H     H_    0.660952 0.878783 0.704101 0.137872
H179  H     H_    0.618682 0.968809 0.765100 0.154109
C191  C     C_R   0.621452 0.957611 0.105290 0.103267
C192  C     C_R   0.603954 0.912871 0.168821 -0.137249
C193  C     C_R   0.644891 0.872355 0.205117 -0.162445
C194  C     C_R   0.705126 0.877005 0.183997 -0.116113
C195  C     C_R   0.724923 0.924682 0.132023 -0.136846
C196  C     C_R   0.684028 0.965324 0.096457 -0.149309
H180  H     H_    0.559449 0.907478 0.192611 0.189819
H181  H     H_    0.629731 0.837757 0.250910 0.145746
H182  H     H_    0.736841 0.845491 0.211389 0.113389
H183  H     H_    0.772257 0.931498 0.121905 0.121404
H184  H     H_    0.702164 0.005977 0.069854 0.135711

loop_
_geom_bond_atom_site_label_1
_geom_bond_atom_site_label_2
_ccdc_geom_bond_type
C90   H59   S    
C130  H101  S    
C19   H42   S    
Cu4   N4    S    
C6    C58   T    
C19   C20   S    
C75   H37   S    
C24   C27   S    
C41   C61   S    
C156  C157  A    
C98   H66   S    
C137  H117  S    
C169  H161  S    
C44   H19   S    
C134  H110  S    
C115  H80   S    
C69   C83   S    
C176  C177  A    
C135  H112  S    
C122  H86   S    
C9    C13   T    
C95   C96   A    
C125  H89   S    
C11   C15   T    
C143  C144  S    
C12   C16   T    
C91   H60   S    
C153  H148  S    
C124  H88   S    
C44   H12   S    
C18   O17   S    
C25   C34   S    
Cu4   O14   S    
C77   C82   A    
C21   C22   S    
C1    C58   S    
C7    C59   T    
C121  C122  A    
C55   C68   S    
C145  H136  S    
C146  H139  S    
C37   O10   A    
C139  H123  S    
C159  C160  A    
C42   H17   S    
C47   C64   S    
C71   C73   S    
C165  H158  S    
C104  C105  A    
C17   O18   S    
O24   C146  S    
C73   H34   S    
C51   C66   S    
C49   H2    S    
C70   C89   S    
C152  H147  S    
C14   C38   S    
O23   C143  S    
C46   C49   S    
C68   C72   S    
C39   O13   A    
C3    O6    A    
Cu1   N1    S    
Cu2   O2    S    
C15   C39   S    
C47   C52   S    
C16   C40   S    
C5    C65   S    
C141  H126  S    
Cu3   O5    S    
C31   C179  S    
C180  C181  A    
C32   C191  S    
C182  C183  A    
C53   H29   S    
C132  H106  S    
C80   H51   S    
C47   H24   S    
C48   H16   S    
C147  C148  S    
C55   H31   S    
C45   H22   S    
C155  C156  A    
Cu3   O16   S    
C32   C173  S    
Cu4   O7    S    
C187  C188  A    
C127  H95   S    
C17   C25   S    
C138  H120  S    
C113  C118  A    
C44   C55   S    
C22   H47   S    
C66   C70   S    
C45   C50   S    
C162  C163  A    
C178  H169  S    
C164  C165  A    
Cu1   O9    S    
C48   C64   S    
C188  C189  A    
C103  C104  A    
C72   C113  S    
C31   C185  S    
C101  C102  A    
C168  C169  A    
C126  H92   S    
C99   C100  A    
C96   H64   S    
C175  C176  A    
C50   H1    S    
C129  H98   S    
C41   H9    S    
C170  H162  S    
C163  C164  A    
C172  H164  S    
C165  C166  A    
C45   H13   S    
C174  C175  A    
C2    C57   S    
C116  H81   S    
C127  H93   S    
C128  H96   S    
C186  H175  S    
C9    C61   S    
C11   C63   S    
C36   N4    T    
C42   C53   S    
C12   C64   S    
C171  C172  A    
C157  H151  S    
C55   H8    S    
C97   C98   A    
C54   H30   S    
C126  H91   S    
C81   H52   S    
C182  H172  S    
C147  H141  S    
C26   C33   S    
C161  C166  A    
C24   O23   S    
C180  H170  S    
C141  C142  S    
C28   C35   S    
C23   C24   S    
C168  H160  S    
C156  H150  S    
O19   C131  S    
C143  H132  S    
C158  H152  S    
O17   C125  S    
C149  C150  A    
C1    O1    A    
C169  C170  A    
C71   C107  S    
C46   H21   S    
C176  H167  S    
C193  C194  A    
C10   C14   T    
C147  H140  S    
C115  C116  A    
C56   C68   S    
C48   H23   S    
C173  C178  A    
C42   H10   S    
C139  H122  S    
C140  H124  S    
C189  H178  S    
C17   H44   S    
C31   C32   S    
C46   H14   S    
C148  H144  S    
Cu3   N3    S    
C17   C18   S    
C100  H68   S    
C105  H72   S    
C21   O22   S    
C23   C28   S    
C21   H48   S    
C121  H85   S    
C150  C151  A    
C133  H108  S    
C129  C130  S    
C51   H27   S    
C148  H142  S    
C78   H49   S    
C23   H46   S    
C159  H153  S    
C175  H166  S    
C191  C192  A    
C146  C147  S    
O20   C134  S    
C131  H103  S    
C133  H109  S    
C93   H62   S    
C89   C94   A    
C137  H118  S    
C2    O3    A    
C46   C63   S    
C154  H149  S    
C144  C145  S    
C86   H56   S    
Cu2   N2    S    
C82   H53   S    
C183  H173  S    
C4    O7    A    
C24   H45   S    
C63   C75   S    
C164  H157  S    
Cu4   O6    S    
C74   H35   S    
C127  H94   S    
C102  C103  A    
C135  H113  S    
C105  C106  A    
C53   C67   S    
C142  H130  S    
C20   O19   S    
C7    C67   S    
C107  C108  A    
C137  C138  S    
C119  C120  A    
C136  H116  S    
C78   C79   A    
C179  C180  A    
C72   C119  S    
C104  H71   S    
C163  H156  S    
C40   O15   A    
C130  H100  S    
C134  C135  S    
C187  H176  S    
C181  C182  A    
C135  C136  S    
C18   C26   S    
C84   C85   A    
C132  H105  S    
Cu1   Cu2   S    
C125  C126  S    
C111  H77   S    
C37   O9    A    
C87   C88   A    
C173  C174  A    
C140  C141  S    
C188  H177  S    
Cu2   O10   S    
C71   C101  S    
C20   C25   S    
C101  C106  A    
C73   H33   S    
C38   O11   A    
C99   H67   S    
C19   C26   S    
C114  H79   S    
C70   C95   S    
C86   C87   A    
C111  C112  A    
C128  C129  S    
C107  C112  A    
C79   C80   A    
C3    O5    A    
Cu1   O4    S    
C29   C30   S    
Cu2   O3    S    
C174  H165  S    
C18   H43   S    
C3    C60   S    
C141  H127  S    
Cu3   O8    S    
C21   C27   S    
C130  H102  S    
C146  H138  S    
C22   C28   S    
C10   C62   S    
C75   H38   S    
C131  C132  S    
C125  H90   S    
C171  H163  S    
C94   H63   S    
C139  H121  S    
C40   O16   A    
C144  H133  S    
C43   H20   S    
C72   C74   S    
C117  C118  A    
C152  C153  A    
C49   H25   S    
C61   C73   S    
C108  C109  A    
C110  C111  A    
C23   O24   S    
C142  H128  S    
C138  H119  S    
C158  C159  A    
C123  H87   S    
C76   H40   S    
C83   C88   A    
C195  H183  S    
C193  H181  S    
C35   N3    T    
C161  C162  A    
C52   C66   S    
O18   C128  S    
C129  H99   S    
C85   C86   A    
C33   N1    T    
C25   C30   S    
C145  H135  S    
C27   C32   S    
C109  C110  A    
C38   O12   A    
C28   C31   S    
C186  C187  A    
C190  H179  S    
C189  C190  A    
C27   C36   S    
C112  H78   S    
C5    C57   T    
C69   C77   S    
C126  C127  S    
C151  C152  A    
C77   C78   A    
C8    C60   T    
C98   C99   A    
C65   C69   S    
C39   O14   A    
C69   C75   S    
C67   C71   S    
C123  C124  A    
C191  C196  A    
C106  H73   S    
C50   H26   S    
C195  C196  A    
C62   C74   S    
C177  C178  A    
C51   H4    S    
C43   C62   S    
C145  H137  S    
C132  C133  S    
C89   C90   A    
C52   H3    S    
C153  C154  A    
C192  C193  A    
C113  C114  A    
C183  C184  A    
C30   C167  S    
C185  C186  A    
Cu3   O13   S    
C91   C92   A    
C122  C123  A    
C49   C65   S    
C108  H74   S    
O22   C140  S    
C138  C139  S    
C194  H182  S    
C151  H146  S    
C119  C124  A    
C29   C161  S    
C30   C149  S    
C85   H55   S    
C120  C121  A    
C160  H154  S    
C2    O4    A    
C92   C93   A    
C109  H75   S    
Cu4   O15   S    
C93   C94   A    
C148  H143  S    
C118  H83   S    
C53   H6    S    
C13   C37   S    
C84   H54   S    
C120  H84   S    
C117  H82   S    
C166  H159  S    
C88   H58   S    
C87   H57   S    
C29   C155  S    
Cu1   O1    S    
C50   C65   S    
C162  H155  S    
C19   O20   S    
C48   C51   S    
C185  C190  A    
C128  H97   S    
C76   H39   S    
C149  C154  A    
C114  C115  A    
C131  H104  S    
C56   H7    S    
C54   C67   S    
C44   C62   S    
O21   C137  S    
C79   H50   S    
C45   C63   S    
C43   H11   S    
Cu3   Cu4   S    
C144  H134  S    
C177  H168  S    
C96   C97   A    
C155  C160  A    
C4    O8    A    
C102  H69   S    
C74   H36   S    
C64   C76   S    
C167  C172  A    
C196  H184  S    
C80   C81   A    
C142  H129  S    
C42   C61   S    
C34   N2    T    
C20   H41   S    
C143  H131  S    
C8    C68   S    
C136  H115  S    
C70   C76   S    
C110  H76   S    
C1    O2    A    
C90   C91   A    
C103  H70   S    
C134  H111  S    
C41   H18   S    
C22   O21   S    
C54   H5    S    
C170  C171  A    
C83   C84   A    
Cu1   O12   S    
C140  H125  S    
Cu2   O11   S    
C116  C117  A    
C4    C59   S    
C179  C184  A    
C194  C195  A    
C95   C100  A    
C167  C168  A    
C41   C54   S    
C133  H107  S    
C184  H174  S    
C43   C56   S    
C6    C66   S    
C52   H28   S    
C26   C29   S    
C157  C158  A    
C192  H180  S    
C150  H145  S    
C47   H15   S    
C97   H65   S    
C81   C82   A    
C136  H114  S    
C92   H61   S    
C56   H32   S    
C181  H171  S    
