data_mof_unit_26211.cif
_audit_creation_date              2012-12-10T20:34:52-0500
_audit_creation_method            fapswitch 2.2
_symmetry_space_group_name_H-M    P1
_symmetry_Int_Tables_number       1
_space_group_crystal_system       triclinic
_cell_length_a                    10.657833
_cell_length_b                    10.675232
_cell_length_c                    9.858638
_cell_angle_alpha                 89.945803
_cell_angle_beta                  89.919048
_cell_angle_gamma                 90.128974
_cell_volume                      1121.66049348

loop_
_atom_site_label
_atom_site_type_symbol
_atom_type_description
_atom_site_fract_x
_atom_site_fract_y
_atom_site_fract_z
_atom_type_partial_charge
C1    C     C_R   0.503178 0.259987 0.500105 0.916990
C2    C     C_3   0.878381 0.504143 0.497636 0.154863
C3    C     C_3   0.926036 0.622806 0.572071 -0.439717
C4    C     C_3   0.929541 0.501751 0.348552 -0.026007
C5    C     C_R   0.509755 0.063575 0.623184 0.007483
C6    C     C_R   0.520875 0.128501 0.501310 -0.049695
C7    C     C_R   0.554586 0.065017 0.382252 -0.235948
C8    C     C_R   0.555133 0.935401 0.382253 -0.220916
C9    C     C_R   0.522049 0.871395 0.501345 -0.053059
C10   C     C_R   0.510790 0.935885 0.623295 0.012483
C11   C     C_3   0.411540 0.927025 0.730287 -0.499693
C12   C     C_R   0.257605 0.501727 0.500000 0.887934
C13   C     C_3   0.409835 0.068989 0.729778 0.464244
C14   C     C_R   0.438295 0.408199 0.071424 0.219773
C15   C     C_R   0.570125 0.583762 0.071819 -0.133041
C16   C     C_R   0.570069 0.583829 0.927771 -0.142184
C17   C     C_R   0.438427 0.408088 0.928765 0.213622
C18   C     C_3   0.301361 0.380914 0.923248 -0.503022
C19   C     C_3   0.301151 0.381464 0.077001 -0.535132
C20   C     C_R   0.503680 0.739968 0.499998 0.877959
C21   C     C_R   0.742211 0.501719 0.499459 0.844078
C22   C     C_3   0.070820 0.387422 0.577091 -0.374906
C23   C     C_3   0.927019 0.386476 0.573629 -0.478532
C24   C     C_3   0.070825 0.627772 0.564963 -0.057781
C25   C     C_3   0.072724 0.496456 0.351164 -0.503065
C26   C     C_3   0.121031 0.503772 0.499866 0.126697
H1    H     H_    0.103471 0.387064 0.684093 0.194530
H2    H     H_    0.098437 0.706961 0.497341 0.138737
H3    H     H_    0.885799 0.709090 0.526357 0.149063
H4    H     H_    0.572699 0.114465 0.288196 0.162305
H5    H     H_    0.573439 0.886274 0.288189 0.160312
H6    H     H_    0.323270 0.883500 0.692638 0.228398
H7    H     H_    0.448307 0.886825 0.826367 0.157601
H8    H     H_    0.441985 0.112518 0.826058 0.057110
H9    H     H_    0.624773 0.652929 0.126077 0.151537
H10   H     H_    0.107019 0.300129 0.529391 0.197344
H11   H     H_    0.624638 0.653076 0.873221 0.143215
H12   H     H_    0.246769 0.459249 0.878789 0.216635
H13   H     H_    0.280893 0.287321 0.879481 0.239603
H14   H     H_    0.246844 0.460696 0.119971 0.216481
H15   H     H_    0.280537 0.288242 0.122244 0.204864
H16   H     H_    0.893440 0.299886 0.522134 0.164013
H17   H     H_    0.890709 0.384060 0.679570 0.195295
H18   H     H_    0.893127 0.621082 0.679305 0.176522
H19   H     H_    0.113391 0.574050 0.289428 0.178322
H20   H     H_    0.103623 0.406924 0.303878 0.176840
H21   H     H_    0.894876 0.414625 0.298458 0.152638
N1    N     N_R   0.499150 0.499140 0.142800 -0.106001
N2    N     N_R   0.499150 0.499180 0.857150 -0.104617
O1    O     O_R   0.500020 0.316790 0.614690 -0.611898
O2    O     O_R   0.500000 0.316760 0.385350 -0.632620
O3    O     O_R   0.314800 0.500000 0.614670 -0.593908
O4    O     O_R   0.314790 0.499960 0.385330 -0.634837
O5    O     O_R   0.500000 0.683240 0.614650 -0.614404
O6    O     O_R   0.499980 0.683210 0.385310 -0.627770
O7    O     O_R   0.685210 0.500040 0.614670 -0.639708
O8    O     O_R   0.685200 0.500000 0.385330 -0.609252
Zn1   Zn    Zn3+2 0.500010 0.500020 0.653130 0.953059
Zn2   Zn    Zn3+2 0.499990 0.499980 0.346870 0.940201
N3    N     N_3   0.885327 0.609427 0.268535 -0.450153
H22   H     H_    0.931715 0.691330 0.298138 0.183394
H23   H     H_    0.907935 0.593922 0.166633 0.174798
F1    F     F_    0.298036 0.116539 0.680210 -0.681883
N4    N     N_3   0.125046 0.652178 0.699286 -0.450954
H24   H     H_    0.088317 0.589246 0.770336 0.186992
H25   H     H_    0.098233 0.742004 0.729975 0.184765

loop_
_geom_bond_atom_site_label_1
_geom_bond_atom_site_label_2
_ccdc_geom_bond_type
C13   H8    S    
C21   O7    A    
C2    C4    S    
C18   H13   S    
C20   O5    A    
C21   O8    A    
C6    C7    A    
O6    Zn2   S    
C11   C13   S    
C1    O1    A    
C9    C20   S    
C5    C13   S    
C12   O4    A    
C13   F1    S    
C16   H11   S    
N4    H24   S    
C4    N3    S    
C2    C21   S    
C17   C18   S    
O4    Zn2   S    
C19   H15   S    
C5    C10   A    
C24   N4    S    
C7    H4    S    
C1    O2    A    
C14   C17   A    
C3    C24   S    
C23   H16   S    
O3    Zn1   S    
C15   N1    A    
C20   O6    A    
C19   H14   S    
C14   C19   S    
C9    C10   A    
C15   H9    S    
C12   O3    A    
O7    Zn1   S    
C11   H6    S    
C4    C25   S    
C2    C3    S    
C22   H1    S    
C22   C26   S    
C5    C6    A    
C24   C26   S    
C3    H18   S    
O8    Zn2   S    
O2    Zn2   S    
C10   C11   S    
C15   C16   A    
O1    Zn1   S    
C25   H19   S    
C11   H7    S    
C23   H17   S    
C16   N2    A    
N1    Zn2   S    
N3    H23   S    
C18   C19   S    
O5    Zn1   S    
C17   N2    A    
C2    C23   S    
C3    H3    S    
C7    C8    A    
C22   C23   S    
N3    H22   S    
C14   N1    A    
C1    C6    S    
C25   C26   S    
C18   H12   S    
C8    H5    S    
C25   H20   S    
C22   H10   S    
N2    Zn1   S    
C24   H2    S    
C12   C26   S    
C8    C9    A    
C4    H21   S    
N4    H25   S    
