data_mof_unit_21245.cif
_audit_creation_date              2012-12-10T18:02:11-0500
_audit_creation_method            fapswitch 2.2
_symmetry_space_group_name_H-M    P1
_symmetry_Int_Tables_number       1
_space_group_crystal_system       triclinic
_cell_length_a                    10.931848
_cell_length_b                    9.506612
_cell_length_c                    23.549042
_cell_angle_alpha                 90.006076
_cell_angle_beta                  90.84718
_cell_angle_gamma                 89.683966
_cell_volume                      2447.0256116

loop_
_atom_site_label
_atom_site_type_symbol
_atom_type_description
_atom_site_fract_x
_atom_site_fract_y
_atom_site_fract_z
_atom_type_partial_charge
C1    C     C_R   0.261560 0.500521 0.499657 0.922412
C2    C     C_R   0.737658 0.499827 0.500038 0.964450
C3    C     C_R   0.557766 0.404650 0.236051 -0.206586
C4    C     C_R   0.441013 0.407054 0.763759 -0.200826
C5    C     C_R   0.563977 0.395299 0.295301 0.391585
C6    C     C_R   0.433570 0.398820 0.704509 0.389007
C7    C     C_R   0.509979 0.503521 0.328217 -0.211823
C8    C     C_R   0.491619 0.503508 0.671689 -0.221779
C9    C     C_R   0.462888 0.623773 0.300495 -0.284981
C10   C     C_R   0.544181 0.620039 0.699415 -0.301954
C11   C     C_R   0.465732 0.637163 0.241486 0.483437
C12   C     C_R   0.542609 0.633107 0.758456 0.483296
C13   C     C_R   0.509224 0.523794 0.208852 0.151133
C14   C     C_R   0.494777 0.522564 0.791032 0.151412
C15   C     C_R   0.060931 0.373484 0.500397 0.318536
C16   C     C_R   0.934727 0.622146 0.483232 0.230731
C17   C     C_R   0.938397 0.379144 0.515258 0.294914
C18   C     C_R   0.058902 0.629555 0.497541 0.222592
C19   C     C_R   0.870963 0.500200 0.499574 -0.378080
C20   C     C_R   0.126796 0.501551 0.499261 -0.370878
C21   C     C_R   0.447561 0.074533 0.456262 0.120223
C22   C     C_R   0.553308 0.925232 0.543641 0.064907
C23   C     C_R   0.553341 0.073952 0.543554 0.101443
C24   C     C_R   0.448246 0.925924 0.456015 0.123821
C25   C     C_R   0.504455 0.500075 0.390906 0.905662
C26   C     C_R   0.495852 0.500170 0.609057 0.890336
C27   C     C_R   0.607132 0.515554 0.880553 0.629816
C28   C     C_R   0.396771 0.524015 0.119337 0.627937
C29   C     C_R   0.389084 0.535500 0.880574 0.617102
C30   C     C_R   0.615334 0.529465 0.119312 0.619383
C31   C     C_R   0.388673 0.533761 0.940123 -0.030520
C32   C     C_R   0.615672 0.527046 0.059761 -0.031945
C33   C     C_R   0.501149 0.528267 0.969980 -0.010597
C34   C     C_R   0.503119 0.528609 0.029904 -0.010951
C35   C     C_R   0.611602 0.520847 0.940070 -0.034469
C36   C     C_R   0.392518 0.528902 0.059817 -0.033972
C37   C     C_R   0.278876 0.536785 0.970386 -0.134319
C38   C     C_R   0.725436 0.522420 0.029497 -0.133854
C39   C     C_R   0.280754 0.532830 0.029621 -0.131103
C40   C     C_R   0.723384 0.517801 0.970267 -0.131283
Cu1   Cu    Cu3+1 0.500000 0.640660 0.500000 1.076881
Cu2   Cu    Cu3+1 0.500000 0.359340 0.500000 1.112411
H1    H     H_    0.191164 0.540617 0.948424 0.197995
H2    H     H_    0.813190 0.520746 0.051459 0.197654
H3    H     H_    0.194456 0.533788 0.051634 0.198969
H4    H     H_    0.809599 0.512788 0.948255 0.198675
H5    H     H_    0.593896 0.320105 0.210307 0.212076
H6    H     H_    0.401472 0.324939 0.789424 0.211114
H7    H     H_    0.424461 0.709177 0.325065 0.210379
H8    H     H_    0.585769 0.702820 0.674793 0.209166
H9    H     H_    0.405173 0.130347 0.421315 0.175249
H10   H     H_    0.596793 0.869219 0.578492 0.141270
H11   H     H_    0.596939 0.129430 0.578266 0.181798
H12   H     H_    0.406337 0.870521 0.420744 0.142005
N1    N     N_R   0.497278 0.526532 0.852047 -0.438262
N2    N     N_R   0.506922 0.527952 0.147839 -0.438180
N3    N     N_R   0.500000 0.852070 0.500000 -0.178351
N4    N     N_R   0.500000 0.147930 0.500000 -0.193303
O1    O     O_R   0.319640 0.618740 0.500000 -0.537391
O2    O     O_R   0.680360 0.381260 0.500000 -0.529706
O3    O     O_R   0.680360 0.618740 0.500000 -0.542038
O4    O     O_R   0.319640 0.381260 0.500000 -0.510079
O5    O     O_R   0.499960 0.618810 0.417880 -0.586689
O6    O     O_R   0.500040 0.381190 0.582120 -0.539306
O7    O     O_R   0.500040 0.618810 0.582120 -0.604025
O8    O     O_R   0.499960 0.381190 0.417880 -0.550094
O9    O     O_2   0.711451 0.498281 0.851388 -0.475071
O10   O     O_2   0.291886 0.513989 0.148514 -0.476504
O11   O     O_2   0.282324 0.546228 0.851342 -0.484477
O12   O     O_2   0.722380 0.533364 0.148544 -0.481503
S1    S     S_3+6 0.648611 0.252782 0.324875 0.070088
O13   O     O_2   0.561600 0.139116 0.341716 -0.274077
O14   O     O_2   0.735064 0.194363 0.281644 -0.206571
O15   O     O_3   0.730465 0.305752 0.381907 -0.541471
H13   H     H_    0.764080 0.218191 0.398960 0.411662
S2    S     S_3+6 0.341782 0.263444 0.674804 0.076618
O16   O     O_2   0.251072 0.214120 0.717753 -0.214631
O17   O     O_2   0.273213 0.315868 0.623161 -0.264338
O18   O     O_3   0.431918 0.127294 0.657092 -0.522699
H14   H     H_    0.375193 0.054817 0.642130 0.396093
S3    S     S_3+6 0.417941 0.798398 0.210477 0.069498
O19   O     O_2   0.283106 0.791851 0.197465 -0.224706
O20   O     O_2   0.441643 0.916928 0.251383 -0.232129
O21   O     O_3   0.494103 0.828977 0.150220 -0.522754
H15   H     H_    0.454289 0.913385 0.133402 0.380490
S4    S     S_3+6 0.597170 0.790783 0.789559 0.062772
O22   O     O_2   0.731594 0.775083 0.802434 -0.221115
O23   O     O_2   0.578243 0.910894 0.748778 -0.247767
O24   O     O_3   0.522647 0.826266 0.849918 -0.525481
H16   H     H_    0.566069 0.907682 0.866808 0.381756
S5    S     S_3+6 0.116671 0.213820 0.471108 0.118140
O25   O     O_2   0.195699 0.138901 0.514335 -0.169156
O26   O     O_2   0.012007 0.120580 0.453797 -0.168358
O27   O     O_3   0.198232 0.250572 0.412970 -0.562503
H17   H     H_    0.192068 0.165541 0.388800 0.382538
S6    S     S_3+6 0.869514 0.751304 0.436608 0.131896
O28   O     O_2   0.802021 0.860385 0.470243 -0.175578
O29   O     O_2   0.967663 0.822456 0.403261 -0.181226
O30   O     O_3   0.770885 0.675152 0.390697 -0.495088
H18   H     H_    0.819279 0.601294 0.371439 0.359401
S7    S     S_3+6 0.880918 0.246907 0.560889 0.093130
O31   O     O_2   0.815879 0.137019 0.526269 -0.231764
O32   O     O_2   0.984892 0.179063 0.593406 -0.161577
O33   O     O_3   0.783357 0.319218 0.607316 -0.559215
H19   H     H_    0.766706 0.243814 0.635128 0.380784
S8    S     S_3+6 0.117439 0.794824 0.520273 0.134952
O34   O     O_2   0.184387 0.860490 0.471926 -0.217160
O35   O     O_2   0.014991 0.890835 0.537582 -0.134742
O36   O     O_3   0.213328 0.775863 0.576360 -0.488260
H20   H     H_    0.167174 0.719786 0.604193 0.347674

loop_
_geom_bond_atom_site_label_1
_geom_bond_atom_site_label_2
_ccdc_geom_bond_type
C23   N4    A    
C30   C32   A    
S7    O31   D    
C5    S1    S    
C8    C26   S    
Cu1   Cu2   S    
S2    O18   S    
Cu1   O3    S    
C1    O4    A    
Cu2   N4    S    
C22   N3    A    
S3    O19   D    
C28   N2    A    
C11   S3    S    
C40   H4    S    
C22   H10   S    
C28   O10   S    
S2    O17   D    
C1    O1    A    
C33   C35   A    
C2    O2    A    
S8    O34   D    
C24   H12   S    
S6    O30   S    
C15   C17   A    
C25   O5    A    
C26   O6    A    
C17   S7    S    
C30   O12   S    
C24   N3    A    
S6    O29   D    
C31   C33   A    
C32   C38   A    
Cu2   O4    S    
C18   C20   A    
C3    C13   A    
C2    O3    A    
C39   H3    S    
C13   N2    S    
C14   N1    S    
S7    O32   D    
O33   H19   S    
S3    O20   D    
C23   H11   S    
C29   O11   S    
C15   C20   A    
C16   S6    S    
O15   H13   S    
S4    O23   D    
C9    H7    S    
S2    O16   D    
Cu1   O1    S    
C4    C6    A    
Cu2   O2    S    
S5    O25   D    
C5    C7    A    
S4    O22   D    
Cu1   O7    S    
C29   N1    A    
C27   C35   A    
C30   N2    A    
C31   C37   A    
C32   C34   A    
C37   H1    S    
C18   S8    S    
C38   H2    S    
S5    O26   D    
O30   H18   S    
C29   C31   A    
S6    O28   D    
C33   C34   A    
O21   H15   S    
C9    C11   A    
C10   C12   A    
C8    C10   A    
C12   C14   A    
S7    O33   S    
Cu1   O5    S    
C10   H8    S    
Cu2   O6    S    
C21   H9    S    
S3    O21   S    
S1    O14   D    
C4    H6    S    
C7    C9    A    
C1    C20   S    
C2    C19   S    
C26   O7    A    
C36   C39   A    
C25   O8    A    
C3    C5    A    
S4    O24   S    
S1    O15   S    
C6    C8    A    
C6    S2    S    
C27   N1    A    
C7    C25   S    
C12   S4    S    
C35   C40   A    
Cu1   N3    S    
C21   N4    A    
C37   C39   A    
O36   H20   S    
S5    O27   S    
C38   C40   A    
C11   C13   A    
S8    O35   D    
C16   C19   A    
C3    H5    S    
C17   C19   A    
C34   C36   A    
C4    C14   A    
O27   H17   S    
C27   O9    S    
C15   S5    S    
O18   H14   S    
S1    O13   D    
C28   C36   A    
C16   C18   A    
C21   C24   A    
Cu2   O8    S    
C22   C23   A    
O24   H16   S    
S8    O36   S    
