data_mof_unit_47119.cif
_audit_creation_date              2012-12-10T20:25:41-0500
_audit_creation_method            fapswitch 2.2
_symmetry_space_group_name_H-M    P1
_symmetry_Int_Tables_number       1
_space_group_crystal_system       triclinic
_cell_length_a                    8.620805
_cell_length_b                    10.680401
_cell_length_c                    9.885852
_cell_angle_alpha                 89.67141
_cell_angle_beta                  98.072982
_cell_angle_gamma                 90.172552
_cell_volume                      901.189108364

loop_
_atom_site_label
_atom_site_type_symbol
_atom_type_description
_atom_site_fract_x
_atom_site_fract_y
_atom_site_fract_z
_atom_type_partial_charge
C1    C     C_R   0.505736 0.260051 0.501132 0.949800
C2    C     C_R   0.565848 0.937132 0.386492 0.641014
C3    C     C_R   0.533868 0.871445 0.503365 -0.199891
C4    C     C_R   0.534578 0.935064 0.625966 -0.014967
C5    C     C_3   0.427851 0.924849 0.732574 -0.475835
C6    C     C_3   0.429822 0.067137 0.735407 0.575435
C7    C     C_R   0.394759 0.428474 0.059058 -0.036881
C8    C     C_R   0.611644 0.562566 0.085245 -0.063855
C9    C     C_R   0.611568 0.562855 0.941460 0.654137
C10   C     C_R   0.394719 0.428559 0.916468 -0.013591
C11   C     C_3   0.221273 0.442110 0.891187 0.389264
C12   C     C_R   0.201728 0.498873 0.464302 0.858886
C13   C     C_3   0.220983 0.439990 0.044039 0.435797
C14   C     C_R   0.506229 0.740023 0.500254 0.905489
C15   C     C_R   0.798301 0.499875 0.534832 0.979600
C16   C     C_2   0.037628 0.493380 0.443214 0.475681
C17   C     C_2   0.962435 0.502965 0.551470 -0.452824
C18   C     C_R   0.535877 0.062901 0.627723 -0.020203
C19   C     C_R   0.533516 0.128964 0.505523 -0.153564
C20   C     C_R   0.565110 0.066637 0.387890 -0.262172
H1    H     H_    0.183643 0.533029 0.842810 0.111422
H2    H     H_    0.162552 0.357114 0.083214 0.144481
H3    H     H_    0.021714 0.516259 0.653861 0.178015
H4    H     H_    0.578171 0.116889 0.294612 0.210128
H5    H     H_    0.311539 0.884690 0.691782 0.226183
H6    H     H_    0.486543 0.878891 0.827424 0.209069
H7    H     H_    0.699644 0.615551 0.149940 0.222791
N1    N     N_R   0.498950 0.499140 0.142680 -0.116222
N2    N     N_R   0.498950 0.499180 0.857030 -0.184553
O1    O     O_R   0.500020 0.316790 0.614690 -0.589642
O2    O     O_R   0.500000 0.316760 0.385350 -0.638764
O3    O     O_R   0.271760 0.500010 0.587850 -0.653526
O4    O     O_R   0.271740 0.499970 0.358500 -0.533868
O5    O     O_R   0.500000 0.683240 0.614650 -0.604009
O6    O     O_R   0.499980 0.683210 0.385310 -0.553545
O7    O     O_R   0.728260 0.500030 0.641500 -0.567251
O8    O     O_R   0.728240 0.499990 0.412150 -0.564248
Zn1   Zn    Zn3+2 0.500010 0.500020 0.653130 1.047664
Zn2   Zn    Zn3+2 0.499990 0.499980 0.346870 1.077378
F1    F     F_    0.965134 0.476399 0.312731 -0.608949
F2    F     F_    0.721473 0.630201 0.887318 -0.618025
F3    F     F_    0.149619 0.337674 0.827653 -0.608501
F4    F     F_    0.173583 0.553643 0.090959 -0.596243
F5    F     F_    0.585136 0.878154 0.268640 -0.635653
F6    F     F_    0.285196 0.120095 0.690267 -0.595432
C21   C     C_1   0.506640 0.119554 0.865112 0.247122
N3    N     N_1   0.567573 0.160175 0.967308 -0.177145

loop_
_geom_bond_atom_site_label_1
_geom_bond_atom_site_label_2
_ccdc_geom_bond_type
N2    Zn1   S    
C14   O5    A    
C7    C10   A    
O6    Zn2   S    
C6    F6    S    
O3    Zn1   S    
C9    F2    S    
C19   C20   A    
C9    N2    A    
C4    C18   A    
C13   F4    S    
O7    Zn1   S    
C2    C3    A    
C3    C4    A    
O8    Zn2   S    
C17   H3    S    
C12   O3    A    
C11   C13   S    
C10   N2    A    
O4    Zn2   S    
C3    C14   S    
C16   F1    S    
C8    N1    A    
C1    O1    A    
O2    Zn2   S    
C13   H2    S    
C5    C6    S    
C6    C18   S    
C5    H5    S    
C1    C19   S    
C16   C17   D    
C10   C11   S    
C2    C20   A    
C5    H6    S    
C20   H4    S    
C15   O7    A    
C1    O2    A    
O1    Zn1   S    
C11   F3    S    
C18   C19   A    
C14   O6    A    
C15   C17   S    
C8    H7    S    
C21   N3    T    
C4    C5    S    
C7    C13   S    
C6    C21   S    
N1    Zn2   S    
C12   O4    A    
O5    Zn1   S    
C11   H1    S    
C15   O8    A    
C7    N1    A    
C12   C16   S    
C2    F5    S    
C8    C9    A    
