data_mof_unit_36204.cif
_audit_creation_date              2012-12-11T16:25:31-0500
_audit_creation_method            fapswitch 2.2
_symmetry_space_group_name_H-M    P1
_symmetry_Int_Tables_number       1
_space_group_crystal_system       triclinic
_cell_length_a                    20.225184
_cell_length_b                    7.338469
_cell_length_c                    13.831781
_cell_angle_alpha                 90.000216
_cell_angle_beta                  103.20815
_cell_angle_gamma                 89.999184
_cell_volume                      1998.63141559

loop_
_atom_site_label
_atom_site_type_symbol
_atom_type_description
_atom_site_fract_x
_atom_site_fract_y
_atom_site_fract_z
_atom_type_partial_charge
O1    O     O_R   0.449520 0.506760 0.599710 -0.538419
O2    O     O_R   0.550480 0.006760 0.400290 -0.538423
O3    O     O_R   0.587930 0.180200 0.595790 -0.552682
O4    O     O_R   0.412070 0.680200 0.404210 -0.552675
C1    C     C_R   0.613471 0.345644 0.619979 0.780007
C2    C     C_R   0.386529 0.845645 0.380020 0.780013
O5    O     O_R   0.452350 0.177380 0.611700 -0.548143
O6    O     O_R   0.547650 0.677380 0.388300 -0.548158
O7    O     O_R   0.413930 0.001760 0.416320 -0.529330
O8    O     O_R   0.586070 0.501760 0.583680 -0.529320
C3    C     C_R   0.434195 0.344378 0.633810 0.758586
C4    C     C_R   0.565806 0.844375 0.366191 0.758592
O9    O     O_3   0.487550 0.337460 0.435880 -0.399149
O10   O     O_3   0.512450 0.837460 0.564120 -0.399121
V1    V     V_3+5 0.502310 0.064670 0.511900 1.380964
V2    V     V_3+5 0.497690 0.564670 0.488100 1.380955
C5    C     C_R   0.609850 0.842593 0.118989 0.463537
C6    C     C_R   0.390149 0.342635 0.881010 0.463547
H1    H     H_    0.518440 0.824773 0.169973 0.168177
H2    H     H_    0.481560 0.324823 0.830028 0.168181
H3    H     H_    0.688187 0.803368 0.995408 0.164988
H4    H     H_    0.311813 0.303407 0.004593 0.164990
C7    C     C_R   0.606035 0.846158 0.290897 -0.139827
C8    C     C_R   0.393965 0.346177 0.709103 -0.139852
C9    C     C_R   0.933384 0.847943 0.311291 -0.276403
C10   C     C_R   0.066615 0.347961 0.688708 -0.276382
C11   C     C_R   0.900913 0.819300 0.387188 -0.196178
C12   C     C_R   0.099086 0.319326 0.612809 -0.196189
C13   C     C_R   0.829767 0.815508 0.369564 0.434254
C14   C     C_R   0.170232 0.315525 0.630433 0.434249
C15   C     C_R   0.789836 0.834270 0.270195 -0.047653
C16   C     C_R   0.210163 0.334278 0.729803 -0.047644
C17   C     C_R   0.824736 0.840990 0.190296 -0.070820
C18   C     C_R   0.175264 0.340977 0.809702 -0.070811
C19   C     C_R   0.716841 0.841218 0.246466 0.032067
C20   C     C_R   0.283159 0.341238 0.753532 0.032056
C21   C     C_R   0.681406 0.835919 0.145414 -0.025937
C22   C     C_R   0.318593 0.335958 0.854586 -0.025915
C23   C     C_R   0.716526 0.823403 0.070596 -0.264461
C24   C     C_R   0.283474 0.323429 0.929405 -0.264433
C25   C     C_R   0.787169 0.829861 0.090015 0.423244
C26   C     C_R   0.212831 0.329825 0.909982 0.423176
C27   C     C_R   0.676855 0.859899 0.318058 -0.182319
C28   C     C_R   0.323145 0.359905 0.681940 -0.182336
C29   C     C_R   0.573215 0.830504 0.191634 -0.276842
C30   C     C_R   0.426785 0.330554 0.808366 -0.276836
C31   C     C_R   0.896907 0.855769 0.213326 -0.059780
C32   C     C_R   0.103093 0.355762 0.786674 -0.059775
H5    H     H_    0.697951 0.889402 0.394688 0.154562
H6    H     H_    0.302051 0.389380 0.605306 0.154584
H7    H     H_    0.987999 0.855533 0.329423 0.115210
H8    H     H_    0.012001 0.355566 0.670576 0.115212
H9    H     H_    0.931964 0.798470 0.461156 0.126087
H10   H     H_    0.068033 0.298515 0.538840 0.126090
H11   H     H_    0.099173 0.832974 0.465464 0.112049
H12   H     H_    0.900829 0.332935 0.534538 0.112052
C33   C     C_R   0.234141 0.877522 0.039169 -0.098277
C34   C     C_R   0.765858 0.377532 0.960829 -0.098306
C35   C     C_R   0.289950 0.901866 0.997994 -0.201505
C36   C     C_R   0.710047 0.401871 0.002002 -0.201551
C37   C     C_R   0.353260 0.935269 0.059050 -0.227165
C38   C     C_R   0.646737 0.435278 0.940945 -0.227186
C39   C     C_R   0.362404 0.934892 0.162663 0.367667
C40   C     C_R   0.637595 0.434911 0.837332 0.367669
C41   C     C_R   0.307990 0.886007 0.206892 -0.028701
C42   C     C_R   0.692010 0.386017 0.793105 -0.028698
C43   C     C_R   0.241535 0.872169 0.143323 0.000152
C44   C     C_R   0.758464 0.372178 0.856676 0.000145
C45   C     C_R   0.317202 0.858360 0.311565 -0.180637
C46   C     C_R   0.682798 0.358358 0.688433 -0.180627
C47   C     C_R   0.258870 0.844853 0.351903 0.039533
C48   C     C_R   0.741131 0.344843 0.648096 0.039514
C49   C     C_R   0.192472 0.845470 0.288265 0.053860
C50   C     C_R   0.807528 0.345462 0.711735 0.053849
C51   C     C_R   0.183579 0.856483 0.183846 -0.156539
C52   C     C_R   0.816421 0.356486 0.816153 -0.156536
C53   C     C_R   0.265218 0.838594 0.455979 -0.153944
C54   C     C_R   0.734783 0.338575 0.544021 -0.153959
C55   C     C_R   0.208017 0.836696 0.496117 -0.068409
C56   C     C_R   0.791985 0.336668 0.503884 -0.068419
C57   C     C_R   0.143459 0.835931 0.433919 -0.150427
C58   C     C_R   0.856542 0.335901 0.566082 -0.150421
C59   C     C_R   0.135692 0.837677 0.331183 -0.177149
C60   C     C_R   0.864308 0.337655 0.668818 -0.177139
H13   H     H_    0.185195 0.861142 0.988313 0.128792
H14   H     H_    0.814804 0.361152 0.011686 0.128793
H15   H     H_    0.283496 0.903708 0.918106 0.143090
H16   H     H_    0.716500 0.403708 0.081890 0.143093
H17   H     H_    0.395502 0.967125 0.025915 0.152717
H18   H     H_    0.604494 0.467132 0.974079 0.152716
H19   H     H_    0.314286 0.839018 0.507595 0.102454
H20   H     H_    0.685715 0.338999 0.492404 0.102452
H21   H     H_    0.213802 0.834305 0.575877 0.123757
H22   H     H_    0.786199 0.334270 0.424124 0.123760
H23   H     H_    0.084952 0.835899 0.285169 0.089605
H24   H     H_    0.915049 0.335871 0.714832 0.089606
O11   O     O_R   0.913760 0.203480 0.916370 -0.544244
O12   O     O_R   0.086240 0.703480 0.083630 -0.544258
O13   O     O_R   0.047590 0.535230 0.888250 -0.551234
O14   O     O_R   0.952410 0.035230 0.111750 -0.551226
C61   C     C_R   0.063213 0.367903 0.862724 0.788793
C62   C     C_R   0.936789 0.867904 0.137278 0.788835
O15   O     O_R   0.912020 0.532880 0.904260 -0.528697
O16   O     O_R   0.087980 0.032880 0.095740 -0.528692
O17   O     O_R   0.949590 0.708460 0.099750 -0.519468
O18   O     O_R   0.050410 0.208460 0.900250 -0.519453
C63   C     C_R   0.886097 0.364552 0.883041 0.680892
C64   C     C_R   0.113903 0.864551 0.116959 0.680888
O19   O     O_3   0.012370 0.375360 0.064120 -0.389872
O20   O     O_3   0.987630 0.875360 0.935880 -0.389843
V3    V     V_3+5 0.997700 0.648160 0.988110 1.438241
V4    V     V_3+5 0.002300 0.148160 0.011890 1.438247
O21   O     O_3   0.423740 0.993543 0.219683 -0.594960
C65   C     C_3   0.430159 0.184694 0.208995 0.095395
H25   H     H_    0.424890 0.250639 0.278337 0.170751
H26   H     H_    0.390568 0.248857 0.149433 0.099575
C66   C     C_3   0.499475 0.225413 0.187896 -0.287577
H27   H     H_    0.538517 0.143423 0.236481 0.210617
H28   H     H_    0.498362 0.186320 0.110419 0.220611
C67   C     C_3   0.522110 0.421741 0.206733 -0.739315
H29   H     H_    0.478677 0.514842 0.205432 0.220915
H30   H     H_    0.550234 0.464013 0.150308 0.216347
H31   H     H_    0.558087 0.430663 0.280086 0.243029
O22   O     O_3   0.576261 0.493575 0.780310 -0.594955
C68   C     C_3   0.569840 0.684726 0.791009 0.095376
H32   H     H_    0.575115 0.750688 0.721674 0.170724
H33   H     H_    0.609427 0.748873 0.850581 0.099599
C69   C     C_3   0.500520 0.725438 0.812098 -0.287496
H34   H     H_    0.461477 0.643499 0.763479 0.210607
H35   H     H_    0.501625 0.686263 0.889561 0.220560
C70   C     C_3   0.477901 0.921800 0.793330 -0.739276
H36   H     H_    0.521335 0.014859 0.794568 0.220913
H37   H     H_    0.449842 0.964071 0.849832 0.216384
H38   H     H_    0.441869 0.930800 0.720025 0.242958
O23   O     O_3   0.574617 0.874218 0.022707 -0.575713
C71   C     C_3   0.584726 0.057427 0.997259 -0.301804
H39   H     H_    0.615331 0.060077 0.940188 0.157615
H40   H     H_    0.609759 0.146700 0.060518 0.138282
H41   H     H_    0.534888 0.120142 0.965023 0.182116
O24   O     O_3   0.425382 0.374206 0.977296 -0.575732
C72   C     C_3   0.415295 0.557414 0.002765 -0.301845
H42   H     H_    0.384692 0.560072 0.059840 0.157623
H43   H     H_    0.390267 0.646721 0.939518 0.138287
H44   H     H_    0.465142 0.620075 0.035005 0.182148
O25   O     O_3   0.800508 0.766006 0.447151 -0.579697
C73   C     C_3   0.821054 0.884012 0.529939 0.041888
H45   H     H_    0.775212 0.950577 0.545249 0.138037
H46   H     H_    0.856016 0.994662 0.518614 0.124752
C74   C     C_3   0.854725 0.773325 0.620785 -0.310318
H47   H     H_    0.815491 0.686425 0.641769 0.219400
H48   H     H_    0.895496 0.687296 0.603119 0.202839
C75   C     C_3   0.885975 0.893538 0.708563 -0.797428
H49   H     H_    0.927401 0.978199 0.691534 0.226858
H50   H     H_    0.907415 0.805381 0.772967 0.254868
H51   H     H_    0.846417 0.981936 0.727485 0.224851
O26   O     O_3   0.199491 0.266032 0.552843 -0.579703
C76   C     C_3   0.178940 0.384034 0.470054 0.041924
H52   H     H_    0.224781 0.450570 0.454724 0.138031
H53   H     H_    0.143991 0.494709 0.481394 0.124758
C77   C     C_3   0.145246 0.273353 0.379219 -0.310350
H54   H     H_    0.184471 0.186473 0.358194 0.219373
H55   H     H_    0.104493 0.187300 0.396915 0.202853
C78   C     C_3   0.113956 0.393569 0.291461 -0.797442
H56   H     H_    0.072552 0.478251 0.308544 0.226842
H57   H     H_    0.092476 0.305402 0.227078 0.254854
H58   H     H_    0.153497 0.481945 0.272478 0.224871
O27   O     O_3   0.820851 0.799929 0.013994 -0.549337
C79   C     C_3   0.788594 0.880929 0.922842 -0.226335
H59   H     H_    0.763071 0.011395 0.932416 0.121246
H60   H     H_    0.752033 0.784003 0.877590 0.135426
H61   H     H_    0.827865 0.911312 0.881349 0.177999
O28   O     O_3   0.179151 0.299773 0.985995 -0.549336
C80   C     C_3   0.211376 0.380819 0.077148 -0.226201
H62   H     H_    0.236818 0.511408 0.067568 0.121246
H63   H     H_    0.248000 0.284018 0.122385 0.135339
H64   H     H_    0.172098 0.410983 0.118666 0.177981

loop_
_geom_bond_atom_site_label_1
_geom_bond_atom_site_label_2
_ccdc_geom_bond_type
C2    C45   S    
C42   C44   A    
C39   C41   A    
C76   H52   S    
C7    C29   A    
C11   C13   A    
C66   H27   S    
C78   H56   S    
O1    C3    A    
C47   C53   A    
C70   H38   S    
O2    C4    A    
C69   H34   S    
C2    O7    A    
C65   H25   S    
C36   H16   S    
C43   C51   A    
C7    C27   A    
O23   C71   S    
C23   C25   A    
O18   V4    S    
C80   H62   S    
C67   H29   S    
O5    C3    A    
C14   O26   S    
C4    C7    S    
C50   C52   A    
C16   C20   A    
O15   V3    S    
O26   C76   S    
C19   C21   A    
C5    C29   A    
C55   H21   S    
C74   H48   S    
C13   O25   S    
C54   C56   A    
C33   C35   A    
C34   C36   A    
C34   H14   S    
C3    C8    S    
O12   C64   A    
C62   O17   A    
C36   C38   A    
C60   H24   S    
C45   C47   A    
O20   V3    S    
C48   C54   A    
C16   C18   A    
C79   H61   S    
C37   H17   S    
C41   C43   A    
C18   C26   A    
C5    O23   S    
C68   C69   S    
C38   C40   A    
C15   C17   A    
H11   C57   S    
C19   C27   A    
C9    C31   A    
C67   H31   S    
C10   C32   A    
O6    V2    S    
C24   C26   A    
O17   V3    S    
H4    C24   S    
C51   C64   S    
C76   H53   S    
C31   C62   S    
C11   H9    S    
C49   C51   A    
C33   C43   A    
C71   H41   S    
C6    C30   A    
C57   C59   A    
C67   H30   S    
O25   C73   S    
C73   H46   S    
C80   H63   S    
C39   O21   S    
C35   C37   A    
C46   C48   A    
C73   H45   S    
C77   C78   S    
C78   H58   S    
O24   C72   S    
C48   C50   A    
C66   C67   S    
O27   C79   S    
C55   C57   A    
O11   V4    S    
C12   H10   S    
C27   H5    S    
O5    V1    S    
C54   H20   S    
C40   O22   S    
O19   V4    S    
C72   H43   S    
C40   C42   A    
O4    V2    S    
C9    H7    S    
C1    C46   S    
C10   H8    S    
C73   C74   S    
H3    C23   S    
C75   H51   S    
O6    C4    A    
O13   V3    S    
O14   C62   A    
C53   C55   A    
O1    V2    S    
C5    C21   A    
C59   H23   S    
C6    O24   S    
O2    V1    S    
C38   H18   S    
C26   O28   S    
C74   C75   S    
C56   C58   A    
C79   H59   S    
O13   C61   A    
C75   H50   S    
O14   V4    S    
C52   C63   S    
C58   C60   A    
C68   H32   S    
C8    C28   A    
C15   C19   A    
C72   H44   S    
O4    C2    A    
C9    C11   A    
C56   H22   S    
C70   H36   S    
C69   C70   S    
O3    C1    A    
O16   C64   A    
O3    V1    S    
O28   C80   S    
C71   H40   S    
O16   V4    S    
O21   C65   S    
C80   H64   S    
C28   H6    S    
C61   O18   A    
C41   C45   A    
C53   H19   S    
O12   V3    S    
C78   H57   S    
C37   C39   A    
C50   C60   A    
C71   H39   S    
C70   H37   S    
C69   H35   S    
C65   H26   S    
H1    C29   S    
H12   C58   S    
C76   C77   S    
C44   C52   A    
C10   C12   A    
C8    C30   A    
C77   H54   S    
C66   H28   S    
C6    C22   A    
C17   C25   A    
C12   C14   A    
C21   C23   A    
O8    V2    S    
C72   H42   S    
C20   C22   A    
C14   C16   A    
C34   C44   A    
C42   C46   A    
C22   C24   A    
C17   C31   A    
C32   C61   S    
C25   O27   S    
C79   H60   S    
C33   H13   S    
O7    V1    S    
C35   H15   S    
C65   C66   S    
C20   C28   A    
O11   C63   A    
C1    O8    A    
C18   C32   A    
C75   H49   S    
C13   C15   A    
O9    V2    S    
C47   C49   A    
C68   H33   S    
O10   V1    S    
O15   C63   A    
C74   H47   S    
C49   C59   A    
H2    C30   S    
C77   H55   S    
O22   C68   S    
