data_mof_unit_47697.cif
_audit_creation_date              2013-03-05T16:18:53-0500
_audit_creation_method            fapswitch 2.2
_symmetry_space_group_name_H-M    P1
_symmetry_Int_Tables_number       1
_space_group_crystal_system       triclinic
_cell_length_a                    8.386148
_cell_length_b                    18.990628
_cell_length_c                    22.932782
_cell_angle_alpha                 100.819271
_cell_angle_beta                  90.125157
_cell_angle_gamma                 92.119263
_cell_volume                      3584.70388196

loop_
_atom_site_label
_atom_site_type_symbol
_atom_site_description
_atom_site_fract_x
_atom_site_fract_y
_atom_site_fract_z
_atom_type_partial_charge
P1    P     P_3+3 0.935930 0.665430 0.555670 0.518045
O1    O     O_2   0.110690 0.676100 0.539200 -0.353414
O2    O     O_3   0.863220 0.586720 0.534720 -0.364707
O3    O     O_3   0.368310 0.629070 0.432760 -0.394133
O4    O     O_2   0.240237 0.755968 0.470476 -0.435995
O5    O     O_3   0.952648 0.699263 0.632613 -0.592736
O6    O     O_3   0.381372 0.746319 0.367376 -0.574091
C1    C     C_3   0.362451 0.698265 0.261239 -0.158783
H1    H     H_    0.232464 0.692886 0.260750 0.117875
P2    P     P_3+3 0.382700 0.439650 0.365620 0.583237
P3    P     P_3+3 0.941510 0.579126 0.323753 0.557158
O7    O     O_2   0.210480 0.460990 0.358130 -0.398770
O8    O     O_3   0.959520 0.592090 0.401630 -0.363967
O9    O     O_2   0.080545 0.534635 0.294408 -0.400009
O10   O     O_3   0.370562 0.345746 0.346061 -0.486658
O11   O     O_3   0.960811 0.659244 0.296579 -0.474666
C2    C     C_3   0.007846 0.717947 0.340512 0.200921
H2    H     H_    0.126000 0.708092 0.355603 0.084603
H3    H     H_    0.936733 0.722707 0.381478 0.138793
C3    C     C_3   0.006470 0.790113 0.316884 0.333944
H4    H     H_    0.109915 0.823187 0.338759 0.058539
C4    C     C_3   0.921945 0.337547 0.330998 0.624707
H5    H     H_    0.023410 0.371298 0.351151 0.038135
C5    C     C_3   0.978442 0.290956 0.273034 -0.184129
H6    H     H_    0.876634 0.259871 0.248100 0.179311
H7    H     H_    0.061755 0.251200 0.284505 0.117473
Ba1   Ba    Ba6+2 0.157800 0.534120 0.474430 1.660214
C6    C     C_3   0.890801 0.651195 0.665931 0.800804
H8    H     H_    0.786843 0.622577 0.643776 0.036469
C7    C     C_3   0.837977 0.690866 0.726913 -0.884933
H9    H     H_    0.933895 0.729038 0.748281 0.294196
H10   H     H_    0.808720 0.651590 0.756003 0.231754
H11   H     H_    0.729609 0.721101 0.722928 0.237778
C8    C     C_3   0.330492 0.316296 0.396112 0.477714
C9    C     C_3   0.339205 0.235082 0.380417 -0.965016
H12   H     H_    0.255157 0.212854 0.343623 0.259580
H13   H     H_    0.307532 0.210956 0.419494 0.214947
H14   H     H_    0.462273 0.220335 0.366578 0.270861
P4    P     P_3+3 0.874370 0.334570 0.444280 0.527770
O12   O     O_2   0.699610 0.323860 0.460780 -0.340280
O13   O     O_3   0.947090 0.413280 0.465240 -0.360863
O14   O     O_3   0.442000 0.370930 0.567190 -0.410645
O15   O     O_3   0.867162 0.292939 0.368741 -0.630200
P5    P     P_3+3 0.866492 0.415122 0.675432 0.472395
O16   O     O_3   0.359410 0.538600 0.570730 -0.362846
O17   O     O_3   0.850780 0.407910 0.598320 -0.358719
O18   O     O_2   0.717231 0.454075 0.701805 -0.413550
O19   O     O_3   0.839180 0.330388 0.694068 -0.525340
Ba2   Ba    Ba6+2 0.652390 0.465870 0.525520 1.646049
P6    P     P_3+3 0.389618 0.722726 0.438448 0.450008
C10   C     C_3   0.428759 0.689753 0.322119 0.627384
O20   O     O_3   0.450900 0.461390 0.429220 -0.385487
C11   C     C_3   0.462284 0.681852 0.621212 0.386851
H15   H     H_    0.566399 0.657574 0.596017 0.025569
C12   C     C_3   0.499540 0.761760 0.640481 -0.851629
H16   H     H_    0.628949 0.772541 0.651795 0.227960
H17   H     H_    0.425835 0.784030 0.679743 0.331615
P7    P     P_3+3 0.418744 0.557231 0.646059 0.563694
O21   O     O_2   0.599830 0.538970 0.641850 -0.405069
O22   O     O_3   0.427469 0.650228 0.670817 -0.493436
C13   C     C_3   0.899896 0.278530 0.648756 0.446020
H18   H     H_    0.828451 0.274438 0.607274 0.144166
C14   C     C_3   0.889124 0.206194 0.668232 -0.807464
H19   H     H_    0.761955 0.188662 0.671269 0.298740
H20   H     H_    0.950156 0.165324 0.635939 0.208435
H21   H     H_    0.947309 0.210415 0.712380 0.262015
P8    P     P_3+3 0.421043 0.280432 0.567480 0.477008
C15   C     C_3   0.413092 0.317101 0.681145 0.477474
H22   H     H_    0.282120 0.306265 0.676175 0.017181
O23   O     O_2   0.547243 0.246222 0.523316 -0.366454
O24   O     O_3   0.496141 0.271637 0.637149 -0.446801
H23   H     H_    0.387631 0.338474 0.776526 0.217037
C16   C     C_3   0.462565 0.305862 0.742630 -0.816626
H24   H     H_    0.446620 0.248613 0.746485 0.292424
C17   C     C_R   0.975743 0.956133 0.541043 0.023467
C18   C     C_R   0.061159 0.909748 0.570325 -0.054562
C19   C     C_R   0.199738 0.936647 0.603068 0.290772
C20   C     C_R   0.264407 0.003655 0.597437 -0.192171
C21   C     C_R   0.183627 0.050140 0.567216 -0.071891
C22   C     C_R   0.036549 0.027138 0.540030 -0.013805
C23   C     C_R   0.246048 0.120252 0.567435 0.318684
C24   C     C_R   0.161301 0.170159 0.540189 -0.199587
C25   C     C_R   0.011755 0.146369 0.511648 -0.013531
C26   C     C_R   0.951101 0.074551 0.511925 -0.000879
C27   C     C_R   0.216362 0.242911 0.541321 0.165528
C28   C     C_R   0.119629 0.289734 0.516460 -0.518988
C29   C     C_R   0.975461 0.267419 0.485674 0.228468
C30   C     C_R   0.922137 0.193490 0.482661 -0.012195
C31   C     C_R   0.828708 0.931829 0.513767 0.064601
C32   C     C_R   0.773339 0.859071 0.510971 0.056509
C33   C     C_R   0.870718 0.809709 0.533253 -0.059419
C34   C     C_R   0.010543 0.837131 0.564571 -0.063912
H25   H     H_    0.376444 0.020258 0.619929 0.234487
H26   H     H_    0.162693 0.344463 0.518062 0.165804
H27   H     H_    0.084653 0.801617 0.582987 0.202719
C35   C     C_R   0.780740 0.164715 0.452055 -0.127695
C36   C     C_R   0.718104 0.095414 0.455102 0.142497
C37   C     C_R   0.803052 0.050039 0.485006 0.058298
C38   C     C_R   0.740531 0.979448 0.486959 0.066843
C39   C     C_R   0.569306 0.070995 0.429173 -0.125757
C40   C     C_R   0.505856 0.002526 0.432521 -0.128822
C41   C     C_R   0.591483 0.955794 0.460483 0.136513
C42   C     C_R   0.624109 0.835360 0.483609 -0.010974
C43   C     C_R   0.532516 0.885201 0.460460 -0.139949
C44   C     C_R   0.574799 0.761900 0.478146 0.273784
C45   C     C_R   0.676727 0.713332 0.496967 -0.432218
C46   C     C_R   0.824800 0.734878 0.523766 0.195829
H28   H     H_    0.714708 0.196361 0.426620 0.172798
H29   H     H_    0.501022 0.105132 0.406512 0.133643
H30   H     H_    0.228676 0.336083 0.053280 0.191024
H31   H     H_    0.143556 0.334712 0.951965 0.181332
C47   C     C_R   0.627899 0.529530 0.334812 -0.344607
C48   C     C_R   0.431692 0.544007 0.943325 -0.071695
C49   C     C_R   0.380315 0.542762 0.884641 0.550439
O25   O     O_2   0.419041 0.592882 0.860425 -0.555816
N1    N     N_R   0.284764 0.486058 0.854707 -0.168637
C50   C     C_R   0.235043 0.430766 0.883308 0.504616
O26   O     O_2   0.155276 0.379581 0.856570 -0.587974
C51   C     C_R   0.278287 0.432166 0.942917 -0.042859
C52   C     C_R   0.379129 0.488627 0.972718 -0.011873
C53   C     C_R   0.533734 0.599695 0.973452 -0.100489
C54   C     C_R   0.580018 0.601205 0.032094 -0.060701
C55   C     C_R   0.526499 0.546780 0.062229 -0.062342
C56   C     C_R   0.427574 0.489814 0.032187 -0.012141
C57   C     C_R   0.224103 0.377995 0.973251 -0.104597
C58   C     C_R   0.273275 0.378756 0.031546 -0.073179
C59   C     C_R   0.377040 0.434004 0.061375 -0.086279
C60   C     C_R   0.432014 0.434557 0.119585 0.582617
N2    N     N_R   0.521929 0.492720 0.150417 -0.173688
C61   C     C_R   0.567639 0.548855 0.122041 0.517186
C62   C     C_2   0.088241 0.465872 0.772940 -0.217438
C63   C     C_3   0.048998 0.466512 0.708821 0.313848
C64   C     C_1   0.320741 0.500213 0.692977 0.373480
C65   C     C_2   0.362796 0.501822 0.749044 -0.240259
C66   C     C_2   0.240094 0.484208 0.792949 0.143522
C67   C     C_R   0.718112 0.521432 0.234048 -0.063004
C68   C     C_R   0.749021 0.538264 0.295080 0.319215
C69   C     C_R   0.491008 0.488654 0.314432 0.320179
C70   C     C_R   0.452366 0.477430 0.253758 -0.189393
C71   C     C_R   0.564262 0.496608 0.212691 0.062334
O27   O     O_2   0.402027 0.382495 0.142408 -0.498587
O28   O     O_2   0.642025 0.601484 0.149171 -0.516200
C72   C     C_2   0.196800 0.458583 0.671291 -0.432502
H32   H     H_    0.811523 0.530680 0.203553 0.182388
H33   H     H_    0.486606 0.512460 0.762604 0.181830
H34   H     H_    0.993320 0.456543 0.802997 0.175816
H35   H     H_    0.336593 0.453852 0.239124 0.222792
H36   H     H_    0.651066 0.544743 0.382083 0.188969
H37   H     H_    0.195576 0.427341 0.626534 0.140094
H38   H     H_    0.380966 0.636877 0.329572 -0.023677
N3    N     N_R   0.061131 0.334439 0.235455 0.256667
O29   O     O_R   0.984325 0.380773 0.211704 -0.361798
O30   O     O_R   0.208998 0.322242 0.220933 -0.302992
N4    N     N_R   0.013817 0.602179 0.672087 0.190611
O31   O     O_R   0.116686 0.619428 0.715488 -0.420016
O32   O     O_R   0.053120 0.558077 0.624326 -0.412137
H39   H     H_    0.208052 0.330349 0.410191 -0.002642
H40   H     H_    0.414090 0.335467 0.433712 0.143989
N5    N     N_R   0.601358 0.689292 0.320273 0.213948
O33   O     O_R   0.678304 0.691345 0.271389 -0.305258
O34   O     O_R   0.678544 0.681734 0.367428 -0.499343
H41   H     H_    0.401711 0.653102 0.226729 0.128976
H42   H     H_    0.357264 0.674911 0.591154 0.151431
H43   H     H_    0.472653 0.788968 0.602822 0.215360
N6    N     N_R   0.413879 0.766699 0.245409 0.323869
O35   O     O_R   0.380227 0.827209 0.279242 -0.304646
O36   O     O_R   0.488343 0.767444 0.195827 -0.235000
N7    N     N_R   0.862723 0.828869 0.336004 0.250247
O37   O     O_R   0.860496 0.867292 0.389390 -0.456806
O38   O     O_R   0.754972 0.838674 0.297562 -0.226348
H44   H     H_    0.026646 0.291638 0.640314 -0.000754
H45   H     H_    0.444425 0.373401 0.678555 0.090336
H46   H     H_    0.589260 0.323414 0.752048 0.277022
N8    N     N_R   0.268884 0.900270 0.646222 0.223387
O39   O     O_R   0.176391 0.866687 0.678438 -0.372423
O40   O     O_R   0.415482 0.916236 0.664150 -0.396333
N9    N     N_R   0.389069 0.140583 0.600971 0.247580
O41   O     O_R   0.524914 0.123256 0.576045 -0.402510
O42   O     O_R   0.380202 0.149702 0.658553 -0.407036
H47   H     H_    0.390779 0.985551 0.412042 0.150161
H48   H     H_    0.417196 0.869046 0.440176 0.175991
H49   H     H_    0.639224 0.657262 0.490865 0.165170
H50   H     H_    0.658356 0.645124 0.053742 0.198081
H51   H     H_    0.578188 0.642498 0.951839 0.184308
N10   N     N_R   0.026230 0.785192 0.252246 0.269836
O43   O     O_R   0.055514 0.844191 0.232393 -0.278368
O44   O     O_R   0.992669 0.726739 0.213851 -0.275145
N11   N     N_R   0.791491 0.381708 0.321513 0.206085
O45   O     O_R   0.696478 0.362954 0.275469 -0.386327
O46   O     O_R   0.736930 0.420343 0.369409 -0.425247

loop_
_geom_bond_atom_site_label_1
_geom_bond_atom_site_label_2
_geom_bond_distance
_ccdc_geom_bond_type
P2    Ba1   3.404780 S    
C1    H1    1.090934 S    
C12   H16   1.117755 S    
C14   H20   1.108183 S    
N6    O35   1.300898 A    
C64   C65   1.327018 D    
C15   H45   1.104004 S    
C16   H24   1.110447 S    
C9    H12   1.108448 S    
P4    C29   1.943455 S    
C67   C71   1.411500 A    
P2    O20   1.541975 S    
C60   N2    1.389766 Am   
O3    Ba1   2.774877 S    
C30   C35   1.414837 A    
C36   C37   1.409051 A    
O2    Ba2   2.820302 S    
C55   C56   1.408734 A    
P4    O13   1.580759 S    
N1    C66   1.457895 S    
C19   C20   1.393221 A    
O17   Ba2   2.753173 S    
C70   H35   1.079704 S    
C58   C59   1.409399 A    
C31   C38   1.413774 A    
C6    H8    1.083007 S    
C9    H13   1.108935 S    
C5    H7    1.113624 S    
C12   H43   1.113102 S    
C8    C9    1.521053 S    
C62   C66   1.363152 D    
P2    O10   1.754358 S    
C50   C51   1.408687 A    
N5    O33   1.300887 A    
C7    H9    1.111058 S    
P3    O9    1.545654 D    
N10   O44   1.302171 A    
C45   C46   1.397067 A    
C20   H25   1.078496 S    
P7    O22   1.749442 S    
O12   Ba2   2.865741 S    
C2    C3    1.565837 S    
N1    C50   1.390687 Am   
C62   H34   1.085360 S    
N11   O46   1.295622 A    
P1    O1    1.529961 D    
C21   C22   1.398349 A    
C13   C14   1.521871 S    
N8    O39   1.302688 A    
C45   H49   1.082301 S    
O8    Ba1   2.752707 S    
C28   H26   1.081591 S    
C3    N10   1.477723 S    
C48   C49   1.407871 A    
C52   C56   1.418036 A    
O5    C6    1.383718 S    
C25   C26   1.439058 A    
C10   H38   1.110462 S    
C15   H22   1.111597 S    
N9    O42   1.301834 A    
H31   C57   1.084922 S    
P6    C44   1.856887 S    
N3    O29   1.306183 A    
N5    O34   1.292720 A    
N9    O41   1.301081 A    
O1    Ba1   2.865335 S    
C13   H44   1.108470 S    
C17   C22   1.428214 A    
O10   C8    1.404283 S    
N4    O32   1.298978 A    
P5    O18   1.543907 D    
C22   C26   1.415339 A    
Ba1   O16   2.765045 S    
C63   C72   1.506507 S    
N7    O38   1.303457 A    
C43   H48   1.080878 S    
C35   H28   1.078354 S    
C14   H21   1.110870 S    
C39   H29   1.082087 S    
N6    O36   1.300585 A    
C6    N4    1.438883 S    
C13   H18   1.111885 S    
O13   Ba2   2.948795 S    
C11   O22   1.408887 S    
P5    O17   1.752165 S    
C23   C24   1.436637 A    
O2    Ba1   2.948087 S    
C11   C12   1.519306 S    
P7    C64   1.838772 S    
C3    N7    1.460800 S    
O16   P7    1.763746 S    
C64   C72   1.319861 D    
C54   C55   1.408011 A    
P8    C27   1.886398 S    
O7    Ba1   2.810194 S    
P1    O5    1.764267 S    
C40   C41   1.404720 A    
C33   C46   1.434635 A    
C9    H14   1.110749 S    
C5    H6    1.112762 S    
C1    N6    1.463938 S    
C49   O25   1.223194 D    
P4    O12   1.530260 D    
C21   C23   1.411675 A    
C20   C21   1.410811 A    
O11   C2    1.399121 S    
P4    O15   1.763940 S    
C15   C16   1.524059 S    
C27   C28   1.419658 A    
C34   H27   1.075298 S    
C47   H36   1.083401 S    
O3    P6    1.761142 S    
N11   O45   1.307993 A    
P1    O2    1.580703 S    
C17   C18   1.416542 A    
C5    N3    1.460428 S    
C47   C69   1.390832 A    
C48   C52   1.409931 A    
P3    O11   1.751483 S    
Ba1   O13   2.819572 S    
C4    O15   1.387846 S    
O16   Ba2   2.956999 S    
C70   C71   1.416861 A    
Ba2   O20   2.764433 S    
C35   C36   1.412931 A    
C2    H2    1.083118 S    
N4    O31   1.301954 A    
C42   C44   1.422807 A    
C18   C19   1.408415 A    
C41   C43   1.411537 A    
C1    C10   1.540322 S    
C53   C54   1.393705 A    
P2    O7    1.532310 D    
C18   C34   1.409791 A    
C53   H51   1.083983 S    
C8    H40   1.108225 S    
C54   H50   1.084573 S    
P4    Ba2   3.430481 S    
H30   C58   1.084016 S    
C24   C25   1.431368 A    
C12   H17   1.118223 S    
C55   C61   1.406651 A    
C57   C58   1.395495 A    
C4    C5    1.538356 S    
O4    P6    1.547828 D    
P7    O21   1.569333 D    
C32   C33   1.428767 A    
C59   C60   1.409359 A    
C51   C57   1.408602 A    
C33   C34   1.404536 A    
C36   C39   1.405777 A    
Ba1   O20   2.957852 S    
N2    C61   1.392181 Am   
C60   O27   1.221134 D    
C65   H33   1.083998 S    
N7    O37   1.302848 A    
C7    H11   1.105372 S    
C28   C29   1.409194 A    
C47   C68   1.392041 A    
C11   H42   1.105825 S    
O6    P6    1.771430 S    
H23   C16   1.110363 S    
C49   N1    1.388952 Am   
C51   C52   1.409680 A    
C11   H15   1.113869 S    
C65   C66   1.513284 S    
P5    C63   1.866842 S    
C24   C27   1.435976 A    
C44   C45   1.404924 A    
Ba2   O21   2.810418 S    
C16   H46   1.110133 S    
P8    O23   1.541567 D    
C26   C37   1.409008 A    
C6    C7    1.533423 S    
P3    C68   1.830697 S    
C23   N9    1.424554 S    
C67   H32   1.082539 S    
C40   H47   1.083520 S    
C1    H41   1.112441 S    
C50   O26   1.222563 D    
C7    H10   1.111556 S    
P3    O8    1.761813 S    
N10   O43   1.301759 A    
O14   P8    1.722366 S    
N2    C71   1.458513 S    
C15   O24   1.403206 S    
C10   N5    1.448457 S    
C39   C40   1.402206 A    
C2    H3    1.104984 S    
C25   C30   1.441661 A    
P8    O24   1.755191 S    
N3    O30   1.302435 A    
C19   N8    1.441069 S    
C4    N11   1.443180 S    
C62   C63   1.508456 S    
C61   O28   1.222255 D    
N8    O40   1.302229 A    
C32   C42   1.418267 A    
C69   C70   1.402878 A    
C17   C31   1.403885 A    
O14   Ba2   2.774126 S    
O6    C10   1.415571 S    
C14   H19   1.111668 S    
P1    C46   1.895631 S    
C8    H39   1.104147 S    
P5    O19   1.748088 S    
C72   H37   1.084668 S    
C38   C41   1.409092 A    
C48   C53   1.408626 A    
C3    H4    1.112763 S    
C29   C30   1.446654 A    
C37   C38   1.429924 A    
C56   C59   1.409021 A    
C42   C43   1.417154 A    
P1    Ba1   3.430078 S    
O19   C13   1.401470 S    
C4    H5    1.093248 S    
C67   C68   1.397378 A    
P2    C69   1.849683 S    
C31   C32   1.431086 A    
Ba1   Ba2   4.604624 S    
