data_mof_unit_16241.cif
_audit_creation_date              2012-10-26T18:53:17-0400
_audit_creation_method            fapswitch 2.2
_symmetry_space_group_name_H-M    P1
_symmetry_Int_Tables_number       1
_space_group_crystal_system       triclinic
_cell_length_a                    14.688377
_cell_length_b                    14.925897
_cell_length_c                    15.859833
_cell_angle_alpha                 76.094418
_cell_angle_beta                  102.533714
_cell_angle_gamma                 115.43883
_cell_volume                      3022.13556564

loop_
_atom_site_label
_atom_site_type_symbol
_atom_type_description
_atom_site_fract_x
_atom_site_fract_y
_atom_site_fract_z
_atom_type_partial_charge
C1    C     C_R   0.880400 0.312598 0.512964 0.543518
C2    C     C_R   0.187937 0.793759 0.481920 -0.006562
C3    C     C_R   0.790323 0.028375 0.566078 -0.002804
C4    C     C_R   0.999866 0.500084 0.659570 0.550328
C5    C     C_R   0.854364 0.131449 0.555375 -0.120356
C6    C     C_R   0.710829 0.175356 0.495934 -0.147747
C7    C     C_R   0.642870 0.075579 0.516740 0.021162
C8    C     C_R   0.683134 0.000722 0.550158 0.048022
C9    C     C_R   0.535949 0.048990 0.504054 0.033821
C10   C     C_R   0.469030 0.945934 0.517549 0.028475
C11   C     C_R   0.511204 0.873214 0.550802 -0.151175
C12   C     C_3   0.120416 0.510380 0.071214 -0.045558
C13   C     C_R   0.615279 0.900058 0.566967 -0.142940
C14   C     C_R   0.493994 0.122571 0.481517 -0.139907
C15   C     C_R   0.389862 0.096034 0.466314 -0.137723
C16   C     C_R   0.119838 0.687146 0.486686 0.537435
C17   C     C_R   0.323415 0.995436 0.472769 0.050597
C18   C     C_R   0.362147 0.919357 0.498514 0.029199
C19   C     C_R   0.218245 0.970034 0.453858 -0.140392
C20   C     C_R   0.150740 0.869608 0.458242 -0.143922
C21   C     C_R   0.292340 0.819073 0.502483 -0.141921
C22   C     C_R   0.726780 0.677032 0.353722 -0.173142
C23   C     C_3   0.013119 0.500468 0.085702 0.055095
C24   C     C_R   0.804108 0.641519 0.378920 0.033313
C25   C     C_R   0.710205 0.514269 0.486788 0.132145
C26   C     C_R   0.637539 0.558480 0.472681 0.016043
C27   C     C_R   0.642624 0.634916 0.399959 0.010395
C28   C     C_R   0.000825 0.500701 0.340434 0.548361
C29   C     C_R   0.558323 0.527044 0.525807 0.010965
C30   C     C_R   0.470232 0.549526 0.493270 0.015461
C31   C     C_R   0.478941 0.629411 0.419750 -0.015011
C32   C     C_R   0.565080 0.670295 0.375263 -0.122169
C33   C     C_R   0.569872 0.482228 0.614093 -0.148695
C34   C     C_3   0.993116 0.591425 0.027694 -0.237417
C35   C     C_R   0.489086 0.438101 0.662643 -0.138209
C36   C     C_R   0.394311 0.438499 0.625061 0.041282
C37   C     C_R   0.382464 0.494169 0.540111 -0.004574
C38   C     C_R   0.311546 0.384518 0.672776 -0.159716
C39   C     C_R   0.217248 0.386889 0.637612 0.039614
C40   C     C_3   0.114829 0.496701 0.972716 0.081645
C41   C     C_R   0.282315 0.487435 0.506212 0.024692
C42   C     C_3   0.919350 0.406902 0.956872 -0.227339
C43   C     C_3   0.928246 0.402296 0.056796 -0.218445
C44   C     C_1   0.003333 0.501777 0.251143 -0.048734
C45   C     C_3   0.991898 0.591901 0.930254 -0.228555
C46   C     C_3   0.010081 0.500265 0.918969 0.096879
C47   C     C_3   0.165906 0.444840 0.146240 -0.265944
C48   C     C_3   0.282171 0.480787 0.153514 -0.315587
C49   C     C_3   0.323305 0.424080 0.235368 -0.451423
C50   C     C_3   0.212523 0.576255 0.930251 -0.243110
C51   C     C_3   0.230118 0.688155 0.910419 -0.307094
C52   C     C_3   0.340682 0.755506 0.897409 -0.459212
C53   C     C_3   0.833999 0.947742 0.594415 -0.259749
C54   C     C_3   0.949877 0.985183 0.597993 -0.308954
C55   C     C_3   0.982647 0.897241 0.617339 -0.448714
C56   C     C_1   0.007528 0.501776 0.176520 -0.090967
C57   C     C_3   0.115417 0.392594 0.969845 -0.393243
C58   C     C_3   0.682505 0.406727 0.531251 -0.344721
C59   C     C_3   0.413139 0.689447 0.396537 -0.263939
C60   C     C_3   0.347103 0.673945 0.307375 -0.304329
C61   C     C_3   0.272091 0.724069 0.289886 -0.445392
C62   C     C_1   0.003932 0.500955 0.825354 -0.081982
C63   C     C_1   0.000675 0.500887 0.749197 -0.052976
C64   C     C_R   0.814463 0.204727 0.521459 -0.022994
Cu1   Cu    Cu3+1 0.081750 0.475690 0.522550 0.914294
Cu2   Cu    Cu3+1 0.918250 0.524310 0.477450 0.917360
H1    H     H_    0.172826 0.588942 0.078591 0.120389
H2    H     H_    0.539529 0.201924 0.477426 0.095763
H3    H     H_    0.188314 0.027943 0.434949 0.101572
H4    H     H_    0.572710 0.732465 0.321275 0.104421
H5    H     H_    0.264504 0.520571 0.440416 0.129894
H6    H     H_    0.155027 0.350420 0.676588 0.120202
H7    H     H_    0.500107 0.400484 0.729217 0.102299
H8    H     H_    0.733905 0.738685 0.299457 0.087754
H9    H     H_    0.870773 0.677517 0.345259 0.126974
H10   H     H_    0.845976 0.412141 0.924912 0.109767
H11   H     H_    0.642082 0.480036 0.646105 0.112524
H12   H     H_    0.918751 0.587942 0.037503 0.121876
H13   H     H_    0.320439 0.342915 0.737993 0.083424
H14   H     H_    0.914132 0.335480 0.942528 0.108410
H15   H     H_    0.944818 0.336203 0.092987 0.111250
H16   H     H_    0.853737 0.391193 0.073182 0.116010
H17   H     H_    0.045120 0.665152 0.900296 0.104528
H18   H     H_    0.916257 0.587684 0.894699 0.110484
H19   H     H_    0.052616 0.663201 0.046754 0.100757
H20   H     H_    0.304790 0.434815 0.295521 0.149099
H21   H     H_    0.290127 0.342404 0.232233 0.149112
H22   H     H_    0.407275 0.452808 0.239515 0.149159
H23   H     H_    0.641358 0.840075 0.593626 0.106461
H24   H     H_    0.304326 0.468425 0.096406 0.154212
H25   H     H_    0.319457 0.562547 0.156649 0.149618
H26   H     H_    0.151730 0.449615 0.210499 0.156567
H27   H     H_    0.127967 0.363822 0.141409 0.142952
H28   H     H_    0.391931 0.747217 0.958821 0.143496
H29   H     H_    0.362579 0.735638 0.843850 0.156999
H30   H     H_    0.350130 0.835376 0.879618 0.143451
H31   H     H_    0.182885 0.702515 0.848096 0.162169
H32   H     H_    0.211554 0.710653 0.964060 0.149358
H33   H     H_    0.280254 0.569669 0.973654 0.133930
H34   H     H_    0.317244 0.758591 0.520152 0.119310
H35   H     H_    0.213290 0.555645 0.867510 0.147087
H36   H     H_    0.960782 0.849993 0.681354 0.149954
H37   H     H_    0.946654 0.850161 0.564942 0.158266
H38   H     H_    0.066505 0.926512 0.620079 0.147907
H39   H     H_    0.973774 0.031140 0.534015 0.161815
H40   H     H_    0.989249 0.031786 0.650501 0.154007
H41   H     H_    0.812590 0.905962 0.660153 0.137618
H42   H     H_    0.798093 0.894306 0.546885 0.147998
H43   H     H_    0.097479 0.377715 0.901548 0.122348
H44   H     H_    0.190729 0.389693 0.994676 0.111654
H45   H     H_    0.069892 0.851489 0.442829 0.123805
H46   H     H_    0.059944 0.328404 0.008623 0.116612
H47   H     H_    0.739035 0.399835 0.588618 0.161410
H48   H     H_    0.605558 0.368198 0.551246 0.088659
H49   H     H_    0.675707 0.364052 0.481058 0.141304
H50   H     H_    0.218488 0.689255 0.339524 0.173868
H51   H     H_    0.313229 0.805859 0.291977 0.155116
H52   H     H_    0.227613 0.713842 0.224115 0.132439
H53   H     H_    0.396509 0.706689 0.254365 0.151321
H54   H     H_    0.303818 0.592703 0.304563 0.160761
H55   H     H_    0.367439 0.674478 0.448958 0.139361
H56   H     H_    0.361229 0.154922 0.448733 0.105102
H57   H     H_    0.463515 0.770800 0.393048 0.147576
H58   H     H_    0.935665 0.155742 0.572520 0.128101
H59   H     H_    0.684806 0.231590 0.458012 0.112330
H60   H     H_    0.466324 0.794142 0.567990 0.103579
N1    N     N_R   0.795410 0.560790 0.443550 -0.219339
N2    N     N_R   0.204590 0.439170 0.556520 -0.234603
O1    O     O_R   0.977910 0.338120 0.529720 -0.502729
O2    O     O_R   0.839850 0.379180 0.491640 -0.515028
O3    O     O_R   0.069060 0.479460 0.639610 -0.500744
O4    O     O_R   0.931000 0.520530 0.601530 -0.495920
O5    O     O_R   0.160150 0.620820 0.508360 -0.511282
O6    O     O_R   0.022090 0.661880 0.470280 -0.508991
O7    O     O_R   0.069000 0.479470 0.398470 -0.506290
O8    O     O_R   0.930940 0.520540 0.360390 -0.496020

loop_
_geom_bond_atom_site_label_1
_geom_bond_atom_site_label_2
_ccdc_geom_bond_type
C51   H31   S    
C42   H14   S    
C8    C13   A    
C15   H56   S    
C29   C33   A    
C18   C21   A    
C11   C13   A    
C47   H26   S    
C49   H21   S    
C19   C20   A    
C49   H22   S    
C16   O6    A    
C52   H30   S    
C23   C56   S    
C4    O4    A    
C53   C54   S    
C40   C46   S    
C5    H58   S    
C50   H33   S    
C62   C63   T    
C46   C62   S    
C36   C37   A    
C1    O1    A    
C30   C31   A    
C57   H46   S    
C38   H13   S    
C31   C59   S    
C28   O7    A    
C55   H37   S    
C23   C43   S    
Cu2   N1    S    
C52   H29   S    
C15   C17   A    
C42   C46   S    
C6    C64   A    
C44   C56   T    
C17   C19   A    
Cu2   O6    S    
C57   H43   S    
C35   C36   A    
C48   H25   S    
C58   H47   S    
C39   H6    S    
C52   H28   S    
C39   N2    A    
C2    C16   S    
C9    C10   A    
C41   H5    S    
C51   H32   S    
C61   H52   S    
C59   C60   S    
C48   H24   S    
C41   N2    A    
C45   H17   S    
C61   H50   S    
C12   C47   S    
C16   O5    A    
Cu1   O3    S    
C50   C51   S    
C4    O3    A    
Cu2   O4    S    
C59   H57   S    
C12   H1    S    
C55   H36   S    
C54   H40   S    
C2    C20   A    
C51   C52   S    
Cu1   N2    S    
C7    C8    A    
C11   H60   S    
C1    O2    A    
C21   H34   S    
C12   C23   S    
C3    C5    A    
C25   C26   A    
C45   C46   S    
C61   H51   S    
C55   H38   S    
C28   C44   S    
C30   C37   A    
C60   C61   S    
C34   H19   S    
C12   C40   S    
C9    C14   A    
C29   C30   A    
C24   N1    A    
C20   H45   S    
C53   H41   S    
Cu1   O1    S    
C57   H44   S    
C4    C63   S    
C23   C34   S    
C2    C21   A    
C17   C18   A    
C26   C27   A    
C34   C45   S    
Cu1   O7    S    
C26   C29   A    
Cu2   O8    S    
C48   C49   S    
C3    C8    A    
C22   C27   A    
C58   H49   S    
C43   H15   S    
C22   C24   A    
C19   H3    S    
C45   H18   S    
C42   C43   S    
C22   H8    S    
C1    C64   S    
C7    C9    A    
C54   C55   S    
C35   H7    S    
C40   C57   S    
C47   H27   S    
C54   H39   S    
C13   H23   S    
C27   C32   A    
C28   O8    A    
C49   H20   S    
C31   C32   A    
C6    H59   S    
C47   C48   S    
C32   H4    S    
C24   H9    S    
C6    C7    A    
C42   H10   S    
C36   C38   A    
C25   N1    A    
C34   H12   S    
C3    C53   S    
C53   H42   S    
C33   H11   S    
C38   C39   A    
C10   C18   A    
C40   C50   S    
C33   C35   A    
C60   H54   S    
C37   C41   A    
C10   C11   A    
C59   H55   S    
C5    C64   A    
C50   H35   S    
Cu1   Cu2   S    
C25   C58   S    
C58   H48   S    
C43   H16   S    
C14   H2    S    
C14   C15   A    
C60   H53   S    
Cu1   O5    S    
Cu2   O2    S    
