data_mof_unit_30902.cif
_audit_creation_date              2012-12-10T17:35:37-0500
_audit_creation_method            fapswitch 2.2
_symmetry_space_group_name_H-M    P1
_symmetry_Int_Tables_number       1
_space_group_crystal_system       triclinic
_cell_length_a                    10.916412
_cell_length_b                    12.352867
_cell_length_c                    13.313704
_cell_angle_alpha                 117.055261
_cell_angle_beta                  77.882758
_cell_angle_gamma                 100.281388
_cell_volume                      1556.13059118

loop_
_atom_site_label
_atom_site_type_symbol
_atom_type_description
_atom_site_fract_x
_atom_site_fract_y
_atom_site_fract_z
_atom_type_partial_charge
C1    C     C_R   0.514229 0.853935 0.285909 0.832311
C2    C     C_3   0.125451 0.004385 0.495389 -0.122593
C3    C     C_3   0.054712 0.040637 0.619902 -0.466124
C4    C     C_3   0.069171 0.874102 0.418119 -0.103477
C5    C     C_R   0.411331 0.262887 0.028858 -0.029168
C6    C     C_R   0.491870 0.226578 0.833595 -0.164907
C7    C     C_R   0.571573 0.811564 0.076246 -0.074417
C8    C     C_R   0.567528 0.731623 0.959912 -0.055782
C9    C     C_R   0.534028 0.607618 0.928611 -0.218936
C10   C     C_R   0.499885 0.561314 0.010369 0.065335
C11   C     C_R   0.471563 0.643887 0.125318 0.058387
C12   C     C_R   0.738950 0.003230 0.506539 0.719342
C13   C     C_R   0.485859 0.434223 0.979520 0.018984
C14   C     C_R   0.417722 0.389831 0.059350 -0.030514
C15   C     C_R   0.357596 0.473425 0.164676 0.251385
C16   C     C_R   0.391300 0.598341 0.198036 -0.187110
C17   C     C_R   0.540248 0.349717 0.871561 0.190712
C18   C     C_R   0.438387 0.182739 0.914227 -0.212427
C19   C     C_R   0.517769 0.769679 0.161487 -0.124131
C20   C     C_R   0.704713 0.339458 0.325926 -0.086473
C21   C     C_R   0.331358 0.759003 0.649441 0.148802
C22   C     C_R   0.311877 0.669907 0.690744 0.158478
C23   C     C_R   0.492926 0.144648 0.712152 0.808241
C24   C     C_R   0.381940 0.570141 0.636320 -0.246764
C25   C     C_R   0.468782 0.554512 0.538046 -0.028861
C26   C     C_R   0.492478 0.651099 0.503766 0.207709
C27   C     C_R   0.534141 0.446662 0.473848 -0.015251
C28   C     C_R   0.625119 0.436754 0.376968 0.051625
C29   C     C_R   0.630776 0.523161 0.334267 -0.060387
C30   C     C_R   0.578435 0.633548 0.405111 -0.248027
C31   C     C_R   0.508175 0.344696 0.498887 0.055085
C32   C     C_R   0.672956 0.243234 0.356839 0.100093
C33   C     C_R   0.261417 0.001621 0.498988 0.809646
C34   C     C_3   0.956136 0.108318 0.474998 -0.212883
C35   C     C_3   0.100952 0.103277 0.460189 0.054740
C36   C     C_3   0.909387 0.033812 0.627394 0.067983
C37   C     C_3   0.926939 0.874291 0.409391 0.407759
C38   C     C_3   0.878544 0.002294 0.506262 -0.117202
Cu1   Cu    Cu3+1 0.529690 0.098270 0.475420 0.972911
Cu2   Cu    Cu3+1 0.470310 0.901730 0.524580 0.957886
H1    H     H_    0.075488 0.824319 0.467130 0.150886
H2    H     H_    0.076860 0.980930 0.653461 0.239204
H3    H     H_    0.423456 0.085335 0.888259 0.259408
H4    H     H_    0.530878 0.547423 0.839345 0.204540
H5    H     H_    0.931429 0.091754 0.392128 0.202940
H6    H     H_    0.341500 0.659918 0.276032 0.206964
H7    H     H_    0.728475 0.166064 0.318385 0.185484
H8    H     H_    0.433408 0.338874 0.563751 0.118647
H9    H     H_    0.364599 0.505664 0.672541 0.139593
H10   H     H_    0.608447 0.704608 0.380411 0.233561
H11   H     H_    0.145778 0.191983 0.519339 0.168447
H12   H     H_    0.877539 0.124965 0.686935 0.176371
H13   H     H_    0.090250 0.134779 0.677023 0.171079
N1    N     N_R   0.574690 0.246280 0.438200 -0.195669
N2    N     N_R   0.426100 0.754320 0.561190 -0.270701
O1    O     O_R   0.537340 0.972510 0.318130 -0.565169
O2    O     O_R   0.487200 0.806530 0.359650 -0.616824
O3    O     O_R   0.707380 0.082980 0.479220 -0.574835
O4    O     O_R   0.657240 0.917000 0.520740 -0.581577
O5    O     O_R   0.512800 0.193470 0.640350 -0.600549
O6    O     O_R   0.462660 0.027490 0.681870 -0.548328
O7    O     O_R   0.342760 0.083000 0.479260 -0.592537
O8    O     O_R   0.292620 0.917020 0.520780 -0.592893
C39   C     C_2   0.922775 0.238568 0.555307 0.789608
O9    O     O_2   0.958544 0.293425 0.648509 -0.653063
O10   O     O_R   0.858843 0.298954 0.518189 -0.763877
H14   H     H_    0.844513 0.385498 0.577106 0.341101
N3    N     N_2   0.844872 0.952010 0.677490 -0.433178
H15   H     H_    0.757411 0.912458 0.656101 0.299065
C40   C     C_3   0.845076 0.997081 0.798904 -0.584824
H16   H     H_    0.823560 0.919367 0.821967 0.264513
H17   H     H_    0.772740 0.062626 0.847741 0.236528
H18   H     H_    0.938226 0.043223 0.823773 0.223145
N4    N     N_2   0.247937 0.434949 0.225424 -0.419721
H19   H     H_    0.207854 0.346792 0.185520 0.250209
C41   C     C_3   0.235472 0.485397 0.348503 -0.587627
H20   H     H_    0.146106 0.445677 0.381555 0.223990
H21   H     H_    0.230906 0.585512 0.389300 0.236477
H22   H     H_    0.314905 0.463190 0.373287 0.241235
C42   C     C_2   0.394006 0.210847 0.112223 0.882933
O11   O     O_2   0.421949 0.273821 0.207664 -0.598818
O12   O     O_R   0.355460 0.086432 0.078082 -0.745207
H23   H     H_    0.354719 0.059124 0.139356 0.367424
N5    N     N_2   0.650171 0.385800 0.808676 -0.440356
H24   H     H_    0.675360 0.324831 0.725646 0.289859
C43   C     C_3   0.760443 0.434483 0.865861 -0.612171
H25   H     H_    0.832801 0.474868 0.817149 0.260903
H26   H     H_    0.800095 0.360141 0.870159 0.219992
H27   H     H_    0.738776 0.507810 0.952967 0.257211
C44   C     C_2   0.643641 0.932630 0.105195 0.887340
O13   O     O_2   0.750606 0.948229 0.126834 -0.607537
O14   O     O_R   0.590040 0.027866 0.106656 -0.704360
H28   H     H_    0.650902 0.103732 0.120773 0.357561
C45   C     C_2   0.600195 0.772713 0.867615 0.824040
O15   O     O_2   0.576209 0.873260 0.885035 -0.573729
O16   O     O_R   0.652914 0.693334 0.758493 -0.767550
H29   H     H_    0.667102 0.729765 0.701952 0.331072
C46   C     C_2   0.672479 0.493988 0.211280 0.901896
O17   O     O_2   0.701789 0.575700 0.180621 -0.669762
O18   O     O_R   0.670423 0.372362 0.129390 -0.749240
H30   H     H_    0.700213 0.363785 0.049119 0.325913
C47   C     C_2   0.827204 0.339460 0.250626 0.858178
O19   O     O_2   0.871399 0.242970 0.185004 -0.594285
O20   O     O_R   0.894333 0.449078 0.256671 -0.777633
H31   H     H_    0.976006 0.436372 0.201612 0.356277
C48   C     C_2   0.233020 0.842702 0.691399 0.922227
O21   O     O_2   0.132096 0.803681 0.655780 -0.639742
O22   O     O_R   0.247827 0.958729 0.780805 -0.771108
H32   H     H_    0.169532 0.003616 0.807833 0.315045
N6    N     N_2   0.215040 0.676651 0.783302 -0.436227
H33   H     H_    0.172391 0.592812 0.777453 0.264428
C49   C     C_3   0.250136 0.754890 0.894962 -0.567936
H34   H     H_    0.319607 0.712813 0.912803 0.212595
H35   H     H_    0.165435 0.766709 0.960483 0.227043
H36   H     H_    0.290743 0.846382 0.901095 0.287152
N7    N     N_2   0.157544 0.083869 0.344568 -0.384675
H37   H     H_    0.246793 0.056523 0.320778 0.315890
C50   C     C_3   0.155823 0.185038 0.317825 -0.662492
H38   H     H_    0.163215 0.151118 0.224529 0.266308
H39   H     H_    0.234897 0.254631 0.350952 0.241413
H40   H     H_    0.067445 0.229919 0.355114 0.241897
N8    N     N_2   0.848018 0.770675 0.424009 -0.426367
H41   H     H_    0.807955 0.712317 0.353349 0.290407
C51   C     C_3   0.881825 0.700917 0.476199 -0.607709
H42   H     H_    0.798134 0.643124 0.493580 0.229191
H43   H     H_    0.916235 0.758628 0.558226 0.274209
H44   H     H_    0.955470 0.640718 0.418314 0.284791
N9    N     N_2   0.912484 0.868879 0.298281 -0.437664
H45   H     H_    0.832019 0.902920 0.300124 0.256167
C52   C     C_3   0.939694 0.765427 0.188137 -0.549021
H46   H     H_    0.871775 0.753644 0.131420 0.238573
H47   H     H_    0.932379 0.678426 0.194651 0.265980
H48   H     H_    0.034202 0.783368 0.145154 0.239970
C53   C     C_2   0.147500 0.798689 0.306415 0.807871
O23   O     O_2   0.232001 0.845483 0.258642 -0.636690
O24   O     O_R   0.120538 0.671833 0.257292 -0.785021
H49   H     H_    0.164453 0.630940 0.176038 0.329948

loop_
_geom_bond_atom_site_label_1
_geom_bond_atom_site_label_2
_ccdc_geom_bond_type
C2    C35   S    
C24   C25   A    
C3    H2    S    
C52   H47   S    
C41   H22   S    
C26   N2    A    
C49   H35   S    
C7    C8    A    
N7    H37   S    
C11   C19   A    
C29   C30   A    
Cu2   O8    S    
N4    C41   S    
C29   C46   S    
C4    C53   S    
C28   C29   A    
C1    O1    A    
N5    C43   S    
C43   H26   S    
Cu1   N1    S    
C20   C47   S    
C4    H1    S    
C6    C23   S    
C15   C16   A    
C46   O17   D    
O22   H32   S    
C34   C35   S    
C6    C17   A    
C50   H38   S    
O14   H28   S    
N6    H33   S    
C12   O4    A    
C8    C9    A    
C22   N6    S    
C40   H16   S    
C9    C10   A    
C21   C48   S    
C36   H12   S    
C45   O16   S    
C37   N9    S    
C12   O3    A    
O10   H14   S    
C30   H10   S    
Cu2   O4    S    
C21   C22   A    
N9    H45   S    
C47   O19   D    
C32   N1    A    
O20   H31   S    
N6    C49   S    
C23   O5    A    
C6    C18   A    
C1    C19   S    
N4    H19   S    
C27   C31   A    
C8    C45   S    
C41   H20   S    
C42   O12   S    
C16   H6    S    
Cu1   Cu2   S    
C21   N2    A    
C43   H25   S    
C33   O7    A    
C53   O24   S    
C5    C18   A    
C20   C28   A    
C25   C26   A    
C7    C44   S    
C43   H27   S    
Cu2   O6    S    
C50   H40   S    
C39   O10   S    
C2    C4    S    
C37   C38   S    
C1    O2    A    
C11   C16   A    
C44   O14   S    
Cu1   O1    S    
C33   O8    A    
Cu2   N2    S    
O16   H29   S    
C40   H18   S    
C34   C39   S    
C35   N7    S    
C34   H5    S    
N5    H24   S    
C5    C42   S    
C47   O20   S    
C5    C14   A    
C51   H44   S    
C2    C33   S    
C26   C30   A    
C46   O18   S    
C31   H8    S    
C35   H11   S    
C32   H7    S    
C22   C24   A    
C52   H48   S    
N8    C51   S    
C51   H43   S    
C20   C32   A    
C24   H9    S    
Cu1   O7    S    
C9    H4    S    
Cu2   O2    S    
C34   C38   S    
N3    H15   S    
C41   H21   S    
C42   O11   D    
C10   C13   A    
N9    C52   S    
C36   N3    S    
C53   O23   D    
C25   C27   A    
C7    C19   A    
C13   C17   A    
C17   N5    S    
C39   O9    D    
C36   C38   S    
C2    C3    S    
C18   H3    S    
C3    H13   S    
C44   O13   D    
C48   O22   S    
C3    C36   S    
Cu1   O5    S    
Cu1   O3    S    
O18   H30   S    
N7    C50   S    
C52   H46   S    
C49   H34   S    
C31   N1    A    
C12   C38   S    
C45   O15   D    
C50   H39   S    
C10   C11   A    
C37   N8    S    
C23   O6    A    
C15   N4    S    
C4    C37   S    
N3    C40   S    
O12   H23   S    
C48   O21   D    
C27   C28   A    
C14   C15   A    
O24   H49   S    
C40   H17   S    
N8    H41   S    
C13   C14   A    
C49   H36   S    
C51   H42   S    
