data_mof_unit_51167.cif
_audit_creation_date              2013-03-05T16:47:26-0500
_audit_creation_method            fapswitch 2.2
_symmetry_space_group_name_H-M    P1
_symmetry_Int_Tables_number       1
_space_group_crystal_system       triclinic
_cell_length_a                    11.00771
_cell_length_b                    8.992895
_cell_length_c                    8.379764
_cell_angle_alpha                 89.841633
_cell_angle_beta                  87.815524
_cell_angle_gamma                 90.249791
_cell_volume                      828.90845683

loop_
_atom_site_label
_atom_site_type_symbol
_atom_site_description
_atom_site_fract_x
_atom_site_fract_y
_atom_site_fract_z
_atom_type_partial_charge
O1    O     O_R   0.500000 0.285340 0.636850 -0.590301
O2    O     O_R   0.500000 0.285340 0.363150 -0.590624
C1    C     C_R   0.499566 0.218990 0.500191 1.004072
O3    O     O_R   0.314790 0.499970 0.636880 -0.559629
O4    O     O_R   0.314790 0.499970 0.363120 -0.551181
O5    O     O_R   0.685210 0.499970 0.636880 -0.549467
O6    O     O_R   0.685210 0.499970 0.363120 -0.555444
N1    N     N_1   0.500000 0.500030 0.073640 0.070157
N2    N     N_1   0.500000 0.500030 0.926360 0.070938
C2    C     C_R   0.258130 0.502300 0.501665 1.052270
C3    C     C_R   0.741993 0.500612 0.498250 1.064583
Zn1   Zn    Zn3+2 0.500000 0.499990 0.682780 1.221647
Zn2   Zn    Zn3+2 0.500000 0.499990 0.317220 1.220527
O7    O     O_R   0.500000 0.714650 0.636900 -0.586357
O8    O     O_R   0.500000 0.714650 0.363100 -0.586881
C4    C     C_R   0.500228 0.780977 0.499845 0.975390
C5    C     C_1   0.499743 0.065283 0.500257 0.023951
C6    C     C_3   0.068909 0.407083 0.653774 0.210216
C7    C     C_3   0.078652 0.415225 0.338744 0.226394
C8    C     C_3   0.921751 0.418662 0.663259 0.224460
C9    C     C_3   0.930739 0.396780 0.349913 0.218051
C10   C     C_1   0.500013 0.934674 0.499811 0.012381
C11   C     C_3   0.075658 0.679495 0.501927 0.226274
C12   C     C_3   0.925401 0.678185 0.488589 0.224906
C13   C     C_3   0.121615 0.503375 0.500588 -0.524745
C14   C     C_3   0.878675 0.500893 0.498068 -0.525928
N3    N     N_R   0.109479 0.448815 0.812569 0.269980
O9    O     O_R   0.086581 0.352543 0.924956 -0.206191
O10   O     O_R   0.170901 0.566749 0.847121 -0.222767
N4    N     N_R   0.120542 0.502827 0.195435 0.267616
O11   O     O_R   0.221512 0.467547 0.118332 -0.237153
O12   O     O_R   0.059091 0.610206 0.135941 -0.213897
N5    N     N_R   0.876782 0.505992 0.804680 0.269529
O13   O     O_R   0.777846 0.464334 0.882988 -0.235541
O14   O     O_R   0.933432 0.619858 0.860292 -0.209703
N6    N     N_R   0.885644 0.429247 0.190281 0.269003
O15   O     O_R   0.885704 0.320312 0.088781 -0.189036
O16   O     O_R   0.833135 0.551643 0.150807 -0.228671
N7    N     N_R   0.119486 0.253132 0.637625 0.244706
O17   O     O_R   0.058956 0.139063 0.590573 -0.209628
O18   O     O_R   0.227385 0.225622 0.689613 -0.284852
N8    N     N_R   0.137687 0.266878 0.310062 0.272812
O19   O     O_R   0.239598 0.230296 0.372543 -0.346754
O20   O     O_R   0.114831 0.197176 0.178418 -0.147783
N9    N     N_R   0.868192 0.266796 0.694460 0.266674
O21   O     O_R   0.756356 0.236194 0.662440 -0.320063
O22   O     O_R   0.909780 0.188767 0.811421 -0.146563
N10   N     N_R   0.880681 0.242421 0.378321 0.239821
O23   O     O_R   0.942484 0.122832 0.349987 -0.161265
O24   O     O_R   0.764111 0.223772 0.364646 -0.332262
N11   N     N_R   0.123946 0.753889 0.646716 0.264267
O25   O     O_R   0.240179 0.781952 0.646804 -0.333411
O26   O     O_R   0.059469 0.825628 0.753732 -0.138089
N12   N     N_R   0.132269 0.775564 0.373553 0.261927
O27   O     O_R   0.231542 0.740827 0.294337 -0.301135
O28   O     O_R   0.113101 0.917735 0.385274 -0.168628
N13   N     N_R   0.869482 0.777824 0.612932 0.260500
O29   O     O_R   0.890628 0.919654 0.596276 -0.175504
O30   O     O_R   0.769286 0.745397 0.692123 -0.307454
N14   N     N_R   0.876994 0.748264 0.341147 0.267631
O31   O     O_R   0.941208 0.821938 0.234459 -0.135630
O32   O     O_R   0.760724 0.774569 0.340052 -0.328143

loop_
_geom_bond_atom_site_label_1
_geom_bond_atom_site_label_2
_geom_bond_distance
_ccdc_geom_bond_type
N1    N2    1.234171 T    
N6    O15   1.299109 A    
N4    O12   1.291255 A    
C9    C14   1.644165 S    
N1    Zn2   2.041142 S    
O7    C4    1.292590 A    
O3    Zn1   2.089061 S    
O4    Zn2   2.060246 S    
C8    N9    1.503452 S    
C7    N8    1.502402 S    
C12   N14   1.502150 S    
C11   C12   1.661998 S    
C9    N10   1.506220 S    
N6    O16   1.293500 A    
O2    C1    1.292510 A    
Zn1   O7    1.967285 S    
O4    C2    1.297051 A    
N7    O18   1.305018 A    
C9    N6    1.473354 S    
N9    O21   1.298411 A    
O6    C3    1.314119 A    
O1    Zn1   1.969365 S    
O5    C3    1.298006 A    
N13   O29   1.301693 A    
C6    C13   1.633081 S    
N8    O20   1.302588 A    
C8    N5    1.493332 S    
C2    C13   1.503155 S    
N10   O24   1.302778 A    
N10   O23   1.292772 A    
N5    O14   1.293751 A    
C6    N7    1.499008 S    
C12   C14   1.673896 S    
C1    C5    1.382281 S    
C6    C8    1.622608 S    
Zn2   O8    1.969370 S    
O5    Zn1   2.060247 S    
N4    O11   1.304946 A    
C7    C13   1.656188 S    
N2    Zn1   2.041144 S    
N12   O28   1.300101 A    
N13   O30   1.296987 A    
N3    O10   1.294655 A    
N8    O19   1.299175 A    
O3    C2    1.314211 A    
N11   O25   1.303055 A    
N7    O17   1.291517 A    
O6    Zn2   2.089061 S    
C11   C13   1.664696 S    
N5    O13   1.302923 A    
C11   N12   1.493665 S    
N14   O32   1.302929 A    
O1    C1    1.292914 A    
N9    O22   1.302212 A    
N3    O9    1.294426 A    
O2    Zn2   1.967278 S    
N12   O27   1.296606 A    
C12   N13   1.492828 S    
C4    C10   1.382197 S    
C3    C14   1.504489 S    
C7    C9    1.634993 S    
C7    N4    1.491570 S    
C11   N11   1.500917 S    
O8    C4    1.293383 A    
C6    N3    1.468856 S    
C5    C10   1.174578 T    
C8    C14   1.653870 S    
N14   O31   1.297051 A    
N11   O26   1.297235 A    
