data_mof_unit_56442.cif
_audit_creation_date              2013-03-05T15:55:01-0500
_audit_creation_method            fapswitch 2.2
_symmetry_space_group_name_H-M    P1
_symmetry_Int_Tables_number       1
_space_group_crystal_system       triclinic
_cell_length_a                    23.417696
_cell_length_b                    10.678134
_cell_length_c                    9.948105
_cell_angle_alpha                 90.797675
_cell_angle_beta                  90.797233
_cell_angle_gamma                 93.553986
_cell_volume                      2482.2994077

loop_
_atom_site_label
_atom_site_type_symbol
_atom_site_description
_atom_site_fract_x
_atom_site_fract_y
_atom_site_fract_z
_atom_type_partial_charge
O1    O     O_R   0.500000 0.316780 0.614690 -0.591589
O2    O     O_R   0.500000 0.316750 0.385360 -0.569566
C1    C     C_R   0.505423 0.261766 0.499452 0.964224
O3    O     O_R   0.416160 0.499970 0.614690 -0.624568
O4    O     O_R   0.416150 0.499950 0.385360 -0.614244
C2    C     C_R   0.389619 0.505183 0.499240 0.954369
Zn1   Zn    Zn3+2 0.500000 0.500020 0.653130 0.999835
Zn2   Zn    Zn3+2 0.500000 0.499980 0.346870 1.028338
O5    O     O_R   0.500000 0.683250 0.614640 -0.634760
O6    O     O_R   0.500000 0.683220 0.385310 -0.624266
O7    O     O_R   0.583850 0.500050 0.614640 -0.622049
O8    O     O_R   0.583840 0.500030 0.385310 -0.593475
C3    C     C_R   0.504923 0.740092 0.501572 0.869975
C4    C     C_R   0.610544 0.497842 0.500383 0.941743
C5    C     C_R   0.880693 0.602250 0.422256 0.613089
N1    N     N_R   0.852302 0.494843 0.465592 -0.336982
C6    C     C_R   0.880188 0.394165 0.508770 0.593739
C7    C     C_R   0.939727 0.398691 0.510281 -0.017815
C8    C     C_R   0.970310 0.509456 0.469371 -0.054190
C9    C     C_R   0.940941 0.613576 0.424203 -0.118240
C10   C     C_R   0.969133 0.295762 0.553929 -0.103238
C11   C     C_R   0.028530 0.302373 0.558596 -0.131849
C12   C     C_R   0.059569 0.412206 0.520194 -0.013006
C13   C     C_R   0.030511 0.515930 0.475119 -0.009291
C14   C     C_R   0.061653 0.626078 0.436568 -0.070944
C15   C     C_R   0.032711 0.728688 0.391661 -0.179620
C16   C     C_R   0.973122 0.724013 0.384902 0.312542
C17   C     C_R   0.119284 0.421052 0.525437 0.516117
N2    N     N_R   0.148688 0.529299 0.488185 -0.361272
C18   C     C_R   0.121428 0.630926 0.444373 0.533685
O9    O     O_2   0.850075 0.696611 0.378204 -0.444569
O10   O     O_2   0.850116 0.290723 0.551696 -0.495346
H1    H     H_    0.946362 0.209894 0.585175 0.212300
H2    H     H_    0.049975 0.221467 0.593081 0.203577
O11   O     O_2   0.147920 0.322082 0.566210 -0.526848
O12   O     O_2   0.152177 0.736204 0.409193 -0.530214
H3    H     H_    0.056421 0.813900 0.361783 0.219194
C19   C     C_R   0.239518 0.534349 0.371175 -0.089016
H4    H     H_    0.216921 0.536947 0.275601 0.147950
C20   C     C_R   0.298506 0.528070 0.373991 -0.193389
H5    H     H_    0.320974 0.530222 0.280157 0.163430
C21   C     C_R   0.327874 0.519115 0.497006 -0.021786
C22   C     C_R   0.297878 0.526887 0.617582 -0.181786
H6    H     H_    0.319911 0.528248 0.713525 0.158695
C23   C     C_R   0.238834 0.533245 0.614948 -0.084931
H7    H     H_    0.215680 0.535555 0.708356 0.146356
C24   C     C_R   0.209573 0.534320 0.491596 0.305725
C25   C     C_R   0.756768 0.415589 0.384716 0.282800
C26   C     C_R   0.697014 0.413178 0.397679 0.156601
C27   C     C_R   0.672704 0.488244 0.498274 -0.278670
C28   C     C_R   0.708687 0.560853 0.587770 0.249097
C29   C     C_R   0.767464 0.560968 0.575067 -0.139277
H8    H     H_    0.795110 0.617638 0.643327 0.204791
C30   C     C_R   0.791486 0.490975 0.473754 0.082910
H9    H     H_    0.479111 0.103746 0.298088 0.213392
C31   C     C_R   0.577727 0.147191 0.703374 -0.150920
H10   H     H_    0.586033 0.247404 0.695694 0.177936
C32   C     C_R   0.601734 0.090149 0.813472 -0.112801
H11   H     H_    0.624839 0.146969 0.889800 0.207337
C33   C     C_R   0.596659 0.960581 0.824358 0.343214
C34   C     C_R   0.569410 0.887389 0.722094 -0.191762
H12   H     H_    0.571023 0.787707 0.731931 0.200924
C35   C     C_R   0.542719 0.943513 0.610947 0.059772
C36   C     C_R   0.545444 0.075485 0.604733 0.121794
C37   C     C_R   0.516773 0.131573 0.497342 -0.057889
C38   C     C_R   0.496417 0.061280 0.386271 -0.102209
H13   H     H_    0.474811 0.882661 0.304710 0.184676
C39   C     C_R   0.494489 0.934057 0.389856 -0.173634
C40   C     C_R   0.514130 0.874159 0.503586 -0.085224
H14   H     H_    0.581980 0.590500 0.128604 0.185284
C41   C     C_R   0.400138 0.404574 0.129459 0.304748
C42   C     C_R   0.349459 0.402136 0.053830 -0.285610
H15   H     H_    0.308867 0.377090 0.100474 0.204118
C43   C     C_R   0.352246 0.386788 0.916148 -0.295166
H16   H     H_    0.314151 0.349486 0.862750 0.211471
C44   C     C_R   0.405701 0.384716 0.856559 0.362010
C45   C     C_R   0.453596 0.444609 0.925274 0.028188
C46   C     C_R   0.452391 0.448666 0.069323 0.075651
N3    N     N_R   0.499460 0.498800 0.142780 -0.121518
C47   C     C_R   0.545131 0.549360 0.073641 -0.007132
H17   H     H_    0.581287 0.592698 0.879804 0.196917
C48   C     C_R   0.544804 0.550550 0.930981 -0.070918
N4    N     N_R   0.499440 0.498720 0.857170 -0.134602
N5    N     N_R   0.661213 0.336028 0.307450 0.253884
O13   O     O_R   0.626651 0.247708 0.354366 -0.385447
O14   O     O_R   0.665000 0.350004 0.178085 -0.322299
Br1   Br    Br    0.681423 0.670423 0.722783 -0.440808
Br2   Br    Br    0.628022 0.883718 0.978915 -0.389253
Br3   Br    Br    0.394496 0.265654 0.248839 -0.453679
N6    N     N_R   0.412888 0.281729 0.766301 0.244022
O15   O     O_R   0.445431 0.194036 0.804934 -0.373637
O16   O     O_R   0.374837 0.254853 0.671933 -0.377705
Br4   Br    Br    0.941051 0.875095 0.322896 -0.320255
N7    N     N_R   0.782184 0.340572 0.283236 0.252683
O17   O     O_R   0.823966 0.387938 0.211329 -0.334349
O18   O     O_R   0.765149 0.223074 0.265813 -0.245492

loop_
_geom_bond_atom_site_label_1
_geom_bond_atom_site_label_2
_geom_bond_distance
_ccdc_geom_bond_type
C38   C39   1.357437 A    
C7    C10   1.403400 A    
Zn1   N4    2.030271 S    
C8    C9    1.418136 A    
H17   C48   1.078184 S    
C33   Br2   1.911962 S    
C4    C27   1.465986 S    
C45   C46   1.433784 A    
C25   C30   1.404473 A    
C15   C16   1.393893 A    
C43   C44   1.393767 A    
N2    C24   1.423399 S    
C26   N5    1.435303 S    
C17   N2    1.366700 A    
N5    O14   1.301241 A    
C19   H4    1.083189 S    
O7    C4    1.305425 A    
C10   H1    1.083339 S    
C45   N4    1.378284 A    
C32   C33   1.387153 A    
C5    N1    1.367653 A    
C31   H10   1.079650 S    
C7    C8    1.412082 A    
C34   C35   1.420586 A    
O5    C3    1.288735 A    
N5    O13   1.300182 A    
C35   C40   1.426168 A    
C17   O11   1.350300 S    
N1    C6    1.363364 A    
Zn2   N3    2.030031 S    
C12   C13   1.410541 A    
C31   C36   1.416831 A    
C20   C21   1.402757 A    
C10   C11   1.388448 A    
C1    C37   1.431411 S    
O3    Zn1   1.994971 S    
C29   C30   1.392039 A    
C27   C28   1.408091 A    
C23   C24   1.397653 A    
C5    C9    1.408387 A    
C11   H2    1.083287 S    
C43   H16   1.083308 S    
H14   C47   1.081542 S    
C28   C29   1.383891 A    
C13   C14   1.405813 A    
C42   C43   1.380108 A    
C28   Br1   1.911347 S    
C46   N3    1.388908 A    
C39   C40   1.393859 A    
C14   C15   1.398826 A    
C23   H7    1.083105 S    
C48   N4    1.366784 A    
H13   C39   1.084372 S    
C33   C34   1.396763 A    
O1    C1    1.292287 A    
Zn1   O7    2.005763 S    
C22   H6    1.078137 S    
N2    C18   1.366173 A    
N6    O16   1.302000 A    
C41   Br3   1.912451 S    
Zn2   O8    1.994968 S    
C6    C7    1.391975 A    
N7    O17   1.301183 A    
C12   C17   1.395918 A    
C44   C45   1.418385 A    
N7    O18   1.301277 A    
C22   C23   1.388435 A    
C19   C24   1.396493 A    
C25   N7    1.438186 S    
O3    C2    1.301800 A    
C25   C26   1.405685 A    
O8    C4    1.297966 A    
C26   C27   1.420618 A    
N3    C47   1.366619 A    
C16   Br4   1.926703 S    
C21   C22   1.402506 A    
H9    C38   1.078611 S    
C29   H8    1.083602 S    
C14   C18   1.398567 A    
Zn1   O5    1.998896 S    
C20   H5    1.077734 S    
O1    Zn1   1.988447 S    
O2    Zn2   1.998894 S    
C42   H15   1.083813 S    
O6    C3    1.299171 A    
O4    Zn2   2.005765 S    
C15   H3    1.083532 S    
C5    O9    1.347043 S    
C9    C16   1.422075 A    
C18   O12   1.349949 S    
C36   C37   1.413692 A    
O2    C1    1.293390 A    
C32   H11   1.082820 S    
C41   C42   1.394977 A    
C19   C20   1.387045 A    
N6    O15   1.302173 A    
O4    C2    1.301812 A    
C3    C40   1.434271 S    
C47   C48   1.419347 A    
C31   C32   1.389442 A    
C8    C13   1.407504 A    
C34   H12   1.073210 S    
N1    C30   1.425700 S    
C35   C36   1.408963 A    
Zn2   O6    1.988448 S    
C37   C38   1.389039 A    
C2    C21   1.462579 S    
C6    O10   1.350331 S    
C11   C12   1.401523 A    
C41   C46   1.426067 A    
C44   N6    1.429535 S    
