data_mof_unit_32441.cif
_audit_creation_date              2012-12-10T17:13:15-0500
_audit_creation_method            fapswitch 2.2
_symmetry_space_group_name_H-M    P1
_symmetry_Int_Tables_number       1
_space_group_crystal_system       triclinic
_cell_length_a                    11.73971
_cell_length_b                    13.036965
_cell_length_c                    13.863966
_cell_angle_alpha                 87.699283
_cell_angle_beta                  92.510257
_cell_angle_gamma                 99.846627
_cell_volume                      2087.46948635

loop_
_atom_site_label
_atom_site_type_symbol
_atom_type_description
_atom_site_fract_x
_atom_site_fract_y
_atom_site_fract_z
_atom_type_partial_charge
C1    C     C_R   0.478546 0.298801 0.505581 0.808141
C2    C     C_R   0.522616 0.700811 0.503139 0.806382
C3    C     C_R   0.557018 0.031360 0.513583 0.122751
C4    C     C_R   0.447912 0.967567 0.513559 0.123565
C5    C     C_R   0.037393 0.409861 0.598237 -0.297209
C6    C     C_R   0.963361 0.594127 0.404594 -0.291866
C7    C     C_R   0.156693 0.417838 0.587775 -0.011203
C8    C     C_R   0.843887 0.585531 0.414751 -0.015747
C9    C     C_R   0.150252 0.540146 0.457014 0.525048
C10   C     C_R   0.849866 0.460238 0.543157 0.524565
C11   C     C_R   0.028880 0.534492 0.465081 -0.037443
C12   C     C_R   0.971495 0.467394 0.536111 -0.034592
C13   C     C_R   0.519783 0.501466 0.681832 0.832584
C14   C     C_R   0.480223 0.498555 0.318151 0.853303
C15   C     C_1   0.466524 0.495843 0.215546 -0.178475
C16   C     C_1   0.533530 0.504417 0.784375 -0.178095
C17   C     C_2   0.450500 0.490078 0.024773 0.073171
C18   C     C_2   0.549678 0.510718 0.975070 0.072261
C19   C     C_1   0.542622 0.507312 0.870854 -0.027388
C20   C     C_1   0.457498 0.493196 0.129029 -0.026121
C21   C     C_R   0.538965 0.814716 0.511336 -0.103234
C22   C     C_R   0.464562 0.184112 0.514099 -0.100182
C23   C     C_R   0.348232 0.010894 0.521074 -0.195256
C24   C     C_R   0.657398 0.986907 0.519445 -0.192100
C25   C     C_R   0.355238 0.118766 0.528736 0.081006
C26   C     C_R   0.650327 0.878128 0.524424 0.072970
C27   C     C_R   0.564368 0.138964 0.509660 -0.243007
C28   C     C_R   0.439468 0.860522 0.508692 -0.247467
Cu1   Cu    Cu3+1 0.615220 0.507680 0.492970 0.981210
Cu2   Cu    Cu3+1 0.384780 0.492320 0.507030 0.982418
H1    H     H_    0.354347 0.812657 0.504098 0.190637
H2    H     H_    0.648752 0.187543 0.504514 0.192267
H3    H     H_    0.265966 0.959073 0.524438 0.136098
H4    H     H_    0.740389 0.037868 0.522882 0.139085
H5    H     H_    0.795151 0.631863 0.367788 0.142927
H6    H     H_    0.205844 0.374311 0.636942 0.140210
H7    H     H_    0.998273 0.358988 0.655570 0.203720
H8    H     H_    0.002919 0.647529 0.349162 0.202186
N1    N     N_R   0.788370 0.519230 0.482390 -0.201163
N2    N     N_R   0.211630 0.480770 0.517610 -0.201777
O1    O     O_R   0.581500 0.354430 0.495010 -0.533874
O2    O     O_R   0.418500 0.645570 0.504990 -0.533591
O3    O     O_R   0.386890 0.341450 0.506880 -0.614615
O4    O     O_R   0.613110 0.658550 0.493120 -0.615973
O5    O     O_R   0.611060 0.507430 0.631070 -0.525501
O6    O     O_R   0.388940 0.492570 0.368930 -0.517627
O7    O     O_R   0.416450 0.494450 0.642940 -0.598922
O8    O     O_R   0.583550 0.505550 0.357060 -0.592073
C29   C     C_3   0.667552 0.537960 0.027314 -0.394176
C30   C     C_3   0.770553 0.559487 0.960307 -0.332851
C31   C     C_3   0.884648 0.587295 0.018056 -0.837686
H9    H     H_    0.884760 0.658536 0.059432 0.255796
H10   H     H_    0.898104 0.522115 0.068997 0.257249
H11   H     H_    0.957338 0.602349 0.967974 0.246967
H12   H     H_    0.773803 0.489240 0.918266 0.243062
H13   H     H_    0.760456 0.625437 0.909060 0.225494
H14   H     H_    0.667569 0.608302 0.070155 0.201095
H15   H     H_    0.679927 0.472336 0.078284 0.203787
C32   C     C_3   0.332703 0.462826 0.972380 -0.396970
C33   C     C_3   0.229451 0.441968 0.039103 -0.328852
C34   C     C_3   0.115533 0.414352 0.981040 -0.839835
H16   H     H_    0.102492 0.479521 0.929939 0.256129
H17   H     H_    0.115354 0.343004 0.939794 0.254473
H18   H     H_    0.042609 0.399572 0.030893 0.248574
H19   H     H_    0.239059 0.376121 0.090606 0.227679
H20   H     H_    0.226373 0.512456 0.080845 0.243173
H21   H     H_    0.320657 0.528233 0.921039 0.203401
H22   H     H_    0.332604 0.392199 0.929914 0.200224
C35   C     C_3   0.758573 0.829596 0.546338 -0.358353
C36   C     C_3   0.863871 0.900273 0.590829 -0.400876
C37   C     C_3   0.957867 0.836757 0.622985 -0.838312
H23   H     H_    0.923340 0.772346 0.674192 0.257977
H24   H     H_    0.991112 0.803586 0.559405 0.259814
H25   H     H_    0.030542 0.887048 0.660564 0.242338
H26   H     H_    0.900091 0.960931 0.536785 0.225960
H27   H     H_    0.837430 0.937956 0.654801 0.231458
H28   H     H_    0.735868 0.765158 0.600762 0.221030
H29   H     H_    0.784513 0.797876 0.478951 0.211569
C38   C     C_3   0.249652 0.163094 0.557162 -0.360774
C39   C     C_3   0.150199 0.084841 0.599637 -0.404170
C40   C     C_3   0.059360 0.140587 0.640223 -0.844601
H30   H     H_    0.099408 0.196616 0.695277 0.246264
H31   H     H_    0.017338 0.182380 0.581082 0.264008
H32   H     H_    0.992247 0.083223 0.675838 0.250536
H33   H     H_    0.107797 0.032751 0.542346 0.227872
H34   H     H_    0.184716 0.037777 0.659130 0.229564
H35   H     H_    0.279348 0.219097 0.615014 0.209295
H36   H     H_    0.215226 0.204212 0.493445 0.219345
Cl1   Cl    Cl    0.777597 0.373181 0.630180 -0.663405
Cl2   Cl    Cl    0.222396 0.626176 0.369203 -0.655279

loop_
_geom_bond_atom_site_label_1
_geom_bond_atom_site_label_2
_ccdc_geom_bond_type
C21   C26   A    
C5    H7    S    
C7    H6    S    
C35   H28   S    
C38   H35   S    
C40   H30   S    
C35   H29   S    
C14   O6    A    
C39   H33   S    
C24   C26   A    
C17   C20   S    
C29   H14   S    
C18   C19   S    
C34   H17   S    
C39   H34   S    
C40   H31   S    
C1    O3    A    
C10   Cl1   S    
C2    O4    A    
C23   H3    S    
C22   C25   A    
C7    N2    A    
C6    H8    S    
C36   C37   S    
C8    N1    A    
C32   H21   S    
C33   H20   S    
C1    C22   S    
C3    C24   A    
C34   H16   S    
C38   H36   S    
C4    C28   A    
C30   C31   S    
C15   C20   T    
Cu1   O8    S    
C31   H9    S    
Cu2   O7    S    
C5    C12   A    
C6    C11   A    
C5    C7    A    
C4    C23   A    
C14   O8    A    
C9    N2    A    
C30   H13   S    
C29   H15   S    
Cu1   O5    S    
C10   N1    A    
C31   H10   S    
C8    H5    S    
C34   H18   S    
Cu1   Cu2   S    
C32   H22   S    
Cu1   N1    S    
C2    C21   S    
C17   C18   D    
Cu2   N2    S    
C9    C11   A    
C10   C12   A    
C17   C32   S    
C1    O1    A    
C21   C28   A    
C33   H19   S    
C22   C27   A    
Cu1   O4    S    
C36   H27   S    
Cu2   O3    S    
C3    C4    A    
C40   H32   S    
C13   O7    A    
Cu1   O1    S    
C27   H2    S    
C25   C38   S    
Cu2   O6    S    
C28   H1    S    
Cu2   O2    S    
C39   C40   S    
C9    Cl2   S    
C37   H25   S    
C6    C8    A    
C11   C12   A    
C30   H12   S    
C31   H11   S    
C3    C27   A    
C37   H23   S    
C13   O5    A    
C2    O2    A    
C16   C19   T    
C23   C25   A    
C35   C36   S    
C24   H4    S    
C38   C39   S    
C32   C33   S    
C29   C30   S    
C13   C16   S    
C37   H24   S    
C36   H26   S    
C26   C35   S    
C14   C15   S    
C33   C34   S    
C18   C29   S    
