data_mof_unit_7067.cif
_audit_creation_date              2013-03-05T16:35:30-0500
_audit_creation_method            fapswitch 2.2
_symmetry_space_group_name_H-M    P1
_symmetry_Int_Tables_number       1
_space_group_crystal_system       triclinic
_cell_length_a                    10.741034
_cell_length_b                    14.746019
_cell_length_c                    14.135302
_cell_angle_alpha                 89.56229
_cell_angle_beta                  90.94524
_cell_angle_gamma                 89.726925
_cell_volume                      2238.45824032

loop_
_atom_site_label
_atom_site_type_symbol
_atom_site_description
_atom_site_fract_x
_atom_site_fract_y
_atom_site_fract_z
_atom_type_partial_charge
O1    O     O_R   0.500010 0.369070 0.579480 -0.613879
O2    O     O_R   0.499990 0.630930 0.420520 -0.608939
O3    O     O_R   0.500010 0.369060 0.420520 -0.635934
O4    O     O_R   0.499990 0.630940 0.579480 -0.631696
C1    C     C_R   0.501215 0.326728 0.500490 0.938958
C2    C     C_R   0.502445 0.673544 0.499710 0.931738
O5    O     O_R   0.316760 0.500010 0.579480 -0.613985
O6    O     O_R   0.683240 0.499990 0.420520 -0.628609
O7    O     O_R   0.316760 0.500000 0.420520 -0.602562
O8    O     O_R   0.683240 0.500000 0.579480 -0.616086
C3    C     C_R   0.259637 0.499547 0.498877 0.929948
C4    C     C_R   0.739917 0.496541 0.500833 0.863134
Zn1   Zn    Zn3+2 0.500000 0.500010 0.606140 0.967195
Zn2   Zn    Zn3+2 0.500000 0.499990 0.393860 0.973698
H1    H     H_    0.191432 0.622764 0.067027 0.182123
H2    H     H_    0.715319 0.301455 0.875762 0.171022
C5    C     C_R   0.138983 0.667634 0.204497 -0.142466
C6    C     C_R   0.749614 0.295385 0.727188 -0.137666
H3    H     H_    0.137782 0.738519 0.184066 0.149367
H4    H     H_    0.692547 0.235823 0.717024 0.159401
C7    C     C_R   0.107410 0.642314 0.296366 -0.060393
C8    C     C_R   0.809135 0.334735 0.650157 -0.098489
H5    H     H_    0.079233 0.693838 0.345963 0.152309
H6    H     H_    0.797315 0.305190 0.580667 0.114046
C9    C     C_R   0.109524 0.550769 0.323541 0.103946
C10   C     C_R   0.881837 0.412784 0.662459 0.106106
C11   C     C_R   0.140046 0.484412 0.256950 -0.154232
C12   C     C_R   0.896471 0.449725 0.753245 -0.200923
H7    H     H_    0.136367 0.413487 0.277283 0.178093
H8    H     H_    0.952710 0.509924 0.762359 0.181961
C13   C     C_R   0.168778 0.509205 0.163614 0.017191
C14   C     C_R   0.836991 0.410305 0.831289 0.021672
C15   C     C_R   0.169047 0.601611 0.138252 -0.203705
C16   C     C_R   0.762995 0.332918 0.817219 -0.169863
C17   C     C_R   0.930459 0.523230 0.420629 -0.243432
C18   C     C_R   0.068507 0.461821 0.577201 -0.217062
H9    H     H_    0.876826 0.548287 0.360007 0.176292
H10   H     H_    0.122545 0.436782 0.637517 0.172502
C19   C     C_R   0.872092 0.491588 0.501539 -0.080080
C20   C     C_R   0.127064 0.495310 0.496363 -0.080243
C21   C     C_R   0.940454 0.456962 0.579741 0.002678
C22   C     C_R   0.057494 0.523013 0.415559 -0.009082
C23   C     C_R   0.521612 0.084582 0.580415 -0.233301
C24   C     C_R   0.537140 0.916599 0.423069 -0.215510
H11   H     H_    0.482482 0.039427 0.632959 0.187156
H12   H     H_    0.506907 0.962110 0.366446 0.189465
C25   C     C_R   0.481122 0.174191 0.575908 -0.053015
C26   C     C_R   0.496860 0.827314 0.422219 -0.034174
C27   C     C_R   0.525323 0.230097 0.502495 -0.136085
C28   C     C_R   0.528579 0.770385 0.499815 -0.145469
C29   C     C_R   0.607759 0.195850 0.435541 -0.298789
C30   C     C_R   0.598389 0.804485 0.576464 -0.278296
H13   H     H_    0.643855 0.239795 0.380705 0.157097
H14   H     H_    0.625013 0.760589 0.635299 0.154785
C31   C     C_R   0.645586 0.105577 0.438796 0.226039
C32   C     C_R   0.634555 0.894936 0.578753 0.223618
C33   C     C_R   0.599485 0.049435 0.511030 0.076610
C34   C     C_R   0.601091 0.951402 0.501697 0.073726
C35   C     C_R   0.517961 0.418652 0.106000 -0.200868
C36   C     C_R   0.558051 0.570291 0.894807 -0.272841
H15   H     H_    0.531839 0.354444 0.071006 0.146510
H16   H     H_    0.603660 0.625876 0.930719 0.148781
C37   C     C_R   0.515838 0.420438 0.205348 0.035547
C38   C     C_R   0.555600 0.569171 0.795401 0.024661
H17   H     H_    0.527589 0.357693 0.244487 0.136839
H18   H     H_    0.598786 0.623674 0.756477 0.124605
N1    N     N_R   0.500000 0.499980 0.252470 -0.103557
N2    N     N_R   0.500000 0.500020 0.747530 -0.097381
C39   C     C_R   0.486741 0.579262 0.202993 0.030660
C40   C     C_R   0.447852 0.429830 0.795680 0.028857
H19   H     H_    0.474191 0.642052 0.240301 0.165925
H20   H     H_    0.404640 0.375140 0.757016 0.153873
C41   C     C_R   0.488704 0.580539 0.103600 -0.286428
C42   C     C_R   0.449674 0.427682 0.895066 -0.208563
H21   H     H_    0.475683 0.644530 0.066654 0.148130
H22   H     H_    0.406448 0.371296 0.931083 0.158466
C43   C     C_R   0.504157 0.499436 0.053138 0.153453
C44   C     C_R   0.504216 0.499028 0.946607 0.154033
N3    N     N_2   0.720898 0.070520 0.365097 -0.306589
H23   H     H_    0.723111 0.110763 0.305107 0.233365
C45   C     C_3   0.843485 0.039038 0.394262 -0.766200
H24   H     H_    0.896332 0.018156 0.331104 0.246806
H25   H     H_    0.836766 0.979018 0.441485 0.251472
H26   H     H_    0.895356 0.094056 0.430729 0.239047
N4    N     N_2   0.694159 0.929777 0.661829 -0.310352
H27   H     H_    0.687002 0.888758 0.720948 0.228358
C46   C     C_3   0.819142 0.963580 0.649619 -0.772859
H28   H     H_    0.858799 0.983879 0.719310 0.246806
H29   H     H_    0.818502 0.024493 0.603246 0.251613
H30   H     H_    0.879566 0.910087 0.619399 0.239127
C47   C     C_2   0.194097 0.438611 0.092343 0.902727
O9    O     O_2   0.200025 0.459065 0.008533 -0.628659
O10   O     O_R   0.210488 0.348199 0.120647 -0.817118
H31   H     H_    0.227939 0.306651 0.065551 0.344150
C48   C     C_2   0.851834 0.450245 0.926832 0.915035
O11   O     O_2   0.802295 0.414792 0.994990 -0.647033
O12   O     O_R   0.922699 0.528711 0.939362 -0.797474
H32   H     H_    0.925995 0.549166 0.007683 0.348384
C49   C     C_2   0.385506 0.204584 0.643711 0.899374
O13   O     O_2   0.386217 0.174176 0.724492 -0.644665
O14   O     O_R   0.291992 0.265441 0.614495 -0.816430
H33   H     H_    0.231584 0.279776 0.666747 0.333803
C50   C     C_2   0.412286 0.799680 0.343942 0.889287
O15   O     O_2   0.324553 0.749765 0.359743 -0.657404
O16   O     O_R   0.429717 0.834062 0.252659 -0.815020
H34   H     H_    0.365549 0.810796 0.205485 0.331837

loop_
_geom_bond_atom_site_label_1
_geom_bond_atom_site_label_2
_geom_bond_distance
_ccdc_geom_bond_type
C46   H28   1.110566 S    
C37   H17   1.080207 S    
O10   H31   1.013917 S    
C11   H7    1.083600 S    
C48   O11   1.223323 D    
C35   C43   1.407283 A    
C45   H24   1.110533 S    
C32   N4    1.428416 S    
C25   C27   1.410248 A    
C43   C44   1.505908 S    
O5    C3    1.285181 A    
C36   C44   1.408120 A    
O14   H33   1.013951 S    
C42   H22   1.082177 S    
O1    C1    1.283651 A    
C38   N2    1.362839 A    
C17   H9    1.086060 S    
C25   C49   1.486218 S    
C36   H16   1.082356 S    
O4    Zn1   1.964302 S    
C39   H19   1.078042 S    
C17   C22   1.367542 A    
H2    C16   1.082897 S    
C24   H12   1.085172 S    
C27   C29   1.401941 A    
C40   C42   1.404772 A    
C28   C30   1.405022 A    
Zn2   N1    1.998591 S    
C13   C15   1.406368 A    
C39   C41   1.405437 A    
C29   C31   1.390144 A    
O7    C3    1.275005 A    
C26   C28   1.412348 A    
C41   H21   1.082366 S    
C1    C27   1.447025 S    
C18   C21   1.378671 A    
O2    C2    1.287826 A    
C5    C15   1.396379 A    
C45   H25   1.107827 S    
C30   H14   1.083784 S    
O12   H32   1.014054 S    
N4    C46   1.446759 S    
C37   N1    1.364606 A    
C35   H15   1.082396 S    
C11   C13   1.405936 A    
C18   C20   1.401151 A    
O4    C2    1.287286 A    
C24   C34   1.399057 A    
C47   O9    1.222989 D    
N3    C45   1.446565 S    
N4    H27   1.031965 S    
C26   C50   1.480809 S    
C5    C7    1.396096 A    
C29   H13   1.084284 S    
C14   C16   1.407261 A    
C17   C19   1.391782 A    
O7    Zn2   2.010036 S    
C47   O10   1.398508 S    
C31   N3    1.427906 S    
C49   O13   1.223449 D    
C12   C14   1.407140 A    
O6    C4    1.279846 A    
C50   O16   1.398534 S    
C2    C28   1.456671 S    
C6    C16   1.397137 A    
O3    Zn2   1.964302 S    
O8    C4    1.277482 A    
C49   O14   1.398864 S    
C13   C47   1.481514 S    
C31   C33   1.407400 A    
C8    C10   1.404190 A    
C8    H6    1.083385 S    
O1    Zn1   1.970098 S    
C18   H10   1.084859 S    
C45   H26   1.111550 S    
C7    C9    1.400669 A    
O6    Zn2   1.997824 S    
C6    C8    1.395669 A    
C10   C12   1.404683 A    
O3    C1    1.286965 A    
O8    Zn1   2.010035 S    
C9    C22   1.479760 S    
C48   O12   1.398776 S    
C9    C11   1.404336 A    
O16   H34   1.013886 S    
C35   C37   1.405324 A    
C36   C38   1.405170 A    
C4    C19   1.421099 S    
C7    H5    1.083176 S    
C12   H8    1.083409 S    
C23   H11   1.084932 S    
C33   C34   1.452655 S    
C20   C22   1.411256 A    
C5    H3    1.082269 S    
C32   C34   1.406854 A    
C6    H4    1.082557 S    
C3    C20   1.425509 S    
O2    Zn2   1.970098 S    
C23   C33   1.400303 A    
N3    H23   1.031934 S    
C24   C26   1.387896 A    
O5    Zn1   1.997826 S    
C14   C48   1.483972 S    
C19   C21   1.408125 A    
N2    C40   1.362207 A    
C42   C44   1.408671 A    
C46   H30   1.111457 S    
C50   O15   1.220939 D    
C46   H29   1.107842 S    
C41   C43   1.407727 A    
C40   H20   1.080015 S    
N1    C39   1.363387 A    
C23   C25   1.389796 A    
H1    C15   1.082889 S    
C30   C32   1.391455 A    
C10   C21   1.484751 S    
C38   H18   1.081228 S    
Zn1   N2    1.998591 S    
