data_mof_unit_19949.cif
_audit_creation_date              2012-12-11T14:54:32-0500
_audit_creation_method            fapswitch 2.2
_symmetry_space_group_name_H-M    P1
_symmetry_Int_Tables_number       1
_space_group_crystal_system       triclinic
_cell_length_a                    18.900791
_cell_length_b                    10.962234
_cell_length_c                    18.855903
_cell_angle_alpha                 90.071261
_cell_angle_beta                  90.283237
_cell_angle_gamma                 90.069803
_cell_volume                      3906.79313135

loop_
_atom_site_label
_atom_site_type_symbol
_atom_type_description
_atom_site_fract_x
_atom_site_fract_y
_atom_site_fract_z
_atom_type_partial_charge
C1    C     C_R   0.728005 0.372433 0.643826 0.543739
C2    C     C_R   0.317521 0.911626 0.468828 -0.132507
C3    C     C_R   0.970756 0.552329 0.471369 -0.149068
C4    C     C_3   0.927889 0.019297 0.928032 -0.270723
C5    C     C_3   0.122085 0.196509 0.012894 -0.292036
C6    C     C_3   0.414118 0.482826 0.916155 -0.270161
C7    C     C_3   0.581977 0.619494 0.021998 -0.310323
C8    C     C_1   0.440208 0.966441 0.907998 0.215742
C9    C     C_1   0.456642 0.930637 0.054057 0.236067
C10   C     C_1   0.944134 0.463725 0.910230 0.221104
C11   C     C_1   0.965601 0.427961 0.055696 0.226648
C12   C     C_R   0.191772 0.381406 0.533869 -0.137178
C13   C     C_R   0.806960 0.377504 0.462102 -0.137996
C14   C     C_R   0.696842 0.867272 0.462781 -0.140043
C15   C     C_R   0.309019 0.880717 0.540074 -0.137279
C16   C     C_R   0.193737 0.369101 0.460371 -0.139110
C17   C     C_R   0.802536 0.368772 0.535529 -0.151427
C18   C     C_R   0.747062 0.928847 0.421615 0.029329
C19   C     C_R   0.253616 0.932378 0.579152 0.024207
C20   C     C_R   0.247379 0.426935 0.421753 0.026494
C21   C     C_R   0.268836 0.379623 0.352958 0.532649
C22   C     C_R   0.738908 0.397361 0.569087 0.033983
C23   C     C_R   0.785684 0.025969 0.451132 -0.124541
C24   C     C_R   0.211161 0.022811 0.548000 -0.142049
C25   C     C_R   0.291968 0.511007 0.455456 -0.143476
C26   C     C_R   0.679456 0.430998 0.528451 -0.125953
C27   C     C_R   0.778653 0.054211 0.522270 -0.129335
C28   C     C_R   0.217922 0.049762 0.476793 -0.140703
C29   C     C_R   0.291067 0.521492 0.528185 -0.139456
C30   C     C_R   0.683817 0.439151 0.455931 -0.134054
C31   C     C_R   0.731707 0.988410 0.564590 0.031606
C32   C     C_R   0.230776 0.878959 0.646447 0.543319
C33   C     C_R   0.269529 0.992077 0.436024 0.024953
C34   C     C_R   0.242853 0.453279 0.568388 0.026559
C35   C     C_R   0.748358 0.418104 0.422531 0.033009
C36   C     C_R   0.468128 0.064184 0.952445 -0.046757
C37   C     C_R   0.467474 0.052429 0.025736 -0.029361
C38   C     C_R   0.971660 0.562581 0.954095 -0.038356
C39   C     C_R   0.972761 0.550718 0.027310 -0.026949
C40   C     C_R   0.483179 0.155942 0.069278 -0.002974
C41   C     C_R   0.500614 0.167101 0.922709 -0.012474
C42   C     C_R   0.986652 0.655464 0.070505 -0.002016
C43   C     C_R   0.769443 0.878361 0.353716 0.547830
C44   C     C_R   0.002394 0.666570 0.923706 -0.021168
C45   C     C_R   0.507521 0.263313 0.038206 -0.171168
C46   C     C_R   0.520013 0.266341 0.965863 -0.162864
C47   C     C_R   0.010059 0.763301 0.039120 -0.173211
C48   C     C_R   0.021783 0.766385 0.966589 -0.172512
C49   C     C_R   0.536201 0.154169 0.643966 0.541641
C50   C     C_R   0.468599 0.155433 0.353109 0.536847
C51   C     C_R   0.031673 0.655293 0.646756 0.550697
C52   C     C_R   0.964616 0.654439 0.355629 0.548358
C53   C     C_R   0.816735 0.917699 0.956064 0.114707
C54   C     C_3   0.448399 0.368478 0.466228 -0.256640
C55   C     C_R   0.203991 0.018828 0.026246 0.130349
C56   C     C_R   0.300300 0.417288 0.957233 0.123063
C57   C     C_R   0.691818 0.492099 0.031571 0.145809
C58   C     C_R   0.822602 0.901373 0.028571 -0.106737
C59   C     C_R   0.209905 0.007659 0.953411 -0.115346
C60   C     C_R   0.307086 0.383523 0.027397 -0.109090
C61   C     C_R   0.699520 0.492036 0.958526 -0.106699
C62   C     C_R   0.761877 0.896535 0.071223 0.014290
C63   C     C_R   0.247905 0.912155 0.924137 0.006156
C64   C     C_R   0.254556 0.412623 0.076253 0.023081
C65   C     C_3   0.459726 0.366426 0.545816 -0.281905
C66   C     C_R   0.745237 0.409776 0.926095 0.000356
C67   C     C_R   0.694689 0.898618 0.040855 -0.150589
C68   C     C_R   0.286066 0.831617 0.967598 -0.130620
C69   C     C_R   0.192201 0.470045 0.054775 -0.166272
C70   C     C_R   0.789550 0.335872 0.967585 -0.129678
C71   C     C_R   0.688277 0.913425 0.968152 -0.176491
C72   C     C_R   0.286378 0.848009 0.040395 -0.164265
C73   C     C_R   0.183579 0.500788 0.983512 -0.192492
C74   C     C_R   0.790459 0.348988 0.040733 -0.166897
C75   C     C_R   0.749160 0.925860 0.925861 0.046844
C76   C     C_3   0.040308 0.868647 0.454652 -0.280268
C77   C     C_R   0.246907 0.942188 0.070225 0.024992
C78   C     C_R   0.237660 0.475647 0.934741 0.042024
C79   C     C_R   0.743581 0.429685 0.073142 0.021239
C80   C     C_R   0.727584 0.018197 0.639888 0.555901
C81   C     C_R   0.272718 0.019168 0.360079 0.559627
C82   C     C_R   0.239000 0.477943 0.644100 0.555771
C83   C     C_R   0.758307 0.467700 0.352022 0.543569
C84   C     C_R   0.729633 0.377171 0.853082 0.559211
C85   C     C_R   0.269238 0.380559 0.148760 0.546461
C86   C     C_R   0.230014 0.877437 0.852505 0.550725
C87   C     C_3   0.051613 0.870156 0.534250 -0.255183
C88   C     C_R   0.772026 0.874188 0.145860 0.546748
C89   C     C_R   0.531307 0.157498 0.852512 0.554456
C90   C     C_R   0.464297 0.155143 0.144396 0.540397
C91   C     C_R   0.031675 0.657456 0.852814 0.537769
C92   C     C_R   0.965636 0.655210 0.145070 0.540800
C93   C     C_R   0.741015 0.971396 0.854408 0.578197
C94   C     C_R   0.258347 0.974535 0.144336 0.559469
C95   C     C_R   0.229174 0.516510 0.862035 0.564848
C96   C     C_R   0.757378 0.470667 0.145665 0.544790
C97   C     C_R   0.505308 0.164584 0.420703 0.019034
C98   C     C_R   0.689218 0.896921 0.534090 -0.134257
C99   C     C_R   0.521459 0.158486 0.568461 0.023589
C100  C     C_R   0.980665 0.658874 0.430863 0.023040
C101  C     C_R   0.995954 0.664106 0.578733 0.021431
C102  C     C_R   0.504083 0.272482 0.460692 0.006604
C103  C     C_R   0.513621 0.269660 0.533507 0.012641
C104  C     C_R   0.987139 0.770132 0.466305 0.028804
C105  C     C_R   0.996647 0.772451 0.539172 0.021675
C106  C     C_R   0.533144 0.052937 0.527451 -0.150854
C107  C     C_R   0.527177 0.056694 0.454118 -0.151945
C108  C     C_R   0.975866 0.555691 0.544650 -0.153544
Cr1   Cr    Cr6+3 0.771950 0.169480 0.750100 1.039347
Cr2   Cr    Cr6+3 0.383410 0.010620 0.249390 1.034498
Cr3   Cr    Cr6+3 0.116590 0.510620 0.750610 1.031597
Cr4   Cr    Cr6+3 0.883410 0.510620 0.249390 1.035342
Cr5   Cr    Cr6+3 0.228050 0.169480 0.249900 1.023040
Cr6   Cr    Cr6+3 0.271950 0.669480 0.750100 1.031327
Cr7   Cr    Cr6+3 0.728050 0.669480 0.249900 1.031168
Cr8   Cr    Cr6+3 0.614930 0.323340 0.749170 1.007985
Cr9   Cr    Cr6+3 0.385070 0.323340 0.250830 1.008018
Cr10  Cr    Cr6+3 0.114930 0.823340 0.749170 1.007685
Cr11  Cr    Cr6+3 0.885070 0.823340 0.250830 1.021990
Cr12  Cr    Cr6+3 0.616590 0.010620 0.750610 1.025594
H1    H     H_    0.544838 0.966012 0.551892 0.135664
H2    H     H_    0.313142 0.753230 0.945738 0.150562
H3    H     H_    0.151162 0.491538 0.092672 0.126589
H4    H     H_    0.821956 0.266060 0.943804 0.158116
H5    H     H_    0.635619 0.921401 0.945660 0.146270
H6    H     H_    0.315951 0.785745 0.073665 0.158531
H7    H     H_    0.135677 0.546571 0.966647 0.129963
H8    H     H_    0.826731 0.295156 0.072188 0.160882
H9    H     H_    0.015556 0.953600 0.434155 0.142765
H10   H     H_    0.104952 0.837044 0.549814 0.167937
H11   H     H_    0.395471 0.333581 0.450396 0.170347
H12   H     H_    0.531920 0.971933 0.424914 0.136002
H13   H     H_    0.483783 0.451838 0.566746 0.134529
H14   H     H_    0.464719 0.455762 0.441191 0.132881
H15   H     H_    0.412962 0.332864 0.575648 0.147778
H16   H     H_    0.087386 0.836890 0.424672 0.148255
H17   H     H_    0.034569 0.956711 0.559692 0.139667
H18   H     H_    0.652296 0.844938 0.565743 0.127807
H19   H     H_    0.359323 0.868338 0.438895 0.131539
H20   H     H_    0.151284 0.333930 0.563528 0.122218
H21   H     H_    0.856825 0.357993 0.436711 0.119350
H22   H     H_    0.666755 0.791532 0.441239 0.128916
H23   H     H_    0.972004 0.470384 0.573344 0.134269
H24   H     H_    0.343108 0.812053 0.563259 0.120040
H25   H     H_    0.155937 0.309867 0.434267 0.117233
H26   H     H_    0.848225 0.339193 0.565812 0.112915
H27   H     H_    0.824590 0.075369 0.420395 0.130012
H28   H     H_    0.168738 0.066114 0.577086 0.129776
H29   H     H_    0.332031 0.560824 0.426458 0.131707
H30   H     H_    0.628645 0.449812 0.552367 0.140797
H31   H     H_    0.811820 0.124616 0.544942 0.127277
H32   H     H_    0.180682 0.112038 0.452899 0.123940
H33   H     H_    0.328638 0.583321 0.552719 0.132319
H34   H     H_    0.960990 0.464920 0.446596 0.132882
H35   H     H_    0.637557 0.468979 0.426538 0.130321
H36   H     H_    0.519574 0.342695 0.070243 0.126810
H37   H     H_    0.546744 0.345042 0.943997 0.142656
H38   H     H_    0.021601 0.843323 0.070931 0.124503
H39   H     H_    0.047113 0.846119 0.944223 0.148317
H40   H     H_    0.900989 0.838106 0.905473 0.256638
H41   H     H_    0.970456 0.018717 0.887672 0.146648
H42   H     H_    0.952315 0.007363 0.981219 0.123556
H43   H     H_    0.900985 0.108917 0.925607 0.178300
H44   H     H_    0.114939 0.056041 0.086404 0.261450
H45   H     H_    0.874862 0.891074 0.051548 0.148007
H46   H     H_    0.095777 0.263333 0.048106 0.179894
H47   H     H_    0.082013 0.158874 0.975481 0.127377
H48   H     H_    0.164167 0.244823 0.983250 0.168221
H49   H     H_    0.375554 0.305946 0.913052 0.249750
H50   H     H_    0.455105 0.463020 0.875796 0.147675
H51   H     H_    0.438219 0.479159 0.969897 0.121021
H52   H     H_    0.394272 0.576820 0.907149 0.180656
H53   H     H_    0.607314 0.495645 0.101667 0.256042
H54   H     H_    0.541693 0.659569 0.057511 0.177514
H55   H     H_    0.554680 0.560177 0.982848 0.115371
H56   H     H_    0.178978 0.065493 0.918735 0.137237
H57   H     H_    0.609558 0.695017 0.994545 0.161254
H58   H     H_    0.354906 0.337046 0.044324 0.135464
H59   H     H_    0.664467 0.546282 0.925963 0.137454
H60   H     H_    0.647698 0.891015 0.073254 0.138928
N1    N     N_2   0.878114 0.922125 0.912796 -0.496798
N2    N     N_2   0.152132 0.099759 0.055617 -0.480858
N3    N     N_2   0.357342 0.394397 0.910226 -0.476367
N4    N     N_2   0.631558 0.548999 0.063850 -0.483219
N5    N     N_1   0.418728 0.888769 0.872250 -0.304730
N6    N     N_1   0.449147 0.833490 0.076704 -0.338018
N7    N     N_1   0.923184 0.385406 0.874655 -0.312463
N8    N     N_1   0.960946 0.330072 0.078138 -0.338299
O1    O     O_R   0.787510 0.042610 0.670410 -0.511085
O2    O     O_R   0.454250 0.051070 0.169440 -0.500181
O3    O     O_R   0.045750 0.551070 0.830560 -0.507046
O4    O     O_R   0.954250 0.551070 0.169440 -0.500042
O5    O     O_R   0.681210 0.959150 0.825320 -0.513688
O6    O     O_R   0.318790 0.959150 0.174680 -0.488762
O7    O     O_R   0.181210 0.459150 0.825320 -0.495855
O8    O     O_R   0.818790 0.459150 0.174680 -0.496076
O9    O     O_3   0.667820 0.167810 0.749960 -0.277631
O10   O     O_3   0.332180 0.167810 0.250040 -0.272253
O11   O     O_3   0.167820 0.667810 0.749960 -0.274556
O12   O     O_R   0.212490 0.042610 0.329590 -0.522830
O13   O     O_3   0.832180 0.667810 0.250040 -0.253450
O14   O     O_R   0.765670 0.292090 0.675090 -0.519970
O15   O     O_R   0.234330 0.292090 0.324910 -0.523587
O16   O     O_R   0.265670 0.792090 0.675090 -0.501907
O17   O     O_R   0.734330 0.792090 0.324910 -0.505637
O18   O     O_R   0.670220 0.409020 0.668560 -0.523903
O19   O     O_R   0.329780 0.409020 0.331440 -0.530600
O20   O     O_R   0.170220 0.909020 0.668560 -0.531082
O21   O     O_R   0.829780 0.909020 0.331440 -0.520850
O22   O     O_R   0.556580 0.251590 0.674980 -0.501333
O23   O     O_R   0.287510 0.542610 0.670410 -0.523337
O24   O     O_R   0.443420 0.251590 0.325020 -0.503990
O25   O     O_R   0.056580 0.751590 0.674980 -0.499115
O26   O     O_R   0.943420 0.751590 0.325020 -0.494063
O27   O     O_R   0.545890 0.049670 0.670030 -0.529233
O28   O     O_R   0.454110 0.049670 0.329970 -0.532094
O29   O     O_R   0.045890 0.549670 0.670030 -0.521520
O30   O     O_R   0.954110 0.549670 0.329970 -0.528224
O31   O     O_R   0.681340 0.957860 0.676500 -0.506559
O32   O     O_R   0.318660 0.957860 0.323500 -0.504331
O33   O     O_R   0.181340 0.457860 0.676500 -0.498743
O34   O     O_R   0.712490 0.542610 0.329590 -0.527559
O35   O     O_R   0.818660 0.457860 0.323500 -0.509645
O36   O     O_R   0.787380 0.044010 0.830940 -0.479890
O37   O     O_R   0.212620 0.044010 0.169060 -0.497401
O38   O     O_R   0.287380 0.544010 0.830940 -0.484661
O39   O     O_R   0.712620 0.544010 0.169060 -0.497714
O40   O     O_R   0.765540 0.293390 0.823910 -0.486307
O41   O     O_R   0.234460 0.293390 0.176090 -0.481197
O42   O     O_R   0.265540 0.793390 0.823910 -0.503470
O43   O     O_R   0.734460 0.793390 0.176090 -0.487913
O44   O     O_R   0.670090 0.410410 0.829090 -0.531315
O45   O     O_R   0.556450 0.252890 0.823790 -0.508823
O46   O     O_R   0.329910 0.410410 0.170910 -0.518575
O47   O     O_R   0.170090 0.910410 0.829090 -0.530808
O48   O     O_R   0.829910 0.910410 0.170910 -0.528236
O49   O     O_R   0.443550 0.252890 0.176210 -0.506501
O50   O     O_R   0.056450 0.752890 0.823790 -0.509190
O51   O     O_R   0.943550 0.752890 0.176210 -0.509102
O52   O     O_R   0.545750 0.051070 0.830560 -0.502051

loop_
_geom_bond_atom_site_label_1
_geom_bond_atom_site_label_2
_ccdc_geom_bond_type
C58   C62   A    
C41   C89   S    
C59   H56   S    
C14   H22   S    
C92   O51   A    
Cr3   O3    S    
C20   C25   A    
C10   C38   S    
C55   C59   A    
C43   O17   A    
C80   O1    A    
C57   C79   A    
Cr7   O34   S    
Cr1   O9    S    
Cr11  O13   S    
C1    O14   A    
C80   O31   A    
C76   H16   S    
C92   O4    A    
C31   C80   S    
C82   O33   A    
C6    H52   S    
C45   C46   A    
C51   O29   A    
Cr12  O27   S    
C15   C19   A    
C54   H11   S    
C61   H59   S    
C62   C67   A    
C98   H18   S    
C2    H19   S    
C87   H10   S    
Cr1   O14   S    
C87   H17   S    
C13   C35   A    
C37   C40   A    
C67   H60   S    
C8    C36   S    
C38   C39   A    
C55   C77   A    
C31   C98   A    
Cr2   O10   S    
C106  C107  A    
C69   H3    S    
C60   H58   S    
C54   H14   S    
C7    H54   S    
C77   C94   S    
C100  C104  A    
C56   C78   A    
C7    H57   S    
C25   H29   S    
Cr3   O33   S    
C5    H48   S    
C89   O45   A    
C58   H45   S    
C21   O15   A    
H49   N3    S    
Cr8   O22   S    
C94   O37   A    
Cr3   O11   S    
C83   O34   A    
C3    C100  A    
Cr5   O12   S    
C74   H8    S    
C12   C16   A    
H53   N4    S    
Cr1   O1    S    
C90   O2    A    
Cr8   O45   S    
C70   C74   A    
C95   O7    A    
C41   C46   A    
C12   H20   S    
C69   C73   A    
C13   H21   S    
C4    N1    S    
C32   O20   A    
Cr2   O32   S    
Cr10  O25   S    
C67   C71   A    
C97   C102  A    
C68   C72   A    
Cr10  O20   S    
C83   O35   A    
Cr10  O50   S    
C101  C108  A    
Cr5   O15   S    
Cr9   O49   S    
C1    C22   S    
C94   O6    A    
Cr8   O44   S    
C25   C29   A    
C89   O52   A    
C36   C41   A    
C53   C75   A    
Cr4   O13   S    
C81   O12   A    
Cr5   O41   S    
Cr10  O11   S    
C61   C66   A    
C52   O26   A    
C104  C105  A    
Cr1   O40   S    
C38   C44   A    
C14   C98   A    
C39   C42   A    
C6    H51   S    
C101  C105  A    
C40   C45   A    
C88   O48   A    
C48   H39   S    
Cr11  O21   S    
Cr3   O29   S    
C27   C31   A    
C18   C23   A    
C86   O42   A    
C96   O39   A    
Cr2   O6    S    
C26   H30   S    
C85   O41   A    
C99   C103  A    
C24   H28   S    
C43   O21   A    
C68   H2    S    
C54   C65   S    
C35   C83   S    
Cr6   O16   S    
C73   H7    S    
C73   C78   A    
C62   C88   S    
C29   C34   A    
Cr2   O2    S    
C3    H34   S    
C60   C64   A    
C85   O46   A    
C72   H6    S    
C16   H25   S    
Cr6   O23   S    
C49   O22   A    
Cr2   O28   S    
C76   C104  S    
Cr7   O39   S    
C72   C77   A    
C2    C15   A    
Cr6   O38   S    
C53   N1    S    
C32   O16   A    
C49   C99   S    
C76   H9    S    
Cr5   O37   S    
C47   C48   A    
C87   C105  S    
C50   O28   A    
C78   C95   S    
C16   C20   A    
C86   O47   A    
C19   C32   S    
C70   H4    S    
C9    C37   S    
C10   N7    T    
C46   H37   S    
C4    H43   S    
C45   H36   S    
C5    H46   S    
C11   C39   S    
C1    O18   A    
C44   C91   S    
C76   C87   S    
C65   H15   S    
Cr1   O36   S    
Cr4   O4    S    
Cr12  O52   S    
C30   C35   A    
C2    C33   A    
C30   H35   S    
C4    H41   S    
C28   C33   A    
C9    N6    T    
C23   C27   A    
C74   C79   A    
Cr7   O17   S    
C63   C86   S    
C3    C108  A    
Cr4   O35   S    
C4    H42   S    
C50   O24   A    
Cr12  O9    S    
C65   C103  S    
C17   H26   S    
C12   C34   A    
C84   O40   A    
H40   N1    S    
C75   C93   S    
C29   H33   S    
C82   O23   A    
C6    H50   S    
Cr5   O10   S    
C99   C106  A    
C63   C68   A    
C36   C37   A    
C50   C97   S    
C27   H31   S    
C52   O30   A    
C90   O49   A    
C11   N8    T    
Cr7   O43   S    
C14   C18   A    
C54   C102  S    
Cr9   O24   S    
C93   O5    A    
C24   C28   A    
Cr12  O5    S    
C107  H12   S    
Cr9   O19   S    
Cr6   O42   S    
C53   C58   A    
C57   C61   A    
C56   N3    S    
C8    N5    T    
C51   C101  S    
C64   C69   A    
C49   O27   A    
C59   C63   A    
C17   C22   A    
C13   C17   A    
C6    N3    S    
Cr6   O11   S    
C108  H23   S    
C21   O19   A    
C28   H32   S    
C5    N2    S    
C7    H55   S    
C95   O38   A    
C79   C96   S    
C64   C85   S    
C23   H27   S    
C18   C43   S    
C71   C75   A    
Cr8   O9    S    
C81   O32   A    
Cr11  O51   S    
C66   C70   A    
C91   O3    A    
Cr9   O46   S    
Cr12  O31   S    
Cr4   O8    S    
Cr7   O13   S    
C106  H1    S    
C7    N4    S    
C55   N2    S    
C52   C100  S    
C19   C24   A    
C93   O36   A    
C42   C92   S    
C42   C47   A    
C5    H47   S    
C102  C103  A    
C84   O44   A    
Cr8   O18   S    
H44   N2    S    
C66   C84   S    
C15   H24   S    
C97   C107  A    
C56   C60   A    
Cr11  O48   S    
C96   O8    A    
C88   O43   A    
C20   C21   S    
Cr11  O26   S    
C22   C26   A    
Cr4   O30   S    
C51   O25   A    
C71   H5    S    
C34   C82   S    
C40   C90   S    
Cr10  O47   S    
C33   C81   S    
C47   H38   S    
C57   N4    S    
C65   H13   S    
Cr9   O10   S    
C44   C48   A    
Cr3   O7    S    
C26   C30   A    
C91   O50   A    
