data_mof_unit_16156.cif
_audit_creation_date              2012-12-11T14:21:14-0500
_audit_creation_method            fapswitch 2.2
_symmetry_space_group_name_H-M    P1
_symmetry_Int_Tables_number       1
_space_group_crystal_system       triclinic
_cell_length_a                    21.962067
_cell_length_b                    7.199524
_cell_length_c                    14.892692
_cell_angle_alpha                 89.999987
_cell_angle_beta                  107.175654
_cell_angle_gamma                 90.0
_cell_volume                      2249.76536215

loop_
_atom_site_label
_atom_site_type_symbol
_atom_type_description
_atom_site_fract_x
_atom_site_fract_y
_atom_site_fract_z
_atom_type_partial_charge
O1    O     O_R   0.584770 0.505770 0.002090 -0.539801
O2    O     O_R   0.415230 0.005770 0.997910 -0.539801
O3    O     O_R   0.467060 0.173340 0.861950 -0.532612
O4    O     O_R   0.532940 0.673340 0.138050 -0.532612
C1    C     C_R   0.454731 0.344359 0.825550 0.710944
C2    C     C_R   0.545269 0.844359 0.174450 0.710944
O5    O     O_R   0.587510 0.175890 0.993210 -0.544448
O6    O     O_R   0.412490 0.675890 0.006790 -0.544448
O7    O     O_R   0.536540 0.008150 0.130100 -0.536749
O8    O     O_R   0.463460 0.508150 0.869900 -0.536749
C3    C     C_R   0.611972 0.345050 0.993404 0.603516
C4    C     C_R   0.388028 0.845050 0.006596 0.603516
O9    O     O_3   0.483140 0.340040 0.044760 -0.371984
O10   O     O_3   0.516860 0.840040 0.955240 -0.371985
V1    V     V_3+5 0.503130 0.064190 0.991700 1.427388
V2    V     V_3+5 0.496870 0.564190 0.008300 1.427388
C5    C     C_2   0.214492 0.738566 0.000665 -0.077108
C6    C     C_2   0.785508 0.238566 0.999334 -0.077108
C7    C     C_2   0.175047 0.886972 0.974766 0.041768
C8    C     C_2   0.824952 0.386972 0.025234 0.041768
H1    H     H_    0.198486 0.617684 0.031029 0.101920
H2    H     H_    0.801513 0.117684 0.968970 0.101921
C9    C     C_2   0.279538 0.726911 0.989239 -0.157572
C10   C     C_2   0.720462 0.226911 0.010761 -0.157572
C11   C     C_2   0.324194 0.859059 0.021818 0.216433
C12   C     C_2   0.675806 0.359059 0.978182 0.216433
H3    H     H_    0.291306 0.602476 0.956596 0.095716
H4    H     H_    0.708694 0.102476 0.043403 0.095716
C13   C     C_R   0.926266 0.883184 0.723245 -0.031741
C14   C     C_R   0.073734 0.383183 0.276755 -0.031741
C15   C     C_R   0.570476 0.851111 0.277921 -0.168353
C16   C     C_R   0.429524 0.351111 0.722079 -0.168352
C17   C     C_R   0.932620 0.831351 0.565718 -0.176306
C18   C     C_R   0.067380 0.331343 0.434281 -0.176306
C19   C     C_R   0.963358 0.854867 0.661678 0.153260
C20   C     C_R   0.036641 0.354861 0.338321 0.153260
C21   C     C_R   0.859672 0.888325 0.688288 -0.255335
C22   C     C_R   0.140328 0.388328 0.311712 -0.255335
C23   C     C_R   0.827893 0.859636 0.591868 0.091887
C24   C     C_R   0.172107 0.359635 0.408132 0.091887
C25   C     C_R   0.865873 0.832544 0.530716 0.105953
C26   C     C_R   0.134126 0.332539 0.469283 0.105953
C27   C     C_R   0.759849 0.854819 0.554173 0.031459
C28   C     C_R   0.240151 0.354820 0.445827 0.031459
C29   C     C_R   0.731581 0.845063 0.455448 0.093930
C30   C     C_R   0.268418 0.345061 0.544552 0.093930
C31   C     C_R   0.771112 0.804778 0.398517 -0.182833
C32   C     C_R   0.228888 0.304773 0.601483 -0.182832
C33   C     C_R   0.836970 0.801107 0.435243 -0.204307
C34   C     C_R   0.163029 0.301100 0.564757 -0.204308
C35   C     C_R   0.719379 0.849773 0.611829 -0.193437
C36   C     C_R   0.280620 0.349776 0.388171 -0.193436
C37   C     C_R   0.653296 0.826231 0.574962 0.155913
C38   C     C_R   0.346704 0.326235 0.425038 0.155912
C39   C     C_R   0.624606 0.823171 0.475519 -0.018105
C40   C     C_R   0.375393 0.323173 0.524480 -0.018106
C41   C     C_R   0.663988 0.857675 0.416484 -0.026803
C42   C     C_R   0.336012 0.357675 0.583516 -0.026803
C43   C     C_R   0.558376 0.787740 0.433167 0.369600
C44   C     C_R   0.441624 0.287744 0.566832 0.369602
C45   C     C_R   0.532303 0.792617 0.334221 0.222805
C46   C     C_R   0.467697 0.292620 0.665778 0.222804
C47   C     C_R   0.634422 0.902204 0.320292 0.058715
C48   C     C_R   0.365578 0.402202 0.679708 0.058716
H5    H     H_    0.865461 0.772393 0.388514 0.122022
H6    H     H_    0.134539 0.272383 0.611485 0.122022
H7    H     H_    0.961071 0.809330 0.518198 0.124780
H8    H     H_    0.038929 0.309319 0.481802 0.124780
H9    H     H_    0.834164 0.915614 0.738609 0.108010
H10   H     H_    0.165836 0.415621 0.261392 0.108011
H11   H     H_    0.751343 0.769641 0.325098 0.144375
H12   H     H_    0.248657 0.269634 0.674901 0.144375
H13   H     H_    0.738618 0.850563 0.687180 0.130143
H14   H     H_    0.261382 0.350567 0.312820 0.130143
O11   O     O_R   0.036450 0.233070 0.130130 -0.534522
O12   O     O_R   0.963550 0.733070 0.869870 -0.534522
O13   O     O_R   0.912470 0.560570 0.006790 -0.535186
O14   O     O_R   0.087530 0.060570 0.993210 -0.535185
C49   C     C_R   0.887983 0.391851 0.006919 0.689232
C50   C     C_R   0.112017 0.891851 0.993081 0.689231
O15   O     O_R   0.032920 0.562940 0.138050 -0.539613
O16   O     O_R   0.967080 0.062940 0.861950 -0.539613
O17   O     O_R   0.084790 0.730500 0.002090 -0.547966
O18   O     O_R   0.915210 0.230500 0.997910 -0.547966
C51   C     C_R   0.045105 0.394220 0.174672 0.695253
C52   C     C_R   0.954895 0.894220 0.825328 0.695253
O19   O     O_3   0.016820 0.396170 0.955260 -0.375826
O20   O     O_3   0.983180 0.896170 0.044740 -0.375826
V3    V     V_3+5 0.996880 0.672090 0.008300 1.425695
V4    V     V_3+5 0.003120 0.172090 0.991700 1.425695
C53   C     C_3   0.035174 0.847610 0.694898 -0.794370
H15   H     H_    0.055089 0.867569 0.771808 0.187784
H16   H     H_    0.051588 0.710596 0.676777 0.212839
H17   H     H_    0.054782 0.958335 0.659465 0.205396
C54   C     C_3   0.964825 0.347600 0.305101 -0.794370
H18   H     H_    0.944910 0.367565 0.228192 0.187784
H19   H     H_    0.948413 0.210583 0.323220 0.212839
H20   H     H_    0.945217 0.458321 0.340536 0.205397
O21   O     O_3   0.520413 0.739582 0.488974 -0.643770
H21   H     H_    0.474889 0.736354 0.451981 0.339881
O22   O     O_3   0.479587 0.239587 0.511025 -0.643770
H22   H     H_    0.525111 0.236358 0.548019 0.339882
C55   C     C_3   0.190292 0.048679 0.919617 -0.671277
H23   H     H_    0.148137 0.080396 0.858856 0.167929
H24   H     H_    0.201866 0.173710 0.965140 0.225175
H25   H     H_    0.229996 0.019543 0.889898 0.208245
C56   C     C_3   0.809708 0.548679 0.080383 -0.671277
H26   H     H_    0.851863 0.580396 0.141144 0.167929
H27   H     H_    0.798133 0.673710 0.034860 0.225175
H28   H     H_    0.770004 0.519543 0.110102 0.208244
O23   O     O_3   0.310094 0.007201 0.071585 -0.637727
H29   H     H_    0.349073 0.082709 0.097370 0.290215
O24   O     O_3   0.689905 0.507202 0.928415 -0.637727
H30   H     H_    0.650927 0.582710 0.902630 0.290215
C57   C     C_3   0.667116 0.024239 0.265118 -0.745035
H31   H     H_    0.712077 0.086275 0.309700 0.210879
H32   H     H_    0.676343 0.944627 0.206597 0.185368
H33   H     H_    0.636400 0.145223 0.235702 0.220291
C58   C     C_3   0.332883 0.524234 0.734883 -0.745036
H34   H     H_    0.287922 0.586269 0.690301 0.210879
H35   H     H_    0.323656 0.444619 0.793403 0.185368
H36   H     H_    0.363599 0.645218 0.764300 0.220290
O25   O     O_3   0.468936 0.743202 0.295621 -0.656579
H37   H     H_    0.452730 0.786701 0.229883 0.280086
O26   O     O_3   0.531064 0.243206 0.704379 -0.656579
H38   H     H_    0.547270 0.286703 0.770117 0.280086
C59   C     C_3   0.615788 0.810644 0.645216 -0.622566
H39   H     H_    0.594786 0.669685 0.642249 0.239053
H40   H     H_    0.645965 0.832029 0.718773 0.176081
H41   H     H_    0.578103 0.918756 0.631037 0.251990
C60   C     C_3   0.384211 0.310649 0.354784 -0.622564
H42   H     H_    0.405214 0.169691 0.357750 0.239052
H43   H     H_    0.354034 0.332035 0.281227 0.176081
H44   H     H_    0.421897 0.418761 0.368963 0.251992

loop_
_geom_bond_atom_site_label_1
_geom_bond_atom_site_label_2
_ccdc_geom_bond_type
C22   H10   S    
O22   H22   S    
C39   C43   A    
C43   O21   S    
C15   C45   A    
O23   H29   S    
C18   C26   A    
C60   H44   S    
O2    C4    A    
C2    O7    A    
C54   H20   S    
O25   H37   S    
C23   C25   A    
O14   V4    S    
O5    C3    A    
C38   C60   S    
O13   V3    S    
C5    C9    S    
C48   C58   S    
C33   H5    S    
C6    C10   S    
C10   C12   D    
C21   H9    S    
C49   O18   A    
C17   C19   A    
O14   C50   A    
C57   H31   S    
C14   C22   A    
C44   C46   A    
C29   C31   A    
C37   C59   S    
O11   V4    S    
C35   H13   S    
C7    C55   S    
O11   C51   A    
C54   H18   S    
C36   C38   A    
C57   H32   S    
O1    C3    A    
C56   H26   S    
C9    H3    S    
C18   C20   A    
O12   V3    S    
C1    C16   S    
C47   C57   S    
C28   C36   A    
C32   C34   A    
C2    C15   S    
O6    V2    S    
C30   C42   A    
C56   H27   S    
O18   V4    S    
C32   H12   S    
C50   O17   A    
C25   C33   A    
C28   C30   A    
C41   C47   A    
C30   C32   A    
C37   C39   A    
C42   C48   A    
O17   V3    S    
C38   C40   A    
C43   C45   A    
C15   C47   A    
C16   C48   A    
O4    C2    A    
C18   H8    S    
C53   H15   S    
C23   C27   A    
O5    V1    S    
C3    C12   S    
O3    C1    A    
O16   C52   A    
C5    H1    S    
C40   C44   A    
C35   C37   A    
O4    V2    S    
C59   H40   S    
C53   H16   S    
C27   C29   A    
O21   H21   S    
O6    C4    A    
C57   H33   S    
C29   C41   A    
O13   C49   A    
C55   H24   S    
O1    V2    S    
C14   C51   S    
O2    V1    S    
C34   H6    S    
C31   H11   S    
C13   C52   S    
C58   H35   S    
C26   C34   A    
C39   C41   A    
O26   H38   S    
C56   H28   S    
O19   V4    S    
C44   O22   S    
O12   C52   A    
O3    V1    S    
C17   H7    S    
O24   H30   S    
C58   H36   S    
C8    C49   S    
C6    H2    S    
C10   H4    S    
C60   H43   S    
C46   O26   S    
C58   H34   S    
C54   H19   S    
C31   C33   A    
C13   C19   A    
C36   H14   S    
O16   V4    S    
C14   C20   A    
C4    C11   S    
C45   O25   S    
C17   C25   A    
C8    C56   S    
O7    V1    S    
C59   H41   S    
O15   V3    S    
C1    O8    A    
C21   C23   A    
O8    V2    S    
C60   H42   S    
C53   H17   S    
C22   C24   A    
C20   C54   S    
C27   C35   A    
C24   C26   A    
C5    C7    D    
C40   C42   A    
C55   H25   S    
C6    C8    D    
C9    C11   D    
C7    C50   S    
C12   O24   S    
C11   O23   S    
C16   C46   A    
C24   C28   A    
O20   V3    S    
O9    V2    S    
C13   C21   A    
C55   H23   S    
O10   V1    S    
O15   C51   A    
C59   H39   S    
C19   C53   S    
