data_mof_unit_24774.cif
_audit_creation_date              2012-12-10T17:57:50-0500
_audit_creation_method            fapswitch 2.2
_symmetry_space_group_name_H-M    P1
_symmetry_Int_Tables_number       1
_space_group_crystal_system       triclinic
_cell_length_a                    10.864488
_cell_length_b                    9.518343
_cell_length_c                    15.058558
_cell_angle_alpha                 90.260257
_cell_angle_beta                  90.01324
_cell_angle_gamma                 90.050782
_cell_volume                      1557.2177252

loop_
_atom_site_label
_atom_site_type_symbol
_atom_type_description
_atom_site_fract_x
_atom_site_fract_y
_atom_site_fract_z
_atom_type_partial_charge
C1    C     C_R   0.262227 0.500058 0.499875 0.976463
C2    C     C_R   0.737773 0.499941 0.500125 0.976463
C3    C     C_R   0.275657 0.466097 0.044274 0.302616
C4    C     C_R   0.724343 0.533903 0.955726 0.302616
C5    C     C_R   0.063980 0.396702 0.451126 0.335004
C6    C     C_R   0.936019 0.603298 0.548874 0.335004
C7    C     C_R   0.935865 0.395668 0.451912 0.353622
C8    C     C_R   0.064134 0.604332 0.548088 0.353622
C9    C     C_R   0.871614 0.499587 0.500345 -0.328544
C10   C     C_R   0.128386 0.500413 0.499654 -0.328544
C11   C     C_R   0.434242 0.073830 0.438137 0.055226
C12   C     C_R   0.565758 0.926170 0.561862 0.055226
C13   C     C_R   0.566043 0.074948 0.561734 0.043872
C14   C     C_R   0.433957 0.925052 0.438266 0.043873
C15   C     C_R   0.499393 0.499972 0.329088 0.928638
C16   C     C_R   0.500606 0.500028 0.670912 0.928638
C17   C     C_R   0.613874 0.496217 0.812820 0.194629
C18   C     C_R   0.386125 0.503783 0.187180 0.194629
C19   C     C_R   0.501258 0.499464 0.767288 -0.203961
C20   C     C_R   0.498742 0.500536 0.232711 -0.203961
C21   C     C_R   0.389120 0.494374 0.812673 0.312678
C22   C     C_R   0.610880 0.505626 0.187327 0.312678
C23   C     C_R   0.388797 0.489778 0.905722 -0.006370
C24   C     C_R   0.611203 0.510222 0.094278 -0.006370
C25   C     C_R   0.501030 0.500277 0.952972 -0.032224
C26   C     C_R   0.498970 0.499723 0.047028 -0.032224
C27   C     C_R   0.615013 0.510353 0.906363 -0.012275
C28   C     C_R   0.384987 0.489647 0.093637 -0.012275
C29   C     C_R   0.278494 0.471014 0.952204 -0.129245
C30   C     C_R   0.721506 0.528986 0.047796 -0.129245
Cu1   Cu    Cu3+1 0.500000 0.640660 0.500000 1.072400
Cu2   Cu    Cu3+1 0.500000 0.359340 0.500000 1.072399
H1    H     H_    0.192703 0.454192 0.917302 0.243234
H2    H     H_    0.807297 0.545808 0.082698 0.243234
H3    H     H_    0.382023 0.129307 0.388319 0.179332
H4    H     H_    0.617977 0.870693 0.611681 0.179332
H5    H     H_    0.619184 0.131367 0.611104 0.160322
H6    H     H_    0.380815 0.868633 0.388896 0.160322
N1    N     N_R   0.500000 0.852070 0.500000 -0.187132
N2    N     N_R   0.500000 0.147930 0.500000 -0.187132
O1    O     O_R   0.319640 0.618740 0.499990 -0.550578
O2    O     O_R   0.680360 0.381260 0.500010 -0.550579
O3    O     O_R   0.680360 0.618740 0.500010 -0.549904
O4    O     O_R   0.319640 0.381260 0.499990 -0.549905
O5    O     O_R   0.499970 0.618800 0.370260 -0.580663
O6    O     O_R   0.500030 0.381200 0.629740 -0.580663
O7    O     O_R   0.500030 0.618800 0.629740 -0.566274
O8    O     O_R   0.499970 0.381200 0.370260 -0.566274
Br1   Br    Br    0.756896 0.437449 0.745456 -0.371243
Br2   Br    Br    0.243103 0.562551 0.254544 -0.371243
Cl1   Cl    Cl    0.250047 0.484258 0.751098 -0.517695
Cl2   Cl    Cl    0.749953 0.515742 0.248901 -0.517695
Br3   Br    Br    0.122040 0.398892 0.092098 -0.277660
Br4   Br    Br    0.877960 0.601108 0.907902 -0.277660
Cl3   Cl    Cl    0.141417 0.270560 0.384416 -0.452969
Cl4   Cl    Cl    0.858583 0.729440 0.615584 -0.452969
Cl5   Cl    Cl    0.858336 0.264649 0.388795 -0.391300
Cl6   Cl    Cl    0.141664 0.735351 0.611205 -0.391300

loop_
_geom_bond_atom_site_label_1
_geom_bond_atom_site_label_2
_ccdc_geom_bond_type
C5    C7    A    
C14   H6    S    
Cu2   O8    S    
C1    O4    A    
C13   H5    S    
Cu1   Cu2   S    
C2    O3    A    
C2    O2    A    
C30   H2    S    
C8    Cl6   S    
C7    C9    A    
C6    C9    A    
Cu2   N2    S    
Cu2   O4    S    
C5    C10   A    
C25   C26   A    
Cu1   O7    S    
C6    Cl4   S    
C3    Br3   S    
C15   C20   S    
Cu1   O3    S    
C15   O8    A    
C12   N1    A    
C16   C19   S    
C5    Cl3   S    
C23   C29   A    
C16   O7    A    
C1    O1    A    
C3    C28   A    
C19   C21   A    
C20   C22   A    
C22   Cl2   S    
C18   C20   A    
C23   C25   A    
C21   C23   A    
C11   N2    A    
C11   C14   A    
C22   C24   A    
C24   C30   A    
C12   H4    S    
Cu2   O6    S    
C15   O5    A    
C16   O6    A    
C17   C27   A    
C29   H1    S    
C21   Cl1   S    
C4    C27   A    
C18   C28   A    
C12   C13   A    
C18   Br2   S    
C8    C10   A    
Cu1   O5    S    
C17   Br1   S    
C3    C29   A    
Cu2   O2    S    
C17   C19   A    
C13   N2    A    
C6    C8    A    
Cu1   O1    S    
C4    Br4   S    
C14   N1    A    
C2    C9    S    
C26   C28   A    
C11   H3    S    
C7    Cl5   S    
C4    C30   A    
C1    C10   S    
C24   C26   A    
Cu1   N1    S    
C25   C27   A    
