data_mof_unit_35538.cif
_audit_creation_date              2012-12-11T17:00:16-0500
_audit_creation_method            fapswitch 2.2
_symmetry_space_group_name_H-M    P1
_symmetry_Int_Tables_number       1
_space_group_crystal_system       triclinic
_cell_length_a                    6.960631
_cell_length_b                    13.557973
_cell_length_c                    20.268135
_cell_angle_alpha                 103.049257
_cell_angle_beta                  89.974666
_cell_angle_gamma                 90.498697
_cell_volume                      1863.27839887

loop_
_atom_site_label
_atom_site_type_symbol
_atom_type_description
_atom_site_fract_x
_atom_site_fract_y
_atom_site_fract_z
_atom_type_partial_charge
O1    O     O_R   0.506770 0.599700 0.449550 -0.538971
O2    O     O_R   0.179980 0.595740 0.587960 -0.545520
O3    O     O_R   0.004580 0.400300 0.550450 -0.537156
C1    C     C_R   0.348312 0.617697 0.615082 0.693766
O4    O     O_R   0.177380 0.611700 0.452380 -0.541464
O5    O     O_R   0.001970 0.416370 0.413900 -0.542217
C2    C     C_R   0.346469 0.637846 0.435318 0.693123
O6    O     O_R   0.509390 0.583630 0.586100 -0.537723
O7    O     O_3   0.337530 0.435890 0.487530 -0.369913
V1    V     V_3+5 0.064660 0.511890 0.502310 1.408587
O8    O     O_R   0.671950 0.404260 0.412040 -0.541223
C3    C     C_R   0.840470 0.383372 0.384579 0.693175
O9    O     O_R   0.674540 0.388300 0.547620 -0.540199
C4    C     C_R   0.842865 0.361832 0.564427 0.698312
V2    V     V_3+5 0.564030 0.488110 0.497690 1.413576
O10   O     O_3   0.841030 0.564110 0.512470 -0.371779
C5    C     C_R   0.866009 0.109440 0.610657 -0.159370
H1    H     H_    0.859422 0.159224 0.517452 0.103679
H2    H     H_    0.880043 0.983867 0.693519 0.117926
H3    H     H_    0.872701 0.030313 0.584774 0.112322
C6    C     C_R   0.850312 0.284772 0.604350 -0.031454
C7    C     C_R   0.851751 0.317702 0.931180 -0.169018
C8    C     C_R   0.842320 0.394085 0.895780 -0.126582
C9    C     C_R   0.843561 0.370732 0.825200 -0.156188
C10   C     C_R   0.854108 0.269009 0.787850 0.076806
C11   C     C_R   0.862803 0.190973 0.824587 0.071311
C12   C     C_R   0.855820 0.242061 0.715446 0.071630
C13   C     C_R   0.864927 0.138062 0.681704 0.144104
C14   C     C_R   0.872930 0.063228 0.718918 -0.207572
C15   C     C_R   0.872104 0.089079 0.789148 -0.196899
C16   C     C_R   0.849005 0.314550 0.675068 -0.213508
C17   C     C_R   0.858511 0.182443 0.572230 -0.176319
C18   C     C_R   0.861849 0.216485 0.896335 -0.075665
H4    H     H_    0.842756 0.394724 0.696673 0.090216
H5    H     H_    0.835612 0.434230 0.801634 0.105575
H6    H     H_    0.833947 0.472288 0.923284 0.115551
H7    H     H_    0.878622 0.028094 0.815509 0.108766
C19   C     C_R   0.706804 0.184546 0.226290 0.117609
C20   C     C_R   0.865667 0.184903 0.183905 -0.111237
C21   C     C_R   0.021836 0.248318 0.210198 -0.188959
H8    H     H_    0.145023 0.253020 0.178657 0.136113
C22   C     C_R   0.015000 0.311473 0.275707 -0.179168
H9    H     H_    0.133545 0.362867 0.292825 0.129789
C23   C     C_R   0.851295 0.313470 0.316856 -0.109640
C24   C     C_R   0.700068 0.247160 0.291290 0.103703
C25   C     C_3   0.495213 0.272775 0.283591 -0.416359
C26   C     C_3   0.502877 0.206240 0.212804 -0.413551
H10   H     H_    0.475433 0.354311 0.284255 0.164932
H11   H     H_    0.400096 0.242006 0.318345 0.175298
H12   H     H_    0.489362 0.249218 0.172344 0.165707
H13   H     H_    0.408561 0.138592 0.206510 0.169726
C27   C     C_R   0.499615 0.678876 0.730078 0.101802
C28   C     C_R   0.351689 0.683679 0.684254 -0.110214
C29   C     C_R   0.196346 0.748198 0.708181 -0.176139
H14   H     H_    0.077745 0.753858 0.674879 0.128831
C30   C     C_R   0.197931 0.811012 0.773862 -0.172105
H15   H     H_    0.081519 0.863455 0.789007 0.125606
C31   C     C_R   0.355140 0.811433 0.817543 -0.109283
C32   C     C_R   0.501810 0.741596 0.794891 0.099582
C33   C     C_3   0.713213 0.758763 0.792304 -0.399404
C34   C     C_3   0.710646 0.690227 0.721780 -0.406172
H16   H     H_    0.792393 0.726171 0.829881 0.170795
H17   H     H_    0.749160 0.838864 0.792559 0.166509
H18   H     H_    0.787828 0.617857 0.718612 0.165676
H19   H     H_    0.745322 0.730427 0.681111 0.168449
C35   C     C_R   0.382123 0.889279 0.388204 -0.160640
H20   H     H_    0.378411 0.840083 0.481611 0.103382
H21   H     H_    0.396862 0.014287 0.305049 0.124278
H22   H     H_    0.394655 0.968395 0.413857 0.113593
C36   C     C_R   0.356569 0.714402 0.395048 -0.031587
C37   C     C_R   0.342620 0.680911 0.067793 -0.169434
C38   C     C_R   0.333898 0.602716 0.102808 0.199015
C39   C     C_R   0.338462 0.627551 0.173861 -0.225820
C40   C     C_R   0.352835 0.729233 0.211165 0.056907
C41   C     C_R   0.362170 0.807096 0.174463 0.067296
C42   C     C_R   0.358923 0.756352 0.283657 0.086407
C43   C     C_R   0.375180 0.860344 0.317219 0.140432
C44   C     C_R   0.384420 0.934931 0.279869 -0.210071
C45   C     C_R   0.377737 0.908769 0.209748 -0.180548
C46   C     C_R   0.349553 0.684245 0.324348 -0.214800
C47   C     C_R   0.372939 0.816640 0.426871 -0.176772
C48   C     C_R   0.356298 0.782036 0.102877 -0.121907
H23   H     H_    0.336564 0.604125 0.303089 0.088976
H24   H     H_    0.339168 0.664478 0.013033 0.111267
H25   H     H_    0.331259 0.564993 0.198426 0.104579
H26   H     H_    0.385253 0.969118 0.183081 0.113349
O11   O     O_R   0.203450 0.916320 0.913910 -0.541803
O12   O     O_R   0.535520 0.888300 0.047620 -0.538895
O13   O     O_R   0.710860 0.083650 0.086100 -0.538148
C49   C     C_R   0.366244 0.860544 0.063469 0.698326
O14   O     O_R   0.532860 0.904250 0.912040 -0.542571
O15   O     O_R   0.708190 0.099710 0.949550 -0.537503
C50   C     C_R   0.364324 0.882629 0.884800 0.695719
O16   O     O_R   0.206120 0.900260 0.050460 -0.536503
O17   O     O_3   0.375280 0.064080 0.012470 -0.371730
V3    V     V_3+5 0.648180 0.988110 0.997690 1.413807
O18   O     O_R   0.038220 0.111740 0.952370 -0.541269
C51   C     C_R   0.869784 0.138632 0.935963 0.685677
O19   O     O_R   0.040880 0.095790 0.087940 -0.545073
C52   C     C_R   0.872399 0.118218 0.114911 0.694414
V4    V     V_3+5 0.148800 0.011950 0.002300 1.407800
O20   O     O_3   0.871820 0.935920 0.987530 -0.370144
C53   C     C_3   0.319569 0.491341 0.067525 -0.367360
C54   C     C_3   0.321632 0.467991 0.990071 -0.751435
H27   H     H_    0.196647 0.503216 0.970618 0.223329
H28   H     H_    0.457556 0.495545 0.971479 0.223707
H29   H     H_    0.311794 0.384790 0.970051 0.230396
H30   H     H_    0.441734 0.450851 0.084496 0.174036
H31   H     H_    0.184666 0.459511 0.083940 0.174423
H32   H     H_    0.850749 0.337557 0.986065 0.105319

loop_
_geom_bond_atom_site_label_1
_geom_bond_atom_site_label_2
_ccdc_geom_bond_type
O12   V3    S    
V4    O20   S    
V3    O20   S    
C1    C28   S    
C39   C40   A    
C29   H14   S    
O17   V3    S    
C1    O6    A    
C2    C36   S    
C54   H28   S    
O18   C51   A    
O15   C51   A    
C43   C44   A    
C23   C24   A    
C6    C16   A    
C25   H11   S    
C40   C42   A    
C33   H17   S    
C4    C6    S    
C13   C14   A    
C31   C50   S    
C27   C34   S    
O5    C3    A    
C19   C20   A    
C35   H22   S    
V2    O10   S    
O15   V3    S    
C5    H3    S    
C30   H15   S    
C33   H16   S    
C18   C51   S    
C7    C18   A    
C36   C47   A    
C19   C24   A    
O14   V3    S    
O11   V4    S    
O8    V2    S    
O16   V4    S    
C7    H32   S    
C8    C9    A    
C53   H30   S    
O1    V2    S    
O7    V1    S    
C37   C48   A    
C21   C22   A    
C32   C33   S    
O9    C4    A    
C22   C23   A    
C46   H23   S    
C54   H27   S    
C49   O16   A    
C26   H12   S    
C25   H10   S    
H21   C44   S    
C6    C17   A    
C29   C30   A    
C9    H5    S    
C40   C41   A    
O13   C52   A    
C12   C16   A    
C9    C10   A    
C20   C21   A    
O4    C2    A    
C44   C45   A    
C26   H13   S    
C10   C11   A    
C28   C29   A    
C36   C46   A    
C15   H7    S    
C33   C34   S    
C34   H18   S    
O2    C1    A    
C14   C15   A    
C27   C32   A    
C34   H19   S    
O14   C50   A    
C11   C18   A    
O19   C52   A    
C16   H4    S    
C42   C43   A    
C39   H25   S    
C19   C26   S    
O3    C4    A    
C21   H8    S    
O19   V4    S    
O12   C49   A    
C11   C15   A    
O6    V2    S    
O9    V2    S    
H1    C17   S    
C22   H9    S    
O2    V1    S    
C12   C13   A    
C27   C28   A    
C37   H24   S    
C35   C43   A    
C25   C26   S    
O1    C2    A    
C5    C13   A    
C42   C46   A    
C38   C39   A    
O5    V1    S    
O8    C3    A    
C41   C48   A    
H20   C47   S    
C38   C53   S    
C10   C12   A    
C48   C49   S    
C53   H31   S    
O13   V3    S    
C31   C32   A    
O4    V1    S    
C3    C23   S    
O3    V1    S    
V1    O10   S    
C35   C47   A    
C20   C52   S    
O11   C50   A    
C30   C31   A    
C45   H26   S    
O7    V2    S    
C24   C25   S    
C37   C38   A    
C8    H6    S    
C53   C54   S    
C5    C17   A    
C7    C8    A    
C41   C45   A    
C54   H29   S    
O18   V4    S    
O17   V4    S    
H2    C14   S    
