data_mof_unit_67037.cif
_audit_creation_date              2013-03-05T15:58:15-0500
_audit_creation_method            fapswitch 2.2
_symmetry_space_group_name_H-M    P1
_symmetry_Int_Tables_number       1
_space_group_crystal_system       triclinic
_cell_length_a                    8.206761
_cell_length_b                    12.7673
_cell_length_c                    14.270706
_cell_angle_alpha                 92.971387
_cell_angle_beta                  90.761262
_cell_angle_gamma                 98.339017
_cell_volume                      1477.13304515

loop_
_atom_site_label
_atom_site_type_symbol
_atom_site_description
_atom_site_fract_x
_atom_site_fract_y
_atom_site_fract_z
_atom_type_partial_charge
P1    P     P_3+3 0.054400 0.427280 0.286870 0.458043
O1    O     O_2   0.887370 0.460630 0.272300 -0.381443
O2    O     O_3   0.129410 0.451380 0.388510 -0.406514
O3    O     O_3   0.670210 0.653170 0.329170 -0.384606
O4    O     O_2   0.787049 0.592259 0.165312 -0.389107
O5    O     O_3   0.024988 0.291781 0.254582 -0.554817
O6    O     O_3   0.717022 0.785320 0.175916 -0.484888
H1    H     H_    0.754440 0.881245 0.297070 0.144880
C1    C     C_3   0.620587 0.952125 0.192397 -0.806680
H2    H     H_    0.592144 0.014227 0.244474 0.222356
H3    H     H_    0.727940 0.984175 0.150911 0.297668
P2    P     P_3+3 0.668300 0.742890 0.573060 0.482790
P3    P     P_3+3 0.132402 0.841721 0.374514 0.438599
O7    O     O_2   0.845380 0.761330 0.544970 -0.372456
O8    O     O_3   0.088930 0.704860 0.376040 -0.383238
O9    O     O_2   0.000226 0.887185 0.433307 -0.416551
O10   O     O_3   0.679152 0.765557 0.695429 -0.536811
O11   O     O_3   0.099121 0.879515 0.260513 -0.513768
C2    C     C_3   0.150013 0.803824 0.196684 0.350287
H4    H     H_    0.069986 0.726203 0.200523 0.157475
H5    H     H_    0.280214 0.794034 0.210480 0.023790
C3    C     C_3   0.135749 0.840457 0.097694 -0.703272
H6    H     H_    0.005404 0.846780 0.080429 0.304521
H7    H     H_    0.211153 0.919158 0.091944 0.269842
C4    C     C_3   0.221253 0.763897 0.662639 0.211669
H8    H     H_    0.332813 0.738753 0.631393 0.052076
H9    H     H_    0.118803 0.751874 0.610188 0.132441
C5    C     C_3   0.255952 0.880663 0.694674 -0.081409
H10   H     H_    0.381550 0.896490 0.727047 0.136202
H11   H     H_    0.251829 0.930463 0.633550 0.125857
Ba1   Ba    Ba6+2 0.855630 0.555280 0.454520 1.577073
C6    C     C_3   0.971041 0.232269 0.330049 0.356068
H12   H     H_    0.839055 0.237306 0.338985 0.083630
H13   H     H_    0.043173 0.258885 0.395537 0.118506
C7    C     C_3   0.992173 0.117727 0.306146 -0.867303
H14   H     H_    0.933206 0.091168 0.237072 0.275970
H15   H     H_    0.934996 0.065690 0.360050 0.210991
H16   H     H_    0.125145 0.110791 0.302315 0.269977
C8    C     C_3   0.698900 0.672391 0.739366 0.293099
H17   H     H_    0.827181 0.656962 0.731086 0.094174
H18   H     H_    0.613160 0.602857 0.710153 0.087072
C9    C     C_3   0.659817 0.686109 0.843354 -0.129917
H19   H     H_    0.646921 0.608319 0.875644 0.065078
H20   H     H_    0.540067 0.716658 0.850037 0.133146
P4    P     P_3+3 0.135310 0.572810 0.713130 0.485905
O12   O     O_2   0.302330 0.539400 0.727760 -0.387730
O13   O     O_3   0.060300 0.548700 0.611500 -0.401712
O14   O     O_3   0.519500 0.346920 0.670840 -0.292769
O15   O     O_3   0.179657 0.707718 0.741925 -0.517052
P5    P     P_3+3 0.064243 0.156375 0.618218 0.536993
O16   O     O_3   0.614310 0.373510 0.452640 -0.393743
O17   O     O_3   0.100780 0.295230 0.623970 -0.395498
O18   O     O_2   0.218257 0.115677 0.577083 -0.352494
O19   O     O_3   0.058080 0.115040 0.733688 -0.482311
Ba2   Ba    Ba6+2 0.334200 0.444810 0.545490 1.598604
P6    P     P_3+3 0.656047 0.655275 0.207475 0.472279
C10   C     C_3   0.658072 0.855787 0.241948 0.356381
H21   H     H_    0.543226 0.821475 0.276279 0.036252
H22   H     H_    0.513105 0.928924 0.143968 0.271686
O20   O     O_3   0.575400 0.626570 0.547370 -0.406679
C11   C     C_3   0.473775 0.322082 0.259958 0.383305
H23   H     H_    0.362142 0.347321 0.291358 0.101586
H24   H     H_    0.580771 0.385040 0.274084 0.123074
C12   C     C_3   0.446937 0.305712 0.154296 -0.857184
H25   H     H_    0.336480 0.245976 0.137976 0.291835
H26   H     H_    0.428847 0.380860 0.123170 0.192202
H27   H     H_    0.556724 0.278431 0.122269 0.291138
P7    P     P_3+3 0.524943 0.242805 0.417940 0.437125
O21   O     O_2   0.344320 0.238700 0.455090 -0.367210
O22   O     O_3   0.503645 0.226355 0.295705 -0.573137
H28   H     H_    0.180161 0.782846 0.046734 0.227206
C13   C     C_3   0.079285 0.204009 0.797369 0.439232
H29   H     H_    0.196484 0.255082 0.785346 0.174703
H30   H     H_    0.978669 0.252128 0.790442 0.070286
C14   C     C_3   0.080402 0.167974 0.897229 -0.789747
H31   H     H_    0.185834 0.124384 0.908407 0.303824
H32   H     H_    0.092237 0.237985 0.947747 0.206668
H33   H     H_    0.964151 0.115063 0.910350 0.271307
P8    P     P_3+3 0.534068 0.354021 0.795091 0.494552
C15   C     C_3   0.601826 0.168705 0.833980 0.637084
H34   H     H_    0.715890 0.212850 0.867416 -0.022104
O23   O     O_2   0.404894 0.419929 0.834458 -0.436044
O24   O     O_3   0.470614 0.228419 0.838456 -0.563483
H35   H     H_    0.655014 0.015186 0.873572 0.149342
C16   C     C_3   0.561386 0.068351 0.887775 -0.159772
H36   H     H_    0.440248 0.025980 0.863504 0.178071
C17   C     C_R   0.983362 0.450720 0.062091 -0.098615
C18   C     C_R   0.180701 0.502748 0.197305 0.266074
C19   C     C_R   0.335092 0.555028 0.227673 -0.535918
C20   C     C_R   0.448342 0.600861 0.164310 0.255540
C21   C     C_R   0.404331 0.603498 0.069822 -0.306039
C22   C     C_R   0.248061 0.555613 0.036526 0.029616
C23   C     C_R   0.135750 0.501950 0.099465 -0.018825
H37   H     H_    0.371337 0.554756 0.300828 0.177255
C24   C     C_R   0.053834 0.506873 0.903142 0.025443
C25   C     C_R   0.939990 0.456108 0.966630 0.061511
C26   C     C_R   0.009221 0.503462 0.805094 0.250669
C27   C     C_R   0.853902 0.453362 0.775358 -0.485760
C28   C     C_R   0.738786 0.412799 0.839290 0.230363
C29   C     C_R   0.781280 0.412677 0.934304 -0.305481
C30   C     C_R   0.205827 0.558821 0.940442 -0.060587
H38   H     H_    0.492905 0.641934 0.022381 0.165728
H39   H     H_    0.690917 0.377390 0.982483 0.164781
H40   H     H_    0.818754 0.450651 0.701802 0.181247
H41   H     H_    0.895509 0.407001 0.106564 0.176216
H42   H     H_    0.293231 0.601823 0.895347 0.153981
C31   C     C_R   0.783515 0.172018 0.510228 -0.382653
C32   C     C_R   0.426030 0.814331 0.464073 -0.534415
C33   C     C_R   0.405938 0.993722 0.424712 -0.219156
C34   C     C_R   0.338697 0.887421 0.424447 0.225757
C35   C     C_R   0.577323 0.846558 0.510409 0.269605
C36   C     C_R   0.648209 0.956087 0.511570 -0.045812
C37   C     C_R   0.560565 0.029980 0.467396 -0.022249
C38   C     C_R   0.628195 0.138869 0.469637 0.267393
C39   C     C_R   0.872454 0.101392 0.551929 0.265745
C40   C     C_R   0.802384 0.994925 0.555603 -0.114922
H43   H     H_    0.335566 0.046984 0.391401 0.173750
H44   H     H_    0.869730 0.944168 0.593263 0.204268
H45   H     H_    0.833417 0.255427 0.513082 0.152082
H46   H     H_    0.372123 0.731710 0.462228 0.178777
N1    N     N_R   0.135431 0.905928 0.763828 0.315335
O25   O     O_R   0.980578 0.896192 0.739920 -0.328819
O26   O     O_R   0.176167 0.916503 0.852517 -0.337882
N2    N     N_R   0.789253 0.758486 0.893676 0.301006
O27   O     O_R   0.934901 0.731562 0.904344 -0.365386
O28   O     O_R   0.754858 0.844367 0.937157 -0.351102
N3    N     N_R   0.632752 0.141750 0.736636 0.206362
O29   O     O_R   0.736230 0.208660 0.694349 -0.478465
O30   O     O_R   0.522093 0.078904 0.686747 -0.428280
N4    N     N_R   0.559605 0.094761 0.988271 0.262172
O31   O     O_R   0.422999 0.077129 0.033738 -0.400862
O32   O     O_R   0.695622 0.133612 0.033328 -0.431916

loop_
_geom_bond_atom_site_label_1
_geom_bond_atom_site_label_2
_geom_bond_distance
_ccdc_geom_bond_type
C11   O22   1.400808 S    
O14   Ba2   2.790205 S    
O5    C6    1.390358 S    
C32   H46   1.081920 S    
O4    P6    1.543726 D    
C35   C36   1.433730 A    
O7    Ba1   2.882505 S    
C26   C27   1.391041 A    
C20   C21   1.394660 A    
C33   H43   1.077985 S    
C8    H18   1.108909 S    
P4    O12   1.508495 D    
C4    C5    1.521600 S    
P3    C34   1.831066 S    
P3    O11   1.749857 S    
O14   P8    1.772323 S    
P8    C28   1.827758 S    
C5    H10   1.110846 S    
C7    H15   1.107014 S    
O11   C2    1.404969 S    
N2    O28   1.300326 A    
C15   O24   1.407039 S    
H1    C10   1.110093 S    
C39   C40   1.400916 A    
C17   C23   1.408951 A    
P1    Ba1   3.395179 S    
P1    O1    1.508131 D    
O10   C8    1.401716 S    
C19   H37   1.082034 S    
C11   H24   1.109749 S    
O2    Ba2   2.794737 S    
C24   C25   1.421816 A    
C40   H44   1.070678 S    
P7    O21   1.575548 D    
O12   Ba2   2.841954 S    
P5    O17   1.752016 S    
C1    H2    1.110248 S    
O16   Ba2   2.903742 S    
C21   C22   1.403765 A    
O17   Ba2   2.790811 S    
C33   C37   1.405521 A    
P1    C18   1.873400 S    
P6    C20   1.830831 S    
Ba1   O13   2.794171 S    
Ba2   O20   2.822033 S    
O3    P6    1.740873 S    
C9    H20   1.112139 S    
O6    P6    1.747117 S    
C13   C14   1.520335 S    
C31   H45   1.082571 S    
C36   C37   1.432218 A    
C8    C9    1.528972 S    
P4    O13   1.565948 S    
P5    O18   1.546212 D    
C12   H27   1.107912 S    
C9    N2    1.457459 S    
P1    O5    1.748308 S    
C6    C7    1.519362 S    
C2    C3    1.519216 S    
H35   C16   1.110573 S    
C13   H30   1.104673 S    
C8    H17   1.105503 S    
C5    N1    1.463474 S    
C13   H29   1.101724 S    
C4    H8    1.105156 S    
C16   H36   1.102894 S    
C29   H39   1.083699 S    
C6    H12   1.103036 S    
O1    Ba1   2.841440 S    
C1    H22   1.109169 S    
C7    H14   1.107201 S    
C6    H13   1.110555 S    
Ba1   O20   2.904521 S    
P2    O10   1.754199 S    
C11   C12   1.520209 S    
N4    O32   1.301069 A    
C14   H31   1.108620 S    
N3    O30   1.299096 A    
C31   C38   1.392102 A    
C15   C16   1.525296 S    
C16   N4    1.456891 S    
C1    H3    1.108399 S    
C28   C29   1.395698 A    
C17   H41   1.079969 S    
P4    O15   1.734597 S    
C17   C25   1.411102 A    
C7    H16   1.109422 S    
P5    O19   1.755290 S    
O2    Ba1   2.913172 S    
C14   H32   1.110989 S    
C31   C39   1.391032 A    
N1    O25   1.298135 A    
Ba2   O21   2.882723 S    
C22   C30   1.413950 A    
P2    O7    1.501363 D    
P3    O8    1.733288 S    
P2    Ba1   3.417555 S    
C3    H7    1.108536 S    
C9    H19   1.108229 S    
C21   H38   1.082412 S    
N3    O29   1.292958 A    
C3    H28   1.109982 S    
C36   C40   1.416415 A    
O13   Ba2   2.913932 S    
C37   C38   1.418763 A    
C30   H42   1.079242 S    
C18   C23   1.438562 A    
C2    H5    1.109877 S    
Ba1   O16   2.822697 S    
C15   H34   1.108527 S    
P8    O23   1.540476 D    
C24   C26   1.438460 A    
O8    Ba1   2.790227 S    
C15   N3    1.448369 S    
C4    H9    1.106652 S    
C32   C35   1.396407 A    
Ba1   Ba2   4.556424 S    
C12   H25   1.110441 S    
C2    H4    1.110967 S    
C5    H11   1.108709 S    
N4    O31   1.299922 A    
P4    C26   1.862222 S    
C33   C34   1.388757 A    
P5    C39   1.853687 S    
P8    O24   1.759234 S    
C10   H21   1.111319 S    
C27   H40   1.082388 S    
C25   C29   1.401710 A    
C22   C23   1.424181 A    
C32   C34   1.393632 A    
C1    C10   1.517106 S    
O16   P7    1.765651 S    
C11   H23   1.107025 S    
C14   H33   1.110185 S    
C4    O15   1.390884 S    
N1    O26   1.299936 A    
O3    Ba1   2.790798 S    
P2    O20   1.590245 S    
O19   C13   1.406369 S    
C18   C19   1.396019 A    
P4    Ba2   3.395632 S    
P7    O22   1.749515 S    
C27   C28   1.386746 A    
P3    O9    1.540728 D    
P7    C38   1.853155 S    
C3    H6    1.109785 S    
P1    O2    1.566066 S    
C19   C20   1.394029 A    
O6    C10   1.407811 S    
P2    C35   1.870889 S    
C24   C30   1.408890 A    
C12   H26   1.106168 S    
N2    O27   1.299935 A    
