data_mof_unit_60643.cif
_audit_creation_date              2013-03-05T16:23:49-0500
_audit_creation_method            fapswitch 2.2
_symmetry_space_group_name_H-M    P1
_symmetry_Int_Tables_number       1
_space_group_crystal_system       triclinic
_cell_length_a                    30.541129
_cell_length_b                    31.83764
_cell_length_c                    21.638769
_cell_angle_alpha                 90.249796
_cell_angle_beta                  134.742697
_cell_angle_gamma                 89.768082
_cell_volume                      14944.4714164

loop_
_atom_site_label
_atom_site_type_symbol
_atom_site_description
_atom_site_fract_x
_atom_site_fract_y
_atom_site_fract_z
_atom_type_partial_charge
O1    O     O_R   0.448310 0.000000 0.356640 -0.587895
O2    O     O_R   0.948310 0.500000 0.356640 -0.609632
O3    O     O_R   0.551720 0.000000 0.460130 -0.576975
O4    O     O_R   0.051720 0.500000 0.460130 -0.585500
C1    C     C_R   0.500152 0.000111 0.380454 0.941214
C2    C     C_R   0.000333 0.499839 0.380607 0.918440
O5    O     O_R   0.448310 0.938390 0.448250 -0.582346
O6    O     O_R   0.448310 0.061610 0.448250 -0.597401
O7    O     O_R   0.948310 0.438390 0.448250 -0.594640
O8    O     O_R   0.948310 0.561610 0.448250 -0.579757
O9    O     O_R   0.551720 0.938410 0.551740 -0.600824
O10   O     O_R   0.551720 0.061590 0.551740 -0.612113
O11   O     O_R   0.051720 0.438410 0.551740 -0.609283
O12   O     O_R   0.051720 0.561590 0.551740 -0.602983
C3    C     C_R   0.500053 0.918803 0.500094 0.926914
C4    C     C_R   0.499993 0.081188 0.499719 0.878816
C5    C     C_R   0.000060 0.418792 0.499928 0.899565
C6    C     C_R   0.999969 0.581182 0.499791 0.921744
Zn1   Zn    Zn3+2 0.430960 0.000000 0.430900 1.127740
Zn2   Zn    Zn3+2 0.930960 0.500000 0.430900 1.111495
Zn3   Zn    Zn3+2 0.569060 0.000000 0.569100 1.078697
Zn4   Zn    Zn3+2 0.069060 0.500000 0.569100 1.078307
O13   O     O_R   0.448310 0.000000 0.539870 -0.592655
O14   O     O_R   0.948310 0.500000 0.539870 -0.592718
O15   O     O_R   0.551720 0.000000 0.643360 -0.616574
O16   O     O_R   0.051720 0.500000 0.643360 -0.618116
C7    C     C_R   0.499755 0.999913 0.619829 0.891498
C8    C     C_R   0.999748 0.499967 0.619877 0.891706
C9    C     C_3   0.484028 0.735914 0.429045 0.237167
C10   C     C_3   0.493129 0.264191 0.434251 0.242572
C11   C     C_3   0.994219 0.235559 0.435252 0.228683
C12   C     C_3   0.992534 0.763754 0.433342 0.228264
C13   C     C_3   0.540446 0.763769 0.500752 -0.203134
C14   C     C_3   0.546768 0.235808 0.509731 -0.219811
C15   C     C_3   0.047109 0.263613 0.512615 -0.207628
C16   C     C_3   0.045771 0.735909 0.510666 -0.221216
H1    H     H_    0.575307 0.775362 0.502025 0.207154
H2    H     H_    0.585328 0.223921 0.519094 0.197920
H3    H     H_    0.087120 0.275122 0.525342 0.205428
H4    H     H_    0.085505 0.724117 0.522751 0.203026
C17   C     C_1   0.500033 0.874359 0.500517 -0.042037
C18   C     C_1   0.499964 0.125613 0.498760 -0.114977
C19   C     C_1   0.000084 0.374324 0.499362 -0.081319
C20   C     C_1   0.999743 0.625597 0.499055 -0.037211
C21   C     C_1   0.498971 0.625674 0.499511 -0.015679
C22   C     C_1   0.500739 0.374308 0.500407 -0.046021
C23   C     C_1   0.999453 0.125643 0.499598 -0.021252
C24   C     C_1   0.998853 0.874285 0.498368 -0.035164
C25   C     C_3   0.442185 0.764111 0.427658 -0.128291
C26   C     C_3   0.446154 0.236331 0.421682 -0.131821
C27   C     C_3   0.946099 0.263869 0.419604 -0.127053
C28   C     C_3   0.944867 0.735736 0.418843 -0.139112
C29   C     C_3   0.498245 0.791442 0.499445 0.006585
C30   C     C_3   0.499361 0.208511 0.497117 0.023965
C31   C     C_3   0.998561 0.291369 0.496956 0.017284
C32   C     C_3   0.997686 0.708469 0.496131 0.003842
C33   C     C_3   0.455988 0.736621 0.498127 -0.155776
C34   C     C_3   0.453105 0.263650 0.487073 -0.153624
C35   C     C_3   0.950055 0.236647 0.482067 -0.145347
C36   C     C_3   0.949345 0.763477 0.481624 -0.151005
C37   C     C_3   0.497675 0.708611 0.499378 -0.036609
C38   C     C_3   0.499903 0.291356 0.499498 -0.036005
C39   C     C_3   0.998018 0.208547 0.497577 -0.037894
C40   C     C_3   0.996858 0.791312 0.495991 -0.025233
C41   C     C_3   0.512053 0.764496 0.570621 -0.210381
C42   C     C_3   0.506229 0.235314 0.563059 -0.219898
C43   C     C_3   0.002411 0.264655 0.559975 -0.220494
C44   C     C_3   0.002062 0.735664 0.559468 -0.201194
C45   C     C_3   0.553511 0.736150 0.570900 0.293517
C46   C     C_3   0.552907 0.263314 0.574627 0.292040
C47   C     C_3   0.050274 0.236247 0.574566 0.289570
C48   C     C_3   0.049461 0.763777 0.572943 0.295503
C49   C     C_1   0.499501 0.836866 0.500399 0.127064
C50   C     C_1   0.499846 0.163095 0.497906 0.101439
C51   C     C_1   0.999659 0.336816 0.498414 0.104119
C52   C     C_1   0.999057 0.663072 0.497903 0.109221
C53   C     C_1   0.498401 0.663158 0.499469 0.143162
C54   C     C_1   0.500672 0.336815 0.500327 0.122802
C55   C     C_1   0.998858 0.163115 0.498751 0.123088
C56   C     C_1   0.997881 0.836788 0.497144 0.137637
H5    H     H_    0.523756 0.776688 0.628939 0.211006
H6    H     H_    0.511815 0.223022 0.616224 0.194029
H7    H     H_    0.006001 0.277007 0.611465 0.194377
H8    H     H_    0.006198 0.723680 0.611511 0.209624
C57   C     C_R   0.480065 0.033459 0.262394 -0.013640
C58   C     C_R   0.991840 0.536373 0.275080 -0.036318
C59   C     C_R   0.500531 0.999005 0.315680 -0.075303
C60   C     C_R   0.002101 0.499348 0.317136 -0.092550
C61   C     C_R   0.522344 0.963501 0.304948 0.235724
C62   C     C_R   0.020735 0.463127 0.303239 0.259495
C63   C     C_R   0.522367 0.963897 0.240332 -0.140743
C64   C     C_R   0.020953 0.463724 0.238991 -0.184957
H9    H     H_    0.538174 0.936305 0.231195 0.216986
H10   H     H_    0.033429 0.435401 0.226415 0.201196
C65   C     C_R   0.502262 0.999883 0.188371 -0.079487
C66   C     C_R   0.002741 0.500241 0.189255 -0.075559
C67   C     C_R   0.482600 0.034390 0.202904 0.038277
C68   C     C_R   0.991044 0.536743 0.211550 0.097377
C69   C     C_3   0.456855 0.078229 0.172796 -0.268472
C70   C     C_3   0.947452 0.573844 0.165356 -0.291610
C71   C     C_3   0.453627 0.077003 0.242359 -0.275086
C72   C     C_3   0.949489 0.573543 0.239986 -0.296587
C73   C     C_R   0.453806 0.979402 0.672436 0.085843
C74   C     C_R   0.950996 0.517331 0.670096 0.080095
C75   C     C_R   0.498603 0.001626 0.684546 -0.089919
C76   C     C_R   0.998565 0.497869 0.684622 -0.093973
C77   C     C_R   0.539776 0.027742 0.757431 -0.165408
C78   C     C_R   0.042791 0.474071 0.760274 -0.163321
H11   H     H_    0.572532 0.047164 0.765406 0.169049
H12   H     H_    0.077934 0.456591 0.770447 0.172635
C79   C     C_R   0.539786 0.027754 0.821750 -0.163642
C80   C     C_R   0.042766 0.474029 0.824579 -0.169412
H13   H     H_    0.572704 0.047098 0.879216 0.158413
H14   H     H_    0.077989 0.456646 0.884163 0.154585
C81   C     C_R   0.499874 0.000755 0.813824 -0.048385
C82   C     C_R   0.999638 0.498711 0.813712 -0.045357
C83   C     C_R   0.454683 0.978815 0.736704 0.062929
C84   C     C_R   0.951706 0.517858 0.734202 0.055574
C85   C     C_3   0.435384 0.933919 0.720940 -0.475748
C86   C     C_3   0.926521 0.561415 0.713311 -0.473018
C87   C     C_3   0.434537 0.934289 0.649706 0.436981
C88   C     C_3   0.925755 0.561108 0.642148 0.443573
H15   H     H_    0.389103 0.930536 0.696383 0.237266
H16   H     H_    0.471700 0.913496 0.777254 0.229747
H17   H     H_    0.959970 0.583896 0.767143 0.231045
H18   H     H_    0.879972 0.561980 0.688514 0.241328
O17   O     O_R   0.408300 0.500000 0.356580 -0.616420
O18   O     O_R   0.908300 0.000000 0.356580 -0.615643
O19   O     O_R   0.408400 0.500000 0.460120 -0.609483
O20   O     O_R   0.908400 0.000000 0.460120 -0.606796
C89   C     C_R   0.380061 0.501323 0.380360 0.937131
C90   C     C_R   0.880153 0.998965 0.380431 0.930605
O21   O     O_R   0.499900 0.561630 0.448170 -0.600355
O22   O     O_R   0.499900 0.438370 0.448170 -0.600263
O23   O     O_R   0.999900 0.061630 0.448170 -0.611838
O24   O     O_R   0.999900 0.938370 0.448170 -0.604437
O25   O     O_R   0.500000 0.561620 0.551710 -0.603672
O26   O     O_R   0.500000 0.438380 0.551710 -0.591998
O27   O     O_R   0.000000 0.061620 0.551710 -0.589125
O28   O     O_R   0.000000 0.938380 0.551710 -0.602321
C91   C     C_R   0.499548 0.581241 0.499680 0.958279
C92   C     C_R   0.500330 0.418752 0.500203 0.937553
C93   C     C_R   0.999916 0.081232 0.499997 0.950326
C94   C     C_R   0.999811 0.918741 0.499663 0.954462
Zn5   Zn    Zn3+2 0.499870 0.500000 0.430790 1.105660
Zn6   Zn    Zn3+2 0.999870 0.000000 0.430790 1.101480
Zn7   Zn    Zn3+2 0.500010 0.500000 0.569060 1.090609
Zn8   Zn    Zn3+2 0.000010 0.000000 0.569060 1.099546
O29   O     O_R   0.591480 0.500000 0.539730 -0.603685
O30   O     O_R   0.091480 0.000000 0.539730 -0.596434
O31   O     O_R   0.591580 0.500000 0.643270 -0.614781
O32   O     O_R   0.091580 0.000000 0.643270 -0.617237
C95   C     C_R   0.619647 0.499448 0.619417 0.914689
C96   C     C_R   0.119820 0.998665 0.619640 0.952740
O33   O     O_R   0.591630 0.965220 0.091680 -0.618975
O34   O     O_R   0.591630 0.034780 0.091680 -0.614608
O35   O     O_R   0.091630 0.465220 0.091680 -0.621698
O36   O     O_R   0.091630 0.534780 0.091680 -0.612128
C97   C     C_R   0.620113 0.999916 0.122717 0.905715
C98   C     C_R   0.120030 0.500046 0.122160 0.903527
O37   O     O_R   0.500040 0.965230 0.091630 -0.606080
O38   O     O_R   0.500040 0.034770 0.091630 -0.609801
O39   O     O_R   0.000040 0.465230 0.091630 -0.630315
O40   O     O_R   0.000040 0.534770 0.091630 -0.584578
C99   C     C_R   0.500727 0.000064 0.121018 0.984055
C100  C     C_R   0.999662 0.500098 0.120115 0.974454
Zn9   Zn    Zn3+2 0.500030 0.953570 0.000010 1.082200
Zn10  Zn    Zn3+2 0.500030 0.046430 0.000010 1.095021
Zn11  Zn    Zn3+2 0.000030 0.453570 0.000010 1.089451
Zn12  Zn    Zn3+2 0.000030 0.546430 0.000010 1.097115
O41   O     O_R   0.408450 0.965250 0.908360 -0.593237
O42   O     O_R   0.408450 0.034750 0.908360 -0.584229
O43   O     O_R   0.908450 0.465250 0.908360 -0.582166
O44   O     O_R   0.908450 0.534750 0.908360 -0.588037
O45   O     O_R   0.500040 0.965230 0.908410 -0.624905
O46   O     O_R   0.500040 0.034770 0.908410 -0.601871
O47   O     O_R   0.000040 0.465230 0.908410 -0.599351
O48   O     O_R   0.000040 0.534770 0.908410 -0.622195
C101  C     C_R   0.379932 0.000003 0.882234 0.972883
C102  C     C_R   0.879486 0.500344 0.880659 0.967411
C103  C     C_R   0.500743 0.999993 0.880448 0.893406
C104  C     C_R   0.000613 0.499838 0.880360 0.891675
C105  C     C_R   0.280859 0.477553 0.244975 0.057110
C106  C     C_R   0.781130 0.025793 0.250923 0.043678
C107  C     C_R   0.314447 0.503981 0.316190 -0.146761
C108  C     C_R   0.814743 0.996293 0.316354 -0.142801
C109  C     C_R   0.282386 0.530466 0.326772 -0.119330
C110  C     C_R   0.783055 0.966756 0.322317 -0.119908
C111  C     C_R   0.717584 0.968425 0.260163 -0.117741
C112  C     C_R   0.216903 0.528500 0.264201 -0.135833
C113  C     C_R   0.685719 0.999316 0.193234 -0.140134
C114  C     C_R   0.185431 0.500521 0.192357 -0.138857
C115  C     C_R   0.719641 0.027659 0.193053 0.101858
C116  C     C_R   0.219355 0.475526 0.186663 0.097366
C117  C     C_3   0.714641 0.064111 0.145169 -0.512195
C118  C     C_3   0.213733 0.444377 0.129719 -0.542874
C119  C     C_3   0.285116 0.445865 0.197895 -0.166202
C120  C     C_3   0.786007 0.062632 0.213229 -0.165980
H19   H     H_    0.695292 0.092291 0.149566 0.227013
H20   H     H_    0.690879 0.055433 0.077789 0.216521
H21   H     H_    0.189859 0.457906 0.065171 0.214822
H22   H     H_    0.194174 0.414125 0.126659 0.226860
C121  C     C_R   0.717968 0.465301 0.705957 -0.052657
C122  C     C_R   0.219320 0.023306 0.683422 -0.016797
C123  C     C_R   0.684905 0.501630 0.685133 -0.121198
C124  C     C_R   0.185444 0.995927 0.685637 -0.113458
C125  C     C_R   0.715120 0.537796 0.737398 -0.108772
C126  C     C_R   0.217123 0.968804 0.758410 -0.134238
C127  C     C_R   0.282311 0.970774 0.826456 0.211798
C128  C     C_R   0.779976 0.538256 0.803547 0.241456
C129  C     C_R   0.314354 0.999596 0.820244 -0.158852
C130  C     C_R   0.813165 0.501451 0.818185 -0.152563
C131  C     C_R   0.280785 0.026032 0.749166 -0.031388
C132  C     C_R   0.780637 0.464899 0.771859 0.025278
C133  C     C_3   0.285962 0.061013 0.708757 0.388180
C134  C     C_3   0.786648 0.431829 0.728258 0.384443
C135  C     C_3   0.715155 0.433088 0.652164 -0.306198
C136  C     C_3   0.214061 0.058288 0.632073 -0.279394
C137  C     C_2   0.388976 0.077690 0.205175 0.947172
O49   O     O_2   0.364347 0.045340 0.198329 -0.573546
O50   O     O_R   0.357063 0.115794 0.177226 -0.695680
H23   H     H_    0.314313 0.112506 0.153013 0.358640
C138  C     C_2   0.496561 0.106826 0.319018 0.908867
O51   O     O_2   0.483736 0.144195 0.309555 -0.513267
O52   O     O_R   0.550669 0.091921 0.400228 -0.797284
H24   H     H_    0.574981 0.114988 0.445671 0.351707
C139  C     C_2   0.889426 0.562110 0.212754 0.969928
O53   O     O_2   0.866797 0.585883 0.228652 -0.552411
O54   O     O_R   0.860024 0.524097 0.169708 -0.764609
H25   H     H_    0.820729 0.520031 0.155264 0.362593
C140  C     C_2   0.981680 0.610940 0.301917 0.948144
O55   O     O_2   0.032312 0.606875 0.376445 -0.623097
O56   O     O_R   0.952484 0.650125 0.273447 -0.687033
H26   H     H_    0.977821 0.672503 0.320318 0.358810
Br1   Br    Br    0.352901 0.927788 0.533241 -0.335524
Br2   Br    Br    0.495288 0.896930 0.672791 -0.460633
Br3   Br    Br    0.981271 0.602016 0.660625 -0.453255
Br4   Br    Br    0.843547 0.562730 0.525233 -0.336167
C141  C     C_2   0.316659 0.560083 0.401530 1.002530
O57   O     O_2   0.355864 0.583191 0.418503 -0.603341
O58   O     O_R   0.304120 0.561443 0.452427 -0.763754
H27   H     H_    0.330297 0.582916 0.501072 0.359158
C142  C     C_2   0.817873 0.934696 0.392555 0.996629
O59   O     O_2   0.858011 0.913902 0.407002 -0.605776
O60   O     O_R   0.804920 0.928472 0.442272 -0.760659
H28   H     H_    0.831689 0.905838 0.487921 0.360187
C143  C     C_2   0.683203 0.938463 0.265594 1.011677
O61   O     O_2   0.644372 0.951536 0.263283 -0.627530
O62   O     O_R   0.695269 0.895398 0.273303 -0.759694
H29   H     H_    0.669020 0.878313 0.276593 0.363929
C144  C     C_2   0.181918 0.555491 0.273450 1.018817
O63   O     O_2   0.142069 0.540069 0.266631 -0.599870
O64   O     O_R   0.194507 0.598484 0.289729 -0.757352
H30   H     H_    0.168032 0.613378 0.295320 0.370708
C145  C     C_2   0.310916 0.464263 0.164463 0.957742
O65   O     O_2   0.289806 0.497015 0.122914 -0.590032
O66   O     O_R   0.359472 0.444133 0.181972 -0.746910
H31   H     H_    0.372872 0.459634 0.156736 0.360171
C146  C     C_2   0.314895 0.404949 0.246536 0.972090
O67   O     O_2   0.309547 0.373940 0.208105 -0.523361
O68   O     O_R   0.348002 0.402356 0.334698 -0.813279
H32   H     H_    0.365060 0.373169 0.358983 0.369670
C147  C     C_2   0.816181 0.100862 0.272180 0.944887
O69   O     O_2   0.846339 0.097687 0.349670 -0.623141
O70   O     O_R   0.809557 0.139980 0.237266 -0.716328
H33   H     H_    0.832097 0.163124 0.282692 0.382164
C148  C     C_2   0.811374 0.050542 0.175620 0.961116
O71   O     O_2   0.852705 0.071090 0.193094 -0.562239
O72   O     O_R   0.787740 0.015408 0.121194 -0.779757
H34   H     H_    0.808453 0.010342 0.100406 0.361988
C149  C     C_2   0.679347 0.575847 0.719199 0.990121
O73   O     O_2   0.643119 0.591210 0.646384 -0.619817
O74   O     O_R   0.687035 0.593941 0.785296 -0.744983
H35   H     H_    0.660036 0.619617 0.764827 0.377299
C150  C     C_2   0.182737 0.937618 0.761540 1.015070
O75   O     O_2   0.190876 0.935494 0.825435 -0.533041
O76   O     O_R   0.140279 0.911040 0.690452 -0.803734
H36   H     H_    0.119490 0.891267 0.699887 0.363987
Br5   Br    Br    0.464666 0.714963 0.327883 -0.343681
Br6   Br    Br    0.484532 0.285381 0.342339 -0.297783
Br7   Br    Br    0.989081 0.213968 0.346452 -0.332599
Br8   Br    Br    0.986444 0.784200 0.343309 -0.350778
Br9   Br    Br    0.326824 0.935003 0.927494 -0.333751
Br10  Br    Br    0.819776 0.591024 0.864097 -0.342081
Br11  Br    Br    0.334025 0.043807 0.684535 -0.402986
Br12  Br    Br    0.319540 0.111610 0.780478 -0.303696
Br13  Br    Br    0.822772 0.380847 0.798523 -0.309294
Br14  Br    Br    0.833410 0.450208 0.702347 -0.400407
C151  C     C_2   0.682479 0.393106 0.639119 0.992263
O77   O     O_2   0.652559 0.391974 0.657296 -0.607878
O78   O     O_R   0.686134 0.357501 0.604850 -0.693065
H37   H     H_    0.661658 0.332979 0.597339 0.372704
C152  C     C_2   0.690164 0.451008 0.567155 0.984562
O79   O     O_2   0.658441 0.429307 0.501389 -0.548312
O80   O     O_R   0.703318 0.492540 0.563849 -0.744899
H38   H     H_    0.684034 0.500783 0.503823 0.371752
C153  C     C_2   0.190530 0.043684 0.546268 0.979791
O81   O     O_2   0.187022 0.068688 0.500172 -0.515712
O82   O     O_R   0.174277 0.001654 0.520458 -0.752121
H39   H     H_    0.159782 0.996009 0.462269 0.364903
C154  C     C_2   0.178914 0.096179 0.621521 0.953461
O83   O     O_2   0.151665 0.094694 0.643900 -0.624516
O84   O     O_R   0.177913 0.133169 0.585941 -0.689947
H40   H     H_    0.152891 0.156249 0.581634 0.370560
Br15  Br    Br    0.634079 0.715440 0.674510 -0.370096
Br16  Br    Br    0.630026 0.282901 0.685848 -0.377086
Br17  Br    Br    0.125771 0.215766 0.686536 -0.365054
Br18  Br    Br    0.125220 0.784386 0.684559 -0.386028
C155  C     C_2   0.408813 0.722235 0.497138 1.000817
O85   O     O_2   0.379410 0.748244 0.497399 -0.563292
O86   O     O_R   0.398596 0.679369 0.495820 -0.759124
H41   H     H_    0.365540 0.673704 0.494985 0.366800
C156  C     C_2   0.401060 0.278048 0.475847 0.990490
O87   O     O_2   0.366625 0.252097 0.464620 -0.571456
O88   O     O_R   0.392413 0.320815 0.478981 -0.796177
H42   H     H_    0.355756 0.326480 0.470447 0.368363
C157  C     C_2   0.895725 0.222426 0.465309 0.974378
O89   O     O_2   0.861484 0.248536 0.454660 -0.573447
O90   O     O_R   0.884411 0.179600 0.461850 -0.767346
H43   H     H_    0.846243 0.174057 0.449648 0.372072
C158  C     C_2   0.895396 0.777878 0.465905 0.999763
O91   O     O_2   0.861682 0.751877 0.456321 -0.563642
O92   O     O_R   0.883863 0.820735 0.462285 -0.755479
H44   H     H_    0.846092 0.826386 0.451120 0.367248
C159  C     C_2   0.379303 0.779100 0.346606 1.021752
O93   O     O_2   0.338928 0.753479 0.295114 -0.551514
O94   O     O_R   0.367087 0.822082 0.330332 -0.766242
H45   H     H_    0.323049 0.828143 0.273682 0.371488
C160  C     C_2   0.385997 0.221897 0.335137 1.044421
O95   O     O_2   0.347695 0.247868 0.281162 -0.548568
O96   O     O_R   0.373937 0.179027 0.316594 -0.756548
H46   H     H_    0.331738 0.173368 0.256348 0.369100
C161  C     C_2   0.887381 0.278704 0.331917 1.016400
O97   O     O_2   0.849509 0.252999 0.276424 -0.571166
O98   O     O_R   0.876187 0.321650 0.314005 -0.767828
H47   H     H_    0.835061 0.327609 0.252710 0.368274
C162  C     C_2   0.885894 0.720581 0.331702 1.018588
O99   O     O_2   0.847916 0.746096 0.275854 -0.543235
O100  O     O_R   0.874552 0.677562 0.314742 -0.744714
H48   H     H_    0.833361 0.671378 0.253639 0.390541
Br19  Br    Br    0.549930 0.913762 0.373959 -0.430777
Br20  Br    Br    0.041375 0.411778 0.365149 -0.428729
C163  C     C_2   0.395286 0.079483 0.078225 0.956524
O101  O     O_2   0.366031 0.112322 0.047345 -0.494777
O102  O     O_R   0.371706 0.043378 0.026322 -0.789564
H49   H     H_    0.330467 0.048501 0.964643 0.362788
C164  C     C_2   0.502452 0.109574 0.191601 0.955085
O103  O     O_2   0.553026 0.098097 0.223185 -0.587871
O104  O     O_R   0.486473 0.152098 0.173516 -0.689963
H50   H     H_    0.520419 0.170117 0.189144 0.366170
C165  C     C_2   0.884508 0.564179 0.075353 0.991374
O105  O     O_2   0.875049 0.531417 0.037824 -0.621061
O106  O     O_R   0.836480 0.592948 0.036341 -0.695767
H51   H     H_    0.795896 0.582600 0.978474 0.389506
C166  C     C_2   0.976712 0.611751 0.163953 0.966754
O107  O     O_2   0.948310 0.644920 0.133369 -0.503925
O108  O     O_R   0.036033 0.609067 0.197805 -0.759830
H52   H     H_    0.050087 0.636490 0.192800 0.351593

loop_
_geom_bond_atom_site_label_1
_geom_bond_atom_site_label_2
_geom_bond_distance
_ccdc_geom_bond_type
C116  C118  1.491375 S    
C27   C161  1.499934 S    
O108  H52   1.013693 S    
C111  C143  1.486339 S    
C160  O96   1.396703 S    
O78   H37   1.013549 S    
C119  C146  1.512147 S    
C145  O66   1.398865 S    
C162  O99   1.221968 D    
C161  O97   1.221979 D    
C121  C123  1.383839 A    
C105  C119  1.499667 S    
Zn12  O48   2.015195 S    
C83   C85   1.492133 S    
C58   C60   1.385922 A    
C88   Br3   1.946751 S    
Zn8   O32   2.019252 S    
C106  C115  1.336902 A    
C23   C93   1.413971 S    
C24   C94   1.415555 S    
O29   C95   1.274924 A    
C46   Br16  1.935686 S    
O35   Zn11  2.021906 S    
C30   C50   1.446022 S    
O9    C3    1.283656 A    
O10   C4    1.283263 A    
O8    Zn2   1.997799 S    
C125  C128  1.407473 A    
C13   C45   1.546792 S    
C117  C120  1.549984 S    
O5    C3    1.283333 A    
C15   C47   1.546791 S    
O6    C4    1.283505 A    
O60   H28   1.013841 S    
O31   C95   1.274458 A    
C73   C83   1.372175 A    
C69   C164  1.520104 S    
C131  C133  1.494830 S    
C19   C51   1.194203 T    
C121  C135  1.504533 S    
O92   H44   1.013807 S    
C144  O63   1.222835 D    
C86   H17   1.111819 S    
Zn9   O41   2.020669 S    
C154  O83   1.223591 D    
C15   C31   1.542354 S    
Zn1   O13   2.020341 S    
C5    C19   1.415761 S    
O54   H25   1.013681 S    
C6    C20   1.414172 S    
C42   H6    1.110301 S    
O38   C99   1.270018 A    
C71   C137  1.519755 S    
C62   C64   1.395142 A    
O84   H40   1.014101 S    
C44   C48   1.547804 S    
O23   Zn6   1.996142 S    
C64   H10   1.083231 S    
C79   H13   1.083794 S    
C34   C156  1.499059 S    
O48   C104  1.270641 A    
O17   Zn5   2.019252 S    
O42   C101  1.269316 A    
C69   C71   1.576865 S    
C39   C47   1.534798 S    
C14   C30   1.542019 S    
O35   C98   1.269924 A    
C106  C120  1.497961 S    
C59   C61   1.408884 A    
O21   Zn5   1.996142 S    
C73   C87   1.498115 S    
C70   C72   1.571798 S    
Zn12  O44   2.021654 S    
C147  O70   1.397753 S    
C10   Br6   1.937701 S    
C118  C119  1.550426 S    
C146  O68   1.397706 S    
C65   C67   1.387071 A    
C33   C37   1.536047 S    
C85   H15   1.111401 S    
C9    Br5   1.937647 S    
C35   C39   1.535782 S    
C36   C40   1.536430 S    
C33   C155  1.499315 S    
C120  C148  1.514327 S    
C42   C46   1.547785 S    
O8    C6    1.282964 A    
C25   C29   1.535424 S    
C122  C131  1.340075 A    
C82   C84   1.389522 A    
C27   C31   1.535691 S    
C134  Br14  1.957895 S    
C84   C86   1.492095 S    
O19   Zn7   2.024753 S    
C57   C67   1.343365 A    
C48   Br18  1.936082 S    
O98   H47   1.013747 S    
C158  O91   1.221966 D    
C26   C160  1.499723 S    
C110  C142  1.487285 S    
O37   C99   1.268882 A    
C149  O73   1.222312 D    
C43   H7    1.110239 S    
O104  H50   1.013815 S    
C9    C13   1.548990 S    
O40   Zn12  2.018379 S    
C165  O105  1.223000 D    
C80   H14   1.083791 S    
C122  C124  1.382040 A    
C9    C25   1.541723 S    
C75   C77   1.401745 A    
C38   C46   1.535082 S    
O62   H29   1.013819 S    
O50   H23   1.013747 S    
C12   C16   1.549297 S    
C11   Br7   1.937595 S    
C120  C147  1.516087 S    
C132  C134  1.505302 S    
C107  C109  1.424622 A    
C74   C88   1.498297 S    
O34   Zn10  2.020924 S    
C64   C66   1.407912 A    
C105  C116  1.337217 A    
C25   C33   1.540316 S    
O66   H31   1.013811 S    
C111  C113  1.425543 A    
C28   C36   1.540521 S    
C35   C43   1.548340 S    
O27   C93   1.282224 A    
C125  C149  1.484622 S    
C37   C53   1.447172 S    
C66   C68   1.394753 A    
C61   C63   1.398817 A    
C29   C41   1.542769 S    
O56   H26   1.014065 S    
C146  O67   1.223062 D    
O45   C103  1.271149 A    
C31   C51   1.447135 S    
O23   C93   1.280743 A    
Zn6   O30   2.024753 S    
O76   H36   1.013861 S    
C153  O82   1.399096 S    
O41   C101  1.267613 A    
C58   C68   1.357810 A    
C136  C153  1.515470 S    
Zn11  O47   2.018376 S    
O52   H24   1.013808 S    
C161  O98   1.396750 S    
C117  H19   1.112337 S    
C155  O86   1.396908 S    
C9    C37   1.536601 S    
O27   Zn8   1.998998 S    
O6    Zn1   1.997799 S    
C10   C14   1.549821 S    
O33   C97   1.267613 A    
C12   C28   1.542260 S    
C12   C40   1.537395 S    
C141  O58   1.398125 S    
C67   C69   1.506190 S    
C133  C136  1.566353 S    
O33   Zn9   2.021906 S    
O36   Zn12  2.020924 S    
C32   C44   1.542265 S    
O9    Zn3   1.997135 S    
C133  Br11  1.950276 S    
C122  C136  1.502971 S    
C114  C116  1.376246 A    
Zn7   O31   2.019252 S    
C152  O79   1.223509 D    
O4    Zn4   2.020510 S    
C87   Br2   1.946601 S    
C151  O77   1.223665 D    
C73   C75   1.393769 A    
O37   Zn9   2.015198 S    
C69   C163  1.519171 S    
O38   Zn10  2.018379 S    
C89   C107  1.425897 S    
C166  O108  1.398980 S    
C128  C130  1.429166 A    
C163  O102  1.399323 S    
C95   C123  1.417539 S    
C58   C72   1.504239 S    
O44   C102  1.263866 A    
C80   C82   1.401764 A    
Zn9   O45   2.018376 S    
O47   C104  1.266373 A    
Zn10  O46   2.015195 S    
C166  O107  1.223149 D    
Zn3   O15   2.015104 S    
C139  O54   1.400016 S    
C77   C79   1.391578 A    
C38   C54   1.447399 S    
O14   C8    1.279144 A    
C11   C27   1.542155 S    
C148  O71   1.223484 D    
C138  O52   1.398810 S    
C30   C42   1.541978 S    
C127  Br9   1.936482 S    
O11   C5    1.283726 A    
O12   Zn4   1.996138 S    
O80   H38   1.013695 S    
O18   Zn6   2.019252 S    
C159  O94   1.396774 S    
C88   Br4   1.940210 S    
C76   C78   1.402812 A    
C112  C144  1.487391 S    
C78   H12   1.083411 S    
O24   Zn6   1.999359 S    
C17   C49   1.193814 T    
C1    C59   1.410055 S    
C61   Br19  1.919911 S    
Zn11  O43   2.020669 S    
C21   C53   1.193463 T    
C118  H21   1.112199 S    
C16   C48   1.546777 S    
C34   C38   1.536341 S    
O36   C98   1.266282 A    
O68   H32   1.012915 S    
C40   C56   1.448042 S    
C141  O57   1.222884 D    
C163  O101  1.223076 D    
C74   C76   1.394593 A    
O106  H51   1.013636 S    
C147  O69   1.223355 D    
C22   C92   1.415005 S    
C26   C30   1.535009 S    
O1    C1    1.274309 A    
C36   C158  1.499011 S    
C86   H18   1.111448 S    
C142  O59   1.222469 D    
C160  O95   1.222020 D    
C157  O90   1.396633 S    
C109  C112  1.422988 A    
C126  C127  1.417331 A    
C81   C83   1.390201 A    
C14   C46   1.547255 S    
C154  O84   1.398230 S    
C10   C26   1.542031 S    
O88   H42   1.013725 S    
O72   H34   1.013775 S    
C21   C91   1.414650 S    
C77   H11   1.083487 S    
C12   Br8   1.937457 S    
C65   C99   1.424846 S    
C135  C151  1.518746 S    
C162  O100  1.396772 S    
C74   C84   1.372038 A    
C143  O62   1.398164 S    
O46   C103  1.266792 A    
C18   C50   1.193510 T    
O1    Zn1   2.015351 S    
O2    Zn2   2.015351 S    
C44   H8    1.110319 S    
C97   C113  1.427947 S    
C62   Br20  1.920045 S    
O39   C100  1.271367 A    
C98   C114  1.423307 S    
C138  O51   1.223234 D    
O4    C2    1.273621 A    
O26   C92   1.281597 A    
C47   Br17  1.936137 S    
C164  O103  1.223865 D    
C22   C54   1.193690 T    
O43   C102  1.281209 A    
C155  O85   1.221959 D    
C13   H1    1.110111 S    
C78   C80   1.392017 A    
C26   C34   1.539998 S    
O20   C90   1.274441 A    
O82   H39   1.013730 S    
C113  C115  1.378745 A    
C16   C32   1.541641 S    
O22   C92   1.281902 A    
O7    Zn2   1.996804 S    
C41   H5    1.110288 S    
O100  H48   1.013696 S    
C140  O56   1.398320 S    
C136  C154  1.518752 S    
C3    C17   1.415079 S    
C130  C132  1.394015 A    
C68   C70   1.513570 S    
C10   C38   1.537460 S    
C72   C140  1.523414 S    
C11   C15   1.549526 S    
C108  C110  1.421908 A    
C137  O49   1.223353 D    
O22   Zn5   1.999359 S    
O25   C91   1.281488 A    
C112  C114  1.423147 A    
O16   C8    1.281471 A    
O25   Zn7   1.998998 S    
O28   C94   1.282230 A    
C33   C41   1.548842 S    
O3    C1    1.276777 A    
C70   C166  1.517670 S    
C109  C141  1.487418 S    
C165  O106  1.398481 S    
O21   C91   1.281818 A    
C128  Br10  1.942114 S    
O17   C89   1.278542 A    
O94   H45   1.013744 S    
O24   C94   1.281564 A    
C25   C159  1.499964 S    
C148  O72   1.399098 S    
C156  O87   1.221986 D    
O64   H30   1.013622 S    
C124  C126  1.421851 A    
C41   C45   1.548468 S    
C106  C108  1.377711 A    
O11   Zn4   1.997135 S    
C43   C47   1.548093 S    
C159  O93   1.222007 D    
O39   Zn11  2.015198 S    
C35   C157  1.499134 S    
C156  O88   1.396349 S    
O90   H43   1.013716 S    
Zn10  O42   2.021654 S    
C36   C44   1.548238 S    
Zn4   O16   2.015104 S    
C45   Br15  1.936253 S    
Zn5   O29   2.024753 S    
O86   H41   1.013814 S    
C32   C52   1.445667 S    
C153  O81   1.223093 D    
O12   C6    1.283576 A    
C121  C132  1.361783 A    
C15   H3    1.110117 S    
C23   C55   1.193090 T    
O96   H46   1.013623 S    
O28   Zn8   1.995788 S    
C2    C60   1.411985 S    
C39   C55   1.446598 S    
C85   H16   1.111828 S    
C150  O76   1.397515 S    
O58   H27   1.013871 S    
C105  C107  1.380273 A    
C144  O64   1.398203 S    
C63   H9    1.083164 S    
C7    C75   1.426203 S    
C101  C129  1.424286 S    
C102  C130  1.440948 S    
C134  Br13  1.951668 S    
C151  O78   1.398403 S    
C34   C42   1.547610 S    
C126  C150  1.484060 S    
C139  O53   1.223549 D    
C158  O92   1.396486 S    
O13   C7    1.278699 A    
O70   H33   1.014010 S    
C71   C138  1.518776 S    
O2    C2    1.278002 A    
C8    C76   1.428520 S    
O18   C90   1.277281 A    
C81   C103  1.423420 S    
C86   C88   1.523500 S    
C57   C59   1.383565 A    
C13   C29   1.542056 S    
C28   C162  1.500034 S    
O20   Zn8   2.024753 S    
Zn2   O14   2.020341 S    
C16   H4    1.110100 S    
C134  C135  1.555197 S    
C90   C108  1.421701 S    
C87   Br1   1.940080 S    
C63   C65   1.409775 A    
O10   Zn3   1.996138 S    
C82   C104  1.421670 S    
C110  C111  1.422527 A    
C164  O104  1.398092 S    
O26   Zn7   1.995788 S    
C115  C117  1.493325 S    
O74   H35   1.013842 S    
C135  C152  1.523403 S    
C96   C124  1.426200 S    
C85   C87   1.523397 S    
O7    C5    1.283610 A    
C129  C131  1.381799 A    
C150  O75   1.222644 D    
O32   C96   1.275760 A    
C66   C100  1.431467 S    
O3    Zn3   2.020510 S    
C27   C35   1.540127 S    
C118  H22   1.112333 S    
C145  O65   1.223926 D    
C4    C18   1.414608 S    
C57   C71   1.505069 S    
C117  H20   1.112322 S    
C37   C45   1.535145 S    
C149  O74   1.397774 S    
C70   C165  1.520474 S    
C14   H2    1.110080 S    
O34   C97   1.271230 A    
C29   C49   1.446554 S    
C60   C62   1.405971 A    
C31   C43   1.542824 S    
C143  O61   1.222671 D    
O15   C7    1.280771 A    
C11   C39   1.536527 S    
O5    Zn1   1.996804 S    
C133  Br12  1.950942 S    
C24   C56   1.194007 T    
O40   C100  1.270674 A    
C152  O80   1.400202 S    
C72   C139  1.525257 S    
C127  C129  1.418233 A    
C137  O50   1.397998 S    
C40   C48   1.535377 S    
C157  O89   1.221924 D    
C119  C145  1.515677 S    
O30   C96   1.278361 A    
C140  O55   1.223949 D    
C79   C81   1.402516 A    
C142  O60   1.398152 S    
C20   C52   1.193263 T    
O102  H49   1.013848 S    
C123  C125  1.408668 A    
C28   C32   1.534928 S    
O19   C89   1.275526 A    
