data_mof_unit_59761.cif
_audit_creation_date              2012-12-11T17:45:26-0500
_audit_creation_method            fapswitch 2.2
_symmetry_space_group_name_H-M    P1
_symmetry_Int_Tables_number       1
_space_group_crystal_system       triclinic
_cell_length_a                    14.985152
_cell_length_b                    14.863247
_cell_length_c                    15.136357
_cell_angle_alpha                 109.874673
_cell_angle_beta                  109.204562
_cell_angle_gamma                 109.319765
_cell_volume                      2595.61407955

loop_
_atom_site_label
_atom_site_type_symbol
_atom_type_description
_atom_site_fract_x
_atom_site_fract_y
_atom_site_fract_z
_atom_type_partial_charge
C1    C     C_R   0.905769 0.192984 0.991152 -0.140990
C2    C     C_R   0.684828 0.241156 0.774761 -0.137644
C3    C     C_R   0.790888 0.589568 0.097310 -0.170720
C4    C     C_R   0.294955 0.806557 0.205186 -0.140670
C5    C     C_R   0.010985 0.410239 0.705476 -0.291529
C6    C     C_R   0.700615 0.496914 0.071296 0.032045
C7    C     C_R   0.070625 0.501827 0.702425 0.028538
C8    C     C_R   0.675933 0.212117 0.672550 0.050944
C9    C     C_R   0.943489 0.773244 0.950109 0.061805
C10   C     C_R   0.668165 0.285315 0.248048 -0.127873
C11   C     C_R   0.778576 0.362225 0.320984 -0.132271
C12   C     C_R   0.295893 0.872161 0.296695 0.062449
C13   C     C_R   0.857540 0.330481 0.324521 0.153935
C14   C     C_R   0.824273 0.220798 0.253924 -0.208250
C15   C     C_R   0.714037 0.145084 0.178648 -0.100594
C16   C     C_R   0.222276 0.406956 0.974806 -0.133396
C17   C     C_R   0.635959 0.177285 0.176213 -0.101341
C18   C     C_R   0.988514 0.409459 0.511183 -0.270911
C19   C     C_R   0.082170 0.494742 0.608808 0.079419
C20   C     C_R   0.170257 0.571416 0.609382 -0.127414
C21   C     C_R   0.158298 0.557841 0.508340 0.413295
C22   C     C_R   0.055861 0.483654 0.415054 -0.023139
C23   C     C_R   0.324449 0.498649 0.051746 0.062957
C24   C     C_R   0.971245 0.406114 0.415611 -0.061067
C25   C     C_R   0.292149 0.776215 0.715616 -0.074853
C26   C     C_R   0.376416 0.873948 0.810414 -0.221937
C27   C     C_R   0.431600 0.870994 0.902514 -0.111538
C28   C     C_R   0.055446 0.589279 0.314050 -0.079774
C29   C     C_R   0.404005 0.770540 0.900283 0.591199
C30   C     C_R   0.325623 0.670675 0.801678 -0.301310
C31   C     C_R   0.265775 0.673237 0.709814 0.174746
C32   C     C_R   0.087771 0.985964 0.382284 -0.132677
C33   C     C_R   0.191694 0.028309 0.394029 -0.142722
C34   C     C_R   0.034582 0.493336 0.319910 0.144939
C35   C     C_R   0.275878 0.029982 0.472290 0.113659
C36   C     C_R   0.256112 0.993452 0.541809 -0.183620
C37   C     C_R   0.151038 0.948037 0.527294 -0.115913
C38   C     C_R   0.066989 0.944198 0.447501 -0.122462
C39   C     C_R   0.477110 0.134403 0.563868 -0.238564
C40   C     C_R   0.313410 0.591430 0.068707 -0.165161
C41   C     C_R   0.575624 0.148260 0.567084 0.068525
C42   C     C_R   0.574294 0.093641 0.469011 0.012639
C43   C     C_R   0.476196 0.026164 0.373479 -0.214723
C44   C     C_R   0.379434 0.989103 0.376608 0.050923
C45   C     C_R   0.701854 0.406927 0.006394 -0.110272
C46   C     C_R   0.378050 0.052609 0.469647 0.032340
C47   C     C_R   0.727489 0.129676 0.428526 -0.171173
C48   C     C_R   0.809806 0.108419 0.421801 -0.109879
C49   C     C_R   0.822942 0.027252 0.441685 -0.129463
C50   C     C_R   0.755635 0.968947 0.471095 -0.132040
C51   C     C_R   0.677134 0.993759 0.483563 -0.116399
C52   C     C_R   0.970110 0.404478 0.217339 -0.144350
C53   C     C_R   0.663235 0.074846 0.463121 0.100892
C54   C     C_3   0.534281 0.397373 0.086662 0.403390
C55   C     C_3   0.434806 0.406037 0.090591 -0.459716
C56   C     C_R   0.094783 0.592116 0.792210 0.475254
C57   C     C_3   0.633155 0.604631 0.171861 0.371966
C58   C     C_3   0.530364 0.480125 0.965635 -0.445842
C59   C     C_3   0.602354 0.494474 0.075367 0.188339
C60   C     C_3   0.426441 0.497417 0.066237 0.275756
C61   C     C_3   0.528831 0.609296 0.159748 -0.510452
C62   C     C_3   0.425026 0.474883 0.957775 -0.402472
C63   C     C_R   0.047071 0.051370 0.672690 -0.126670
C64   C     C_R   0.206984 0.804705 0.297976 -0.110717
C65   C     C_R   0.977510 0.995674 0.701817 -0.216334
C66   C     C_R   0.020189 0.001101 0.802097 -0.053231
C67   C     C_R   0.780300 0.250112 0.687539 -0.114815
C68   C     C_R   0.135227 0.054919 0.869480 0.537994
C69   C     C_R   0.203228 0.104801 0.835496 -0.189690
C70   C     C_R   0.159712 0.106307 0.739626 -0.206597
C71   C     C_R   0.929626 0.856118 0.833857 -0.229074
C72   C     C_R   0.895053 0.828339 0.901152 0.045010
C73   C     C_R   0.834751 0.874173 0.934574 0.032294
C74   C     C_R   0.826559 0.955867 0.913596 -0.229840
C75   C     C_R   0.897523 0.010286 0.885154 0.058680
C76   C     C_R   0.997922 0.196932 0.902650 -0.134093
C77   C     C_R   0.943654 0.954275 0.836270 0.027517
C78   C     C_R   0.931269 0.747314 0.026775 -0.127958
C79   C     C_R   0.698094 0.775420 0.975203 -0.187511
C80   C     C_R   0.659473 0.775464 0.047377 -0.081721
C81   C     C_R   0.720670 0.861802 0.154738 -0.061653
C82   C     C_R   0.822170 0.947917 0.190708 -0.169776
C83   C     C_R   0.861753 0.948382 0.119530 -0.184377
C84   C     C_R   0.799679 0.862163 0.011351 0.121775
C85   C     C_R   0.935024 0.129179 0.926812 0.067873
C86   C     C_3   0.788063 0.706537 0.344853 0.265516
C87   C     C_3   0.829356 0.717295 0.456156 -0.907924
C88   C     C_R   0.020894 0.747411 0.934659 -0.153802
H1    H     H_    0.846065 0.164286 0.014477 0.093223
H2    H     H_    0.802269 0.445045 0.377945 0.119565
H3    H     H_    0.341799 0.833333 0.169077 0.112677
H4    H     H_    0.883714 0.193870 0.258277 0.114175
H5    H     H_    0.689102 0.060880 0.124290 0.136021
H6    H     H_    0.919835 0.352392 0.509822 0.148152
H7    H     H_    0.246109 0.781154 0.647011 0.129306
H8    H     H_    0.396224 0.952370 0.813617 0.139635
H9    H     H_    0.493229 0.947279 0.977144 0.114766
H10   H     H_    0.304849 0.592355 0.799014 0.107815
H11   H     H_    0.985681 0.908490 0.435868 0.088152
H12   H     H_    0.806947 0.252259 0.630469 0.122932
H13   H     H_    0.201745 0.321579 0.937213 0.107466
H14   H     H_    0.022773 0.982356 0.320327 0.117262
H15   H     H_    0.205412 0.055128 0.339180 0.118376
H16   H     H_    0.319620 0.992362 0.601322 0.121769
H17   H     H_    0.134407 0.914207 0.576762 0.133152
H18   H     H_    0.476483 0.180535 0.636334 0.127523
H19   H     H_    0.478948 0.985000 0.301122 0.136007
H20   H     H_    0.716128 0.190944 0.410567 0.133677
H21   H     H_    0.863230 0.154233 0.400692 0.116991
H22   H     H_    0.884175 0.008444 0.432598 0.089523
H23   H     H_    0.878163 0.753448 0.058648 0.121944
H24   H     H_    0.763524 0.904061 0.483574 0.110549
H25   H     H_    0.102147 0.673629 0.380216 0.118665
H26   H     H_    0.625552 0.948347 0.506877 0.116461
H27   H     H_    0.587257 0.405208 0.163460 0.084989
H28   H     H_    0.359084 0.325166 0.032012 0.183916
H29   H     H_    0.444412 0.426210 0.172171 0.154751
H30   H     H_    0.526723 0.630052 0.236715 0.200006
H31   H     H_    0.574828 0.548043 0.954843 0.152241
H32   H     H_    0.509961 0.402825 0.896911 0.214236
H33   H     H_    0.355679 0.391510 0.891150 0.182201
H34   H     H_    0.048994 0.756306 0.880193 0.149771
H35   H     H_    0.376032 0.677063 0.121455 0.126815
H36   H     H_    0.413248 0.535155 0.934764 0.146097
H37   H     H_    0.682883 0.675585 0.167640 0.010287
H38   H     H_    0.530352 0.676809 0.143116 0.138972
H39   H     H_    0.213481 0.149118 0.716606 0.156153
H40   H     H_    0.013920 0.053178 0.598884 0.133866
H41   H     H_    0.890350 0.954513 0.650241 0.142394
H42   H     H_    0.290529 0.144891 0.885028 0.176343
H43   H     H_    0.964062 0.814307 0.794763 0.142948
H44   H     H_    0.779969 0.989430 0.939623 0.128039
H45   H     H_    0.619766 0.225265 0.793738 0.100448
H46   H     H_    0.943392 0.318971 0.192043 0.114583
H47   H     H_    0.648227 0.709769 0.891351 0.118564
H48   H     H_    0.581333 0.709101 0.019649 0.132578
H49   H     H_    0.689356 0.861867 0.209749 0.124322
H50   H     H_    0.870177 0.015293 0.273086 0.112393
H51   H     H_    0.939450 0.017331 0.147711 0.120491
H52   H     H_    0.174920 0.826450 0.350419 0.124360
H53   H     H_    0.020716 0.175577 0.842177 0.124624
H54   H     H_    0.649259 0.321015 0.976204 0.157903
H55   H     H_    0.195198 0.740437 0.909092 0.310039
H56   H     H_    0.819996 0.674965 0.151082 0.085554
H57   H     H_    0.313115 0.643576 0.560159 0.316387
H58   H     H_    0.412083 0.697516 0.983709 0.291661
H59   H     H_    0.482265 0.240237 0.024837 0.308818
H60   H     H_    0.781604 0.780786 0.351683 0.078798
H61   H     H_    0.848401 0.702692 0.318732 0.096659
H62   H     H_    0.835916 0.643786 0.451651 0.256408
H63   H     H_    0.911140 0.791859 0.513656 0.215290
H64   H     H_    0.772531 0.724631 0.486536 0.255628
H65   H     H_    0.129328 0.032334 0.987879 0.320137
H66   H     H_    0.988342 0.325860 0.654390 0.144834
H67   H     H_    0.550285 0.118369 0.120323 0.112125
H68   H     H_    0.607202 0.308484 0.249164 0.114192
N1    N     N_R   0.947080 0.293830 0.002870 -0.038281
N2    N     N_R   0.153670 0.443180 0.946090 -0.038586
N3    N     N_R   0.002360 0.556820 0.208890 -0.054594
N4    N     N_R   0.210070 0.556820 0.002870 -0.046415
N5    N     N_R   0.945960 0.443180 0.152110 -0.045184
N6    N     N_R   0.151710 0.706170 0.208890 -0.040779
N7    N     N_R   0.004320 0.293830 0.946090 -0.038950
N8    N     N_R   0.789930 0.443180 0.997130 -0.047401
N9    N     N_R   0.054040 0.556820 0.847890 -0.100388
N10   N     N_R   0.848290 0.293830 0.791110 -0.039448
N11   N     N_R   0.995680 0.706170 0.053910 -0.041101
N12   N     N_R   0.052920 0.706170 0.997130 -0.050160
N13   N     N_R   0.791050 0.293830 0.847890 -0.042053
N14   N     N_R   0.846330 0.556820 0.053910 -0.036852
N15   N     N_R   0.997640 0.443180 0.791110 -0.056949
N16   N     N_R   0.208950 0.706170 0.152110 -0.039045
Ni1   Ni    Ni4+2 0.869690 0.369690 0.000000 0.218220
Ni2   Ni    Ni4+2 0.130310 0.630310 0.000000 0.214563
Ni3   Ni    Ni4+2 0.000970 0.369690 0.869780 0.213656
Ni4   Ni    Ni4+2 0.999030 0.630310 0.130220 0.215539
O1    O     O_3   0.163881 0.700418 0.829435 -0.780850
O2    O     O_3   0.242942 0.619049 0.498351 -0.772480
O3    O     O_3   0.448545 0.773363 0.997001 -0.805973
O4    O     O_3   0.496586 0.294196 0.999479 -0.804418
O5    O     O_3   0.686330 0.608833 0.271545 -0.637777
O6    O     O_3   0.184751 0.063520 0.969072 -0.776611

loop_
_geom_bond_atom_site_label_1
_geom_bond_atom_site_label_2
_ccdc_geom_bond_type
C70   H39   S    
C25   C31   A    
C39   H18   S    
C66   C68   A    
C63   C65   A    
C58   C62   S    
C6    C45   A    
C74   H44   S    
C27   C29   A    
C52   H46   S    
C41   C42   A    
N8    N14   A    
C35   C36   A    
C9    C72   S    
C3    C6    A    
N7    Ni3   S    
C57   O5    S    
C81   C82   A    
C39   C41   A    
N14   Ni4   S    
N12   Ni2   S    
C49   H22   S    
C68   O6    S    
N10   Ni3   S    
C29   C30   A    
C56   O1    S    
C18   C24   A    
C38   H11   S    
C36   C37   A    
C45   N8    A    
C9    C88   A    
C57   H37   S    
C30   C31   A    
C12   C64   A    
C57   C59   S    
N6    Ni4   S    
C55   H28   S    
C10   C17   A    
C23   C40   A    
C11   C13   A    
C60   C62   S    
C18   C19   A    
C73   C74   A    
C49   C50   A    
H59   O4    S    
C75   C85   S    
C83   C84   A    
C44   C46   A    
C68   C69   A    
C88   N12   A    
C87   H62   S    
H57   O2    S    
C86   O5    S    
N3    N5    A    
C78   H23   S    
C32   C38   A    
C4    C12   A    
N1    N7    A    
C73   C84   S    
C63   H40   S    
C52   N5    A    
C47   C53   A    
C4    H3    S    
C55   C60   S    
C76   H53   S    
C48   H21   S    
C28   C34   A    
C78   N11   A    
C21   C22   A    
C26   H8    S    
C7    C56   A    
C83   H51   S    
N16   Ni2   S    
C54   C59   S    
C1    C85   A    
C23   C60   S    
C22   C34   S    
C51   H26   S    
C74   C75   A    
C3    H56   S    
C16   N2    A    
C2    H45   S    
C8    C41   S    
C64   N6    A    
C28   H25   S    
C86   H61   S    
C10   H68   S    
N11   N12   A    
C5    C7    A    
C86   C87   S    
C69   H42   S    
C55   H29   S    
N9    Ni2   S    
N15   Ni3   S    
C82   C83   A    
C28   N3    A    
C13   C24   S    
C60   C61   S    
C51   C53   A    
C56   N9    A    
C81   H49   S    
C43   C44   A    
C37   H17   S    
C37   C38   A    
N5    Ni1   S    
N2    Ni3   S    
C47   C48   A    
C63   C70   A    
C54   H27   S    
C50   H24   S    
C50   C51   A    
C26   C27   A    
N8    Ni1   S    
C43   H19   S    
H65   O6    S    
C57   C61   S    
C75   C77   A    
C14   H4    S    
C61   H38   S    
N9    N15   A    
C8    C67   A    
C39   C46   A    
C67   H12   S    
C67   N10   A    
C88   H34   S    
C21   O2    S    
C25   H7    S    
C16   C23   A    
C7    C19   S    
C87   H64   S    
C45   H54   S    
C18   H6    S    
C32   H14   S    
C80   C81   A    
C58   C59   S    
C42   C43   A    
C17   H67   S    
C71   C77   A    
C5    N15   A    
C64   H52   S    
C47   H20   S    
C66   C77   S    
C54   C55   S    
C27   H9    S    
C1    H1    S    
C4    N16   A    
C61   H30   S    
C33   H15   S    
N4    Ni2   S    
C6    C59   S    
C40   N4    A    
C2    C8    A    
C62   H36   S    
C72   C73   A    
C58   H32   S    
C86   H60   S    
C15   H5    S    
C65   H41   S    
C3    N14   A    
C15   C17   A    
C79   H47   S    
C30   H10   S    
C34   C52   A    
C80   H48   S    
C36   H16   S    
N3    Ni4   S    
C32   C33   A    
C19   C20   A    
C1    N1    A    
C25   C26   A    
C71   C72   A    
C42   C53   S    
N2    N4    A    
C11   H2    S    
C79   C84   A    
C40   H35   S    
C48   C49   A    
C58   H31   S    
C33   C35   A    
C54   O4    S    
H58   O3    S    
C22   C24   A    
C9    C78   A    
H55   O1    S    
C69   C70   A    
C10   C11   A    
C2    N13   A    
C71   H43   S    
C79   C80   A    
C16   H13   S    
N6    N16   A    
C20   C21   A    
N10   N13   A    
C82   H50   S    
C65   C66   A    
C29   O3    S    
N13   Ni1   S    
C14   C15   A    
C12   C44   S    
C76   N7    A    
C87   H63   S    
C13   C14   A    
C35   C46   S    
C76   C85   A    
C62   H33   S    
C5    H66   S    
N1    Ni1   S    
N11   Ni4   S    
C20   C31   S    
