data_mof_unit_21415.cif
_audit_creation_date              2012-12-10T18:32:56-0500
_audit_creation_method            fapswitch 2.2
_symmetry_space_group_name_H-M    P1
_symmetry_Int_Tables_number       1
_space_group_crystal_system       triclinic
_cell_length_a                    14.999361
_cell_length_b                    15.465515
_cell_length_c                    15.732354
_cell_angle_alpha                 89.629875
_cell_angle_beta                  105.007723
_cell_angle_gamma                 82.311218
_cell_volume                      3490.08427207

loop_
_atom_site_label
_atom_site_type_symbol
_atom_type_description
_atom_site_fract_x
_atom_site_fract_y
_atom_site_fract_z
_atom_type_partial_charge
C1    C     C_R   0.441666 0.662205 0.485581 0.862887
C2    C     C_R   0.591673 0.246221 0.501510 -0.117297
C3    C     C_R   0.280810 0.875962 0.439091 -0.201248
C4    C     C_R   0.501489 0.499837 0.661854 0.903770
C5    C     C_R   0.311343 0.786774 0.454964 -0.195950
C6    C     C_R   0.468140 0.811357 0.457871 -0.263919
C7    C     C_R   0.439032 0.900692 0.440786 0.090174
C8    C     C_R   0.344535 0.933416 0.434705 0.173246
C9    C     C_R   0.503463 0.958845 0.437370 0.072908
C10   C     C_R   0.476613 0.048717 0.445155 0.099539
C11   C     C_R   0.381024 0.080251 0.434238 -0.232869
C12   C     C_3   0.401834 0.535194 0.022721 0.311897
C13   C     C_R   0.315730 0.023144 0.427175 -0.242109
C14   C     C_R   0.593950 0.930337 0.427933 -0.256933
C15   C     C_R   0.658832 0.988013 0.434498 -0.188757
C16   C     C_R   0.558143 0.337853 0.510396 0.895680
C17   C     C_R   0.637211 0.074794 0.454985 0.069352
C18   C     C_R   0.546242 0.104266 0.463261 0.027714
C19   C     C_R   0.704985 0.132260 0.468370 0.482774
C20   C     C_R   0.679728 0.219399 0.488173 -0.316539
C21   C     C_R   0.527959 0.187500 0.493103 -0.273945
C22   C     C_R   0.842965 0.637070 0.630435 -0.279538
C23   C     C_3   0.499080 0.495949 0.082415 0.184335
C24   C     C_R   0.753671 0.614738 0.608143 -0.009197
C25   C     C_R   0.793822 0.510642 0.509469 -0.025046
C26   C     C_R   0.885739 0.531057 0.528047 -0.043687
C27   C     C_R   0.909945 0.595353 0.590870 0.050021
C28   C     C_R   0.498788 0.499533 0.338259 0.901438
C29   C     C_R   0.953288 0.490476 0.486378 0.018968
C30   C     C_R   0.045160 0.513463 0.509704 0.002758
C31   C     C_R   0.066007 0.577983 0.572196 -0.323942
C32   C     C_R   0.000434 0.617222 0.613561 0.530904
C33   C     C_R   0.931209 0.429036 0.420863 -0.325417
C34   C     C_3   0.523547 0.400625 0.055795 0.354792
C35   C     C_R   0.996267 0.391132 0.378275 0.448334
C36   C     C_R   0.087972 0.409720 0.404001 0.064002
C37   C     C_R   0.113218 0.471522 0.469328 -0.035386
C38   C     C_R   0.154907 0.367883 0.364459 -0.292572
C39   C     C_R   0.245156 0.387887 0.389047 -0.014148
C40   C     C_3   0.405566 0.535237 0.925286 -0.445277
C41   C     C_R   0.206519 0.488442 0.491395 -0.028097
C42   C     C_3   0.576021 0.552382 0.971510 -0.412282
C43   C     C_3   0.573756 0.551380 0.068949 -0.347579
C44   C     C_1   0.496700 0.497557 0.248827 -0.185855
C45   C     C_3   0.528142 0.402008 0.958312 -0.473357
C46   C     C_3   0.504118 0.496734 0.918529 0.233326
C47   C     C_3   0.294334 0.633138 0.073084 0.114081
C48   C     C_3   0.208769 0.645159 0.993446 -0.386897
C49   C     C_3   0.118550 0.661304 0.022228 -0.964391
C50   C     C_3   0.613378 0.271293 0.121463 -0.316249
C51   C     C_3   0.866517 0.126306 0.518441 0.046793
C52   C     C_3   0.918758 0.188691 0.480206 -0.294204
C53   C     C_3   0.000912 0.214164 0.550617 -0.947805
C54   C     C_3   0.075341 0.643137 0.754050 -0.362797
C55   C     C_3   0.920322 0.376712 0.235124 0.060575
C56   C     C_1   0.496938 0.496332 0.173533 -0.040329
C57   C     C_3   0.893491 0.311057 0.164105 -0.299244
C58   C     C_3   0.837851 0.356906 0.076513 -0.955448
C59   C     C_1   0.505895 0.497650 0.827393 -0.063386
C60   C     C_1   0.504935 0.498833 0.751733 -0.194278
C61   C     C_R   0.405799 0.754742 0.466646 -0.059935
H1    H     H_    0.352917 0.496011 0.887032 0.128276
H2    H     H_    0.386803 0.602864 0.895366 0.208542
H3    H     H_    0.354719 0.149129 0.428935 0.149987
H4    H     H_    0.615383 0.864133 0.412602 0.152635
H5    H     H_    0.232901 0.533677 0.539945 0.126841
H6    H     H_    0.297053 0.356717 0.358273 0.135496
H7    H     H_    0.859119 0.686511 0.678309 0.189775
H8    H     H_    0.701501 0.646466 0.638281 0.138641
H9    H     H_    0.768861 0.461763 0.464684 0.126369
H10   H     H_    0.647324 0.526157 0.966743 0.178451
H11   H     H_    0.132553 0.601187 0.590205 0.155943
H12   H     H_    0.350567 0.490976 0.029467 0.027519
H13   H     H_    0.863275 0.409042 0.399515 0.149748
H14   H     H_    0.137849 0.320491 0.314525 0.182871
H15   H     H_    0.560009 0.620875 0.943970 0.184173
H16   H     H_    0.558217 0.619504 0.088852 0.201097
H17   H     H_    0.643799 0.524171 0.111189 0.190961
H18   H     H_    0.478207 0.360401 0.919928 0.137395
H19   H     H_    0.598988 0.373870 0.953695 0.209069
H20   H     H_    0.465509 0.364218 0.061427 0.040278
H21   H     H_    0.293578 0.693118 0.111510 0.167803
H22   H     H_    0.291512 0.578568 0.118551 0.122590
H23   H     H_    0.243315 0.049340 0.420083 0.152242
H24   H     H_    0.212659 0.701656 0.951180 0.230140
H25   H     H_    0.207656 0.585993 0.953727 0.206368
H26   H     H_    0.112711 0.604927 0.063600 0.263852
H27   H     H_    0.058014 0.669608 0.963240 0.262255
H28   H     H_    0.116650 0.721481 0.060261 0.268720
H29   H     H_    0.599267 0.240304 0.056582 0.157463
H30   H     H_    0.563274 0.255753 0.158570 0.165683
H31   H     H_    0.684200 0.242864 0.160157 0.196829
H32   H     H_    0.914767 0.064987 0.542210 0.167184
H33   H     H_    0.847194 0.154001 0.577631 0.128404
H34   H     H_    0.463185 0.208210 0.509789 0.170933
H35   H     H_    0.944989 0.156617 0.426644 0.242484
H36   H     H_    0.870669 0.248701 0.451508 0.222864
H37   H     H_    0.975732 0.250189 0.602690 0.260529
H38   H     H_    0.039111 0.257022 0.520434 0.280041
H39   H     H_    0.049834 0.155049 0.580754 0.259166
H40   H     H_    0.143868 0.608120 0.750119 0.163762
H41   H     H_    0.035709 0.598075 0.780117 0.163267
H42   H     H_    0.089338 0.695298 0.801741 0.204276
H43   H     H_    0.963673 0.420969 0.213096 0.135583
H44   H     H_    0.855163 0.415795 0.243084 0.152484
H45   H     H_    0.727576 0.266454 0.490999 0.163488
H46   H     H_    0.957650 0.271706 0.154774 0.216251
H47   H     H_    0.850900 0.266119 0.185679 0.229629
H48   H     H_    0.773841 0.397496 0.084376 0.295353
H49   H     H_    0.817121 0.307439 0.027088 0.263701
H50   H     H_    0.880815 0.399252 0.051861 0.253482
H51   H     H_    0.727118 0.963387 0.426453 0.191029
H52   H     H_    0.208137 0.900309 0.432965 0.140531
H53   H     H_    0.261774 0.743400 0.460093 0.159821
H54   H     H_    0.540700 0.785204 0.469062 0.163673
N1    N     N_R   0.731690 0.552720 0.548990 -0.100124
N2    N     N_R   0.268300 0.447240 0.450950 -0.098129
O1    O     O_R   0.383120 0.605620 0.475300 -0.619329
O2    O     O_3   0.610576 0.362433 0.111679 -0.597328
O3    O     O_3   0.790558 0.104690 0.451240 -0.660461
O4    O     O_3   0.023396 0.682363 0.671859 -0.607954
O5    O     O_3   0.970968 0.331038 0.314730 -0.656618
O6    O     O_R   0.531890 0.639510 0.506740 -0.622031
O7    O     O_R   0.425580 0.483050 0.607130 -0.614862
O8    O     O_R   0.574360 0.516930 0.638570 -0.612879
O9    O     O_R   0.468110 0.360490 0.493260 -0.620927
O10   O     O_R   0.616880 0.394380 0.524700 -0.620227
O11   O     O_R   0.425640 0.483070 0.361430 -0.621539
O12   O     O_R   0.574420 0.516950 0.392870 -0.610374
O13   O     O_3   0.377639 0.622537 0.045534 -0.633256
Zn1   Zn    Zn3+2 0.400660 0.477370 0.479010 0.935792
Zn2   Zn    Zn3+2 0.599340 0.522630 0.520990 0.939939

loop_
_geom_bond_atom_site_label_1
_geom_bond_atom_site_label_2
_ccdc_geom_bond_type
C8    C13   A    
C5    H53   S    
C58   H48   S    
C49   H26   S    
C54   H40   S    
C19   C20   A    
C23   C43   S    
C7    C8    A    
C45   C46   S    
C53   H38   S    
C43   H17   S    
C40   C46   S    
C13   H23   S    
C26   C27   A    
C40   H2    S    
C12   O13   S    
C4    O8    A    
C55   H44   S    
C6    C61   A    
C36   C37   A    
C30   C31   A    
C46   C59   S    
C18   C21   A    
C29   C33   A    
C52   H36   S    
C40   H1    S    
C4    O7    A    
C15   C17   A    
C28   O12   A    
C42   C46   S    
C47   H21   S    
O10   Zn2   S    
O1    Zn1   S    
C17   C19   A    
C50   H29   S    
C31   C32   A    
N1    Zn2   S    
C34   H20   S    
C47   H22   S    
C2    C16   S    
C9    C10   A    
O12   Zn2   S    
C55   O5    S    
C59   C60   T    
C12   H12   S    
C49   H27   S    
C32   O4    S    
C24   H8    S    
C17   C18   A    
C20   H45   S    
C38   H14   S    
C53   H39   S    
C47   O13   S    
C2    C20   A    
C51   C52   S    
C54   H42   S    
C23   C56   S    
C3    C8    A    
C3    H52   S    
C25   N1    A    
C21   H34   S    
C25   C26   A    
C39   N2    A    
C55   H43   S    
C28   C44   S    
C58   H50   S    
C30   C37   A    
C35   C36   A    
C12   C40   S    
C9    C14   A    
C1    O6    A    
C29   C30   A    
C33   H13   S    
C44   C56   T    
C47   C48   S    
C12   C23   S    
C23   C34   S    
C4    C60   S    
C2    C21   A    
C14   C15   A    
C51   O3    S    
C5    C61   A    
C45   H18   S    
C34   C45   S    
C22   H7    S    
C41   H5    S    
C51   H32   S    
C50   H31   S    
C48   C49   S    
C57   H46   S    
C54   O4    S    
C19   O3    S    
C11   H3    S    
C22   C27   A    
C55   C57   S    
C48   H25   S    
C42   C43   S    
O11   Zn1   S    
C52   C53   S    
C34   O2    S    
C7    C9    A    
C31   H11   S    
C27   C32   A    
C58   H49   S    
C39   H6    S    
C15   H51   S    
C54   H41   S    
C35   O5    S    
C49   H28   S    
C3    C5    A    
O6    Zn2   S    
C1    C61   S    
C24   N1    A    
C6    C7    A    
C53   H37   S    
C43   H16   S    
C42   H15   S    
C36   C38   A    
C11   C13   A    
O8    Zn2   S    
C57   C58   S    
C38   C39   A    
O9    Zn1   S    
C10   C18   A    
C42   H10   S    
C33   C35   A    
C14   H4    S    
C52   H35   S    
C45   H19   S    
C22   C24   A    
C1    O1    A    
C37   C41   A    
N2    Zn1   S    
C16   O10   A    
C6    H54   S    
C10   C11   A    
C51   H33   S    
C50   O2    S    
C50   H30   S    
C57   H47   S    
O7    Zn1   S    
C26   C29   A    
C48   H24   S    
C25   H9    S    
C41   N2    A    
C16   O9    A    
C28   O11   A    
