data_mof_unit_37932.cif
_audit_creation_date              2012-12-10T19:11:04-0500
_audit_creation_method            fapswitch 2.2
_symmetry_space_group_name_H-M    P1
_symmetry_Int_Tables_number       1
_space_group_crystal_system       triclinic
_cell_length_a                    10.842274
_cell_length_b                    9.068483
_cell_length_c                    7.784429
_cell_angle_alpha                 90.060322
_cell_angle_beta                  89.753496
_cell_angle_gamma                 90.159292
_cell_volume                      765.37778088

loop_
_atom_site_label
_atom_site_type_symbol
_atom_type_description
_atom_site_fract_x
_atom_site_fract_y
_atom_site_fract_z
_atom_type_partial_charge
C1    C     C_R   0.501723 0.220090 0.499876 0.834759
C2    C     C_R   0.259331 0.503638 0.500372 0.905911
C3    C     C_R   0.740421 0.508079 0.499329 0.917204
C4    C     C_R   0.501561 0.779939 0.500070 0.801496
C5    C     C_1   0.501819 0.065431 0.499834 -0.196196
C6    C     C_3   0.071804 0.342879 0.532413 0.683276
C7    C     C_3   0.070886 0.562237 0.314602 0.655038
C8    C     C_3   0.926174 0.342403 0.504355 0.571028
C9    C     C_3   0.929944 0.598166 0.332765 0.700132
C10   C     C_1   0.501784 0.934587 0.500065 -0.189850
C11   C     C_3   0.070910 0.606879 0.657311 0.565512
C12   C     C_3   0.925718 0.593743 0.666842 0.669190
C13   C     C_3   0.121523 0.507616 0.500832 -0.385996
C14   C     C_3   0.878331 0.509852 0.498386 -0.447298
Cu1   Cu    Cu3+1 0.500000 0.500010 0.669080 1.038139
Cu2   Cu    Cu3+1 0.500000 0.500010 0.330920 1.027100
N1    N     N_1   0.500000 0.499970 0.076820 -0.030948
N2    N     N_1   0.500000 0.499970 0.923180 -0.028080
O1    O     O_R   0.500000 0.288400 0.642760 -0.588711
O2    O     O_R   0.500000 0.288400 0.357240 -0.580386
O3    O     O_R   0.317700 0.499990 0.642790 -0.546117
O4    O     O_R   0.317700 0.499990 0.357210 -0.574463
O5    O     O_R   0.682300 0.499990 0.642790 -0.530088
O6    O     O_R   0.682300 0.499990 0.357210 -0.578996
O7    O     O_R   0.500000 0.711620 0.642810 -0.597213
O8    O     O_R   0.500000 0.711620 0.357190 -0.584337
O9    O     O_3   0.095437 0.298994 0.706376 -0.569322
C15   C     C_3   0.189479 0.193194 0.728550 -0.152706
H1    H     H_    0.272541 0.218658 0.651437 0.171336
H2    H     H_    0.154998 0.081007 0.697580 0.142326
H3    H     H_    0.217177 0.193309 0.865544 0.188965
O10   O     O_3   0.134736 0.677652 0.222395 -0.588811
C16   C     C_3   0.182580 0.800925 0.309734 -0.203018
H4    H     H_    0.254680 0.771352 0.402310 0.142936
H5    H     H_    0.110088 0.872376 0.364330 0.221630
H6    H     H_    0.230257 0.870805 0.213168 0.169567
O11   O     O_3   0.864632 0.269706 0.644425 -0.587017
C17   C     C_3   0.860395 0.114067 0.631653 -0.097642
H7    H     H_    0.949422 0.065043 0.592886 0.181684
H8    H     H_    0.786263 0.078504 0.542734 0.141397
H9    H     H_    0.837136 0.068758 0.760098 0.181780
O12   O     O_3   0.914916 0.752675 0.364152 -0.573595
C18   C     C_3   0.878266 0.836882 0.220088 -0.142004
H10   H     H_    0.938291 0.816072 0.106456 0.214416
H11   H     H_    0.886610 0.955501 0.252973 0.158281
H12   H     H_    0.779966 0.814801 0.188997 0.188910
O13   O     O_3   0.130518 0.246633 0.413132 -0.727639
H13   H     H_    0.092487 0.147584 0.420857 0.329153
O14   O     O_3   0.077971 0.440503 0.201329 -0.669073
H14   H     H_    0.162055 0.434448 0.151128 0.396496
O15   O     O_3   0.898394 0.269510 0.348550 -0.752324
H15   H     H_    0.807474 0.260008 0.339785 0.318756
O16   O     O_3   0.867291 0.559984 0.178299 -0.677127
H16   H     H_    0.865697 0.452867 0.159018 0.393521
O17   O     O_3   0.122622 0.560425 0.814743 -0.681980
H17   H     H_    0.096440 0.632084 0.904108 0.387030
O18   O     O_3   0.103155 0.755976 0.634620 -0.745530
H18   H     H_    0.188346 0.771025 0.677972 0.316774
O19   O     O_3   0.885323 0.521249 0.818668 -0.668731
H19   H     H_    0.938564 0.437016 0.847492 0.407703
O20   O     O_3   0.876362 0.737948 0.675236 -0.668049
H20   H     H_    0.790458 0.733148 0.719244 0.341804

loop_
_geom_bond_atom_site_label_1
_geom_bond_atom_site_label_2
_ccdc_geom_bond_type
C2    O4    A    
Cu1   N2    S    
C4    O8    A    
C18   H10   S    
O11   C17   S    
O15   H15   S    
C11   C13   S    
C3    O5    A    
C6    O9    S    
C7    C13   S    
C2    C13   S    
Cu2   O2    S    
Cu2   O4    S    
O10   C16   S    
O17   H17   S    
Cu1   O5    S    
C4    O7    A    
C9    O12   S    
O19   H19   S    
Cu2   O6    S    
O16   H16   S    
C6    C13   S    
Cu1   O1    S    
C12   O20   S    
C18   H11   S    
C8    O15   S    
O18   H18   S    
O20   H20   S    
C3    C14   S    
C2    O3    A    
C1    C5    S    
C15   H2    S    
C15   H1    S    
C17   H8    S    
C12   C14   S    
C16   H4    S    
Cu2   O8    S    
C17   H7    S    
C18   H12   S    
C8    C14   S    
Cu1   O7    S    
C9    O16   S    
O12   C18   S    
C5    C10   T    
Cu1   Cu2   S    
C6    O13   S    
Cu1   O3    S    
C16   H6    S    
C11   O17   S    
C7    O14   S    
C17   H9    S    
N1    N2    T    
O14   H14   S    
C8    O11   S    
C1    O1    A    
O9    C15   S    
C7    C9    S    
C9    C14   S    
C1    O2    A    
C6    C8    S    
C7    O10   S    
C16   H5    S    
C11   O18   S    
C12   O19   S    
C4    C10   S    
C15   H3    S    
O13   H13   S    
C11   C12   S    
C3    O6    A    
Cu2   N1    S    
