data_mof_unit_13523.cif
_audit_creation_date              2012-12-11T15:56:44-0500
_audit_creation_method            fapswitch 2.2
_symmetry_space_group_name_H-M    P1
_symmetry_Int_Tables_number       1
_space_group_crystal_system       triclinic
_cell_length_a                    14.667411
_cell_length_b                    7.236452
_cell_length_c                    13.665543
_cell_angle_alpha                 89.999481
_cell_angle_beta                  100.435485
_cell_angle_gamma                 90.000889
_cell_volume                      1426.46957139

loop_
_atom_site_label
_atom_site_type_symbol
_atom_type_description
_atom_site_fract_x
_atom_site_fract_y
_atom_site_fract_z
_atom_type_partial_charge
O1    O     O_R   0.336930 0.638190 0.166330 -0.515411
O2    O     O_R   0.663070 0.361810 0.833670 -0.511709
O3    O     O_R   0.163070 0.138190 0.333670 -0.515397
O4    O     O_R   0.836930 0.861810 0.666330 -0.511689
O5    O     O_R   0.147900 0.305430 0.139630 -0.534662
O6    O     O_R   0.852100 0.694570 0.860370 -0.542493
O7    O     O_R   0.352100 0.805430 0.360370 -0.534666
O8    O     O_R   0.647900 0.194570 0.639630 -0.542503
C1    C     C_R   0.115854 0.477549 0.112638 0.702310
C2    C     C_R   0.884711 0.522477 0.886663 0.716836
C3    C     C_R   0.384150 0.977549 0.387358 0.702271
C4    C     C_R   0.615290 0.022476 0.613335 0.716821
O9    O     O_R   0.335280 0.308290 0.154310 -0.522167
O10   O     O_R   0.664720 0.691710 0.845690 -0.522144
O11   O     O_R   0.164720 0.808290 0.345690 -0.522143
O12   O     O_R   0.835280 0.191710 0.654310 -0.522059
O13   O     O_R   0.351790 0.140890 0.348460 -0.542471
O14   O     O_R   0.648210 0.859110 0.651540 -0.530925
O15   O     O_R   0.148210 0.640890 0.151540 -0.542461
O16   O     O_R   0.851790 0.359110 0.848460 -0.530896
C5    C     C_R   0.364026 0.477726 0.132995 0.762379
C6    C     C_R   0.636330 0.522463 0.867086 0.763884
C7    C     C_R   0.135974 0.977723 0.367006 0.762372
C8    C     C_R   0.863670 0.022464 0.632915 0.763994
O17   O     O_3   0.255200 0.472570 0.313680 -0.361884
O18   O     O_3   0.744800 0.527430 0.686320 -0.377595
O19   O     O_3   0.244800 0.972570 0.186320 -0.361899
O20   O     O_3   0.755200 0.027430 0.813680 -0.377603
V1    V     V_3+5 0.249040 0.196590 0.238190 1.545342
V2    V     V_3+5 0.750960 0.803410 0.761810 1.533102
V3    V     V_3+5 0.250960 0.696590 0.261810 1.545365
V4    V     V_3+5 0.749040 0.303410 0.738190 1.533181
C9    C     C_R   0.035578 0.831698 0.479275 0.216940
C10   C     C_R   0.978654 0.168732 0.538541 0.224087
C11   C     C_R   0.464441 0.331708 0.020753 0.216920
C12   C     C_R   0.521342 0.668740 0.961451 0.224288
C13   C     C_R   0.954674 0.840948 0.521881 0.393507
C14   C     C_R   0.027501 0.160906 0.458603 0.400567
C15   C     C_R   0.545356 0.340965 0.978168 0.393507
C16   C     C_R   0.472484 0.660924 0.041381 0.400591
C17   C     C_R   0.931739 0.010995 0.562994 -0.374794
C18   C     C_R   0.065352 0.990006 0.434561 -0.371938
C19   C     C_R   0.568268 0.511001 0.937016 -0.374790
C20   C     C_R   0.434651 0.490019 0.065444 -0.371999
C21   C     C_1   0.533780 0.008251 0.533452 -0.154889
C22   C     C_1   0.465596 0.991688 0.467338 -0.147791
C23   C     C_1   0.966223 0.508252 0.966544 -0.154858
C24   C     C_1   0.034409 0.491688 0.032656 -0.147788
Br1   Br    Br    0.124072 0.639011 0.519273 -0.336797
Br2   Br    Br    0.000316 0.369951 0.631163 -0.353894
Br3   Br    Br    0.375925 0.139082 0.980692 -0.336808
Br4   Br    Br    0.499737 0.870031 0.868868 -0.353941
O21   O     O_3   0.900189 0.685023 0.522382 -0.494851
C25   C     C_3   0.815158 0.712033 0.455441 0.170138
H1    H     H_    0.825651 0.771656 0.383098 0.043151
H2    H     H_    0.768676 0.806737 0.487336 0.088517
C26   C     C_3   0.765011 0.528242 0.434675 -0.671588
H3    H     H_    0.748180 0.469677 0.504113 0.239526
H4    H     H_    0.699601 0.548553 0.380447 0.137105
H5    H     H_    0.809106 0.428455 0.403481 0.206992
O22   O     O_3   0.037297 0.319871 0.405977 -0.491397
C27   C     C_3   0.973407 0.313876 0.314847 0.171649
H6    H     H_    0.904056 0.260546 0.323689 0.048496
H7    H     H_    0.999824 0.224075 0.260256 0.093580
C28   C     C_3   0.960664 0.507332 0.271625 -0.689215
H8    H     H_    0.028727 0.567654 0.265835 0.230628
H9    H     H_    0.915742 0.503363 0.196964 0.139074
H10   H     H_    0.928303 0.596832 0.320917 0.220502
O23   O     O_3   0.599870 0.185058 0.977738 -0.494905
C29   C     C_3   0.684942 0.212265 0.044584 0.169888
H11   H     H_    0.674504 0.272009 0.116922 0.043208
H12   H     H_    0.731361 0.306931 0.012573 0.088674
C30   C     C_3   0.735164 0.028567 0.065403 -0.671513
H13   H     H_    0.751302 0.969183 0.995825 0.240037
H14   H     H_    0.800967 0.049312 0.118978 0.137229
H15   H     H_    0.691427 0.929251 0.097459 0.206272
O24   O     O_3   0.462658 0.819909 0.093976 -0.491368
C31   C     C_3   0.526567 0.814020 0.185094 0.171873
H16   H     H_    0.595922 0.760738 0.176240 0.048507
H17   H     H_    0.500181 0.724226 0.239712 0.093484
C32   C     C_3   0.539279 0.007512 0.228277 -0.689084
H18   H     H_    0.471188 0.067763 0.234074 0.230663
H19   H     H_    0.584221 0.003604 0.302955 0.138990
H20   H     H_    0.571620 0.097040 0.178945 0.220539

loop_
_geom_bond_atom_site_label_1
_geom_bond_atom_site_label_2
_ccdc_geom_bond_type
O17   V3    S    
O1    C5    A    
O19   V1    S    
O13   V1    S    
C30   H13   S    
O3    C7    A    
O15   V3    S    
C32   H18   S    
O24   C31   S    
O7    C3    A    
C7    C18   S    
C9    C18   A    
O9    V1    S    
C14   C18   A    
O4    C8    A    
C31   H17   S    
C26   H4    S    
C9    Br1   S    
O1    V3    S    
O2    V4    S    
O3    V1    S    
C27   H7    S    
C1    O15   A    
C23   C24   T    
C2    O16   A    
C28   H9    S    
O2    C6    A    
C29   H11   S    
O14   V2    S    
C12   Br4   S    
C14   O22   S    
C13   O21   S    
O11   C7    A    
O12   C8    A    
C8    C17   S    
C30   H14   S    
O22   C27   S    
C10   C17   A    
O10   V2    S    
C32   H19   S    
O5    V1    S    
C25   H2    S    
C10   Br2   S    
O7    V3    S    
O8    V4    S    
C12   C16   A    
C31   H16   S    
C26   H5    S    
C15   C19   A    
C21   C22   T    
C9    C13   A    
C11   C15   A    
O5    C1    A    
C27   H6    S    
C5    C20   S    
C6    C19   S    
O8    C4    A    
C28   H10   S    
C29   C30   S    
C15   O23   S    
O9    C5    A    
O11   V3    S    
C11   C20   A    
O6    V2    S    
C11   Br3   S    
C30   H15   S    
C32   H20   S    
O16   V4    S    
C25   H1    S    
C3    O13   A    
C27   C28   S    
C10   C14   A    
C4    C21   S    
C12   C19   A    
O6    C2    A    
O21   C25   S    
O18   V4    S    
O12   V4    S    
O10   C6    A    
O20   V2    S    
C31   C32   S    
C26   H3    S    
C13   C17   A    
O23   C29   S    
C16   C20   A    
C1    C24   S    
C28   H8    S    
C4    O14   A    
C2    C23   S    
C16   O24   S    
C3    C22   S    
C29   H12   S    
O4    V2    S    
C25   C26   S    
