data_mof_unit_55487.cif
_audit_creation_date              2012-12-10T18:20:32-0500
_audit_creation_method            fapswitch 2.2
_symmetry_space_group_name_H-M    P1
_symmetry_Int_Tables_number       1
_space_group_crystal_system       triclinic
_cell_length_a                    14.222519
_cell_length_b                    13.565732
_cell_length_c                    14.834869
_cell_angle_alpha                 87.969583
_cell_angle_beta                  88.231376
_cell_angle_gamma                 83.420111
_cell_volume                      2840.54870636

loop_
_atom_site_label
_atom_site_type_symbol
_atom_type_description
_atom_site_fract_x
_atom_site_fract_y
_atom_site_fract_z
_atom_type_partial_charge
C1    C     C_R   0.501781 0.501494 0.326755 0.861109
C2    C     C_R   0.647525 0.371420 0.951600 0.091605
C3    C     C_R   0.806970 0.423092 0.540875 0.455255
C4    C     C_R   0.196680 0.577112 0.456960 0.473641
C5    C     C_R   0.792946 0.571119 0.448995 0.114131
C6    C     C_R   0.205620 0.426222 0.544581 0.106591
C7    C     C_R   0.892302 0.577173 0.454833 -0.003891
C8    C     C_R   0.107822 0.419426 0.532671 -0.005795
C9    C     C_R   0.950364 0.497884 0.493547 -0.017329
C10   C     C_R   0.051119 0.499564 0.492882 -0.002469
C11   C     C_R   0.907785 0.415453 0.530404 -0.036933
C12   C     C_R   0.499212 0.499216 0.673411 0.876399
C13   C     C_R   0.094801 0.581020 0.453795 -0.106804
C14   C     C_R   0.935261 0.658201 0.417621 -0.243989
C15   C     C_R   0.065690 0.333828 0.560497 -0.241034
C16   C     C_R   0.516762 0.314728 0.499477 0.898752
C17   C     C_R   0.483263 0.685339 0.498396 0.881989
C18   C     C_R   0.033824 0.660707 0.413184 0.127970
C19   C     C_R   0.968072 0.328967 0.556518 0.121289
C20   C     C_1   0.470436 0.788929 0.493176 -0.219385
C21   C     C_1   0.529519 0.211943 0.490973 -0.207516
C22   C     C_2   0.456795 0.981625 0.485477 0.093018
C23   C     C_R   0.539185 0.522342 0.950889 -0.010462
C24   C     C_2   0.539418 0.021321 0.473965 0.080022
C25   C     C_1   0.537754 0.124955 0.482504 -0.068863
C26   C     C_1   0.461021 0.876792 0.488897 -0.027704
C27   C     C_R   0.551193 0.423048 0.817564 0.006327
C28   C     C_R   0.481950 0.600208 0.184472 -0.030326
C29   C     C_R   0.500374 0.503712 0.770320 -0.113154
C30   C     C_R   0.509697 0.507827 0.229836 -0.109244
C31   C     C_R   0.473540 0.595917 0.811048 0.019101
C32   C     C_R   0.563673 0.427965 0.186267 0.021577
C33   C     C_R   0.490748 0.603561 0.903443 0.069415
C34   C     C_R   0.543314 0.523721 0.045388 -0.002390
C35   C     C_R   0.581195 0.437170 0.092992 0.066986
C36   C     C_3   0.635770 0.961717 0.461221 -0.403038
C37   C     C_3   0.681282 0.936196 0.552818 -0.318580
C38   C     C_3   0.783666 0.889899 0.541581 -0.913255
C39   C     C_3   0.363527 0.044831 0.507775 -0.413132
C40   C     C_3   0.275775 0.988139 0.509966 -0.323182
C41   C     C_3   0.186726 0.056081 0.535968 -0.932738
C42   C     C_3   0.562123 0.319043 0.778446 -0.441018
C43   C     C_3   0.467696 0.275302 0.779545 -0.350814
C44   C     C_3   0.480420 0.169311 0.745516 -0.909475
C45   C     C_R   0.580652 0.438156 0.905203 0.061475
C46   C     C_3   0.421805 0.683924 0.234465 -0.397743
C47   C     C_3   0.322503 0.708623 0.195915 -0.279782
C48   C     C_3   0.277477 0.810106 0.226124 -0.925632
C49   C     C_3   0.429024 0.686324 0.756683 -0.420296
C50   C     C_3   0.500965 0.761451 0.736003 -0.340718
C51   C     C_3   0.451454 0.866679 0.722692 -0.911076
C52   C     C_3   0.594320 0.329849 0.237457 -0.392215
C53   C     C_3   0.698185 0.321852 0.266158 -0.320024
C54   C     C_3   0.732920 0.216720 0.299621 -0.900533
C55   C     C_3   0.507417 0.800499 0.072297 -0.419647
C56   C     C_R   0.506288 0.609825 0.091275 0.058307
C57   C     C_3   0.568141 0.857756 0.005558 -0.346720
C58   C     C_3   0.596877 0.950704 0.047473 -0.899695
C59   C     C_3   0.737199 0.322187 0.905949 -0.446209
C60   C     C_3   0.826282 0.356989 0.945079 -0.317861
C61   C     C_3   0.915387 0.320365 0.890456 -0.903199
C62   C     C_3   0.738967 0.636212 0.377525 -0.364556
C63   C     C_3   0.773815 0.608062 0.281484 -0.377824
C64   C     C_3   0.723742 0.677824 0.210892 -0.902231
C65   C     C_3   0.255836 0.359597 0.616759 -0.365947
C66   C     C_3   0.211515 0.381077 0.711823 -0.367095
C67   C     C_R   0.467857 0.692801 0.948695 -0.263731
C68   C     C_3   0.202486 0.286376 0.768597 -0.909597
C69   C     C_3   0.065127 0.749187 0.359368 -0.420204
C70   C     C_3   0.052763 0.843440 0.415235 -0.350876
C71   C     C_3   0.064423 0.936308 0.356664 -0.898718
C72   C     C_3   0.935037 0.226559 0.568617 -0.351536
C73   C     C_3   0.924423 0.195806 0.668539 -0.297574
C74   C     C_3   0.888379 0.094251 0.679457 -0.899347
C75   C     C_R   0.638453 0.363913 0.045258 -0.255705
C76   C     C_R   0.489737 0.699578 0.039007 0.096563
H1    H     H_    0.439322 0.759984 0.913629 0.168084
H2    H     H_    0.630645 0.892699 0.424363 0.194593
H3    H     H_    0.682011 0.006481 0.418681 0.202964
H4    H     H_    0.195099 0.089252 0.602252 0.260472
H5    H     H_    0.172389 0.116339 0.483872 0.262552
H6    H     H_    0.125221 0.012549 0.541715 0.254939
H7    H     H_    0.266899 0.957799 0.442518 0.228159
H8    H     H_    0.284207 0.925381 0.560240 0.220200
H9    H     H_    0.369574 0.077329 0.574877 0.206442
H10   H     H_    0.352503 0.106820 0.456715 0.209004
H11   H     H_    0.513328 0.167749 0.676801 0.266890
H12   H     H_    0.680937 0.303786 0.079519 0.159406
H13   H     H_    0.526195 0.119772 0.791431 0.263872
H14   H     H_    0.410894 0.140098 0.742896 0.247693
H15   H     H_    0.437171 0.274394 0.849448 0.232503
H16   H     H_    0.417732 0.322041 0.736313 0.228685
H17   H     H_    0.592492 0.320774 0.708852 0.207331
H18   H     H_    0.609673 0.264893 0.817435 0.216849
H19   H     H_    0.276350 0.812984 0.300872 0.284569
H20   H     H_    0.318012 0.869756 0.197887 0.253202
H21   H     H_    0.204028 0.824187 0.201642 0.250313
H22   H     H_    0.324147 0.709325 0.121172 0.217822
H23   H     H_    0.892227 0.721365 0.388545 0.153588
H24   H     H_    0.277298 0.650877 0.220001 0.237161
H25   H     H_    0.410893 0.666498 0.306956 0.233500
H26   H     H_    0.458797 0.750571 0.237298 0.177763
H27   H     H_    0.396229 0.868314 0.671451 0.272480
H28   H     H_    0.417656 0.893309 0.787185 0.253027
H29   H     H_    0.503719 0.917757 0.699985 0.254146
H30   H     H_    0.551997 0.761837 0.791164 0.223877
H31   H     H_    0.543051 0.739721 0.674123 0.226928
H32   H     H_    0.400415 0.666652 0.692043 0.208723
H33   H     H_    0.365421 0.720595 0.794187 0.198490
H34   H     H_    0.108979 0.267271 0.582232 0.159550
H35   H     H_    0.688848 0.194775 0.358345 0.276446
H36   H     H_    0.729786 0.163354 0.245002 0.254482
H37   H     H_    0.807389 0.213662 0.320960 0.246690
H38   H     H_    0.745172 0.343031 0.209338 0.201759
H39   H     H_    0.705587 0.372890 0.321487 0.254978
H40   H     H_    0.548430 0.319754 0.298184 0.187603
H41   H     H_    0.582819 0.266572 0.195105 0.194328
H42   H     H_    0.532999 0.000568 0.068200 0.263360
H43   H     H_    0.640954 0.930228 0.107285 0.258885
H44   H     H_    0.638820 0.991339 0.997265 0.248482
H45   H     H_    0.786939 0.819624 0.505070 0.261492
H46   H     H_    0.633252 0.809184 0.985526 0.229400
H47   H     H_    0.528118 0.881485 0.943928 0.219887
H48   H     H_    0.438836 0.846009 0.085518 0.207480
H49   H     H_    0.548891 0.790403 0.134242 0.208991
H50   H     H_    0.922083 0.238323 0.885502 0.263493
H51   H     H_    0.913054 0.355496 0.821692 0.263446
H52   H     H_    0.978719 0.341014 0.924011 0.250133
H53   H     H_    0.819214 0.439507 0.944934 0.227207
H54   H     H_    0.834789 0.328484 0.015858 0.214699
H55   H     H_    0.740042 0.240189 0.914917 0.192704
H56   H     H_    0.826329 0.942136 0.503803 0.260957
H57   H     H_    0.738287 0.341972 0.832599 0.223552
H58   H     H_    0.703116 0.379172 0.611005 0.378497
H59   H     H_    0.224490 0.709682 0.460780 0.313726
H60   H     H_    0.646232 0.677915 0.219751 0.262653
H61   H     H_    0.742182 0.754519 0.217806 0.256821
H62   H     H_    0.745360 0.652499 0.142181 0.258040
H63   H     H_    0.851153 0.610579 0.272091 0.228975
H64   H     H_    0.759097 0.531073 0.269266 0.227880
H65   H     H_    0.664066 0.629595 0.379519 0.268774
H66   H     H_    0.742662 0.715939 0.388956 0.165512
H67   H     H_    0.814576 0.873320 0.609001 0.255299
H68   H     H_    0.155338 0.239307 0.736074 0.255631
H69   H     H_    0.272607 0.243381 0.777559 0.267082
H70   H     H_    0.171677 0.305965 0.836184 0.254803
H71   H     H_    0.256003 0.428423 0.747887 0.216965
H72   H     H_    0.139892 0.423228 0.708294 0.235671
H73   H     H_    0.257616 0.280420 0.599474 0.187324
H74   H     H_    0.329594 0.371631 0.619775 0.244492
H75   H     H_    0.138221 0.934635 0.330033 0.268239
H76   H     H_    0.015246 0.942150 0.299502 0.260848
H77   H     H_    0.047692 0.003318 0.397548 0.251511
H78   H     H_    0.680188 0.004578 0.592209 0.223081
H79   H     H_    0.980823 0.852727 0.447294 0.227359
H80   H     H_    0.104793 0.837304 0.469934 0.213241
H81   H     H_    0.136616 0.735141 0.329389 0.249986
H82   H     H_    0.020377 0.762348 0.298882 0.191052
H83   H     H_    0.817581 0.096336 0.649392 0.276261
H84   H     H_    0.938392 0.036957 0.646043 0.258218
H85   H     H_    0.882016 0.073565 0.752299 0.245670
H86   H     H_    0.993986 0.192619 0.701254 0.203111
H87   H     H_    0.873854 0.250936 0.703699 0.263707
H88   H     H_    0.868749 0.221610 0.532366 0.242040
H89   H     H_    0.640376 0.883131 0.591646 0.227416
H90   H     H_    0.987781 0.171441 0.535501 0.169541
N1    N     N_R   0.750030 0.500040 0.500070 -0.170094
N2    N     N_R   0.249970 0.499960 0.499930 -0.128976
O1    O     O_R   0.580280 0.500020 0.367860 -0.645211
O2    O     O_3   0.243976 0.652475 0.422104 -0.764149
O3    O     O_R   0.419720 0.499980 0.632140 -0.653376
O4    O     O_R   0.419730 0.500030 0.367840 -0.579379
O5    O     O_R   0.580270 0.499970 0.632160 -0.633842
O6    O     O_R   0.591830 0.359650 0.500030 -0.607297
O7    O     O_R   0.408170 0.640350 0.499970 -0.568124
O8    O     O_R   0.431280 0.359660 0.500010 -0.635856
O9    O     O_R   0.568720 0.640340 0.499990 -0.639735
O10   O     O_3   0.767909 0.352925 0.594305 -0.813148
Zn1   Zn    Zn3+2 0.607200 0.499990 0.500020 0.913048
Zn2   Zn    Zn3+2 0.392800 0.500010 0.499980 0.947773

loop_
_geom_bond_atom_site_label_1
_geom_bond_atom_site_label_2
_ccdc_geom_bond_type
N1    Zn1   S    
C64   H60   S    
C34   C56   A    
C16   C21   S    
C56   C76   A    
C48   H19   S    
C12   C29   S    
C27   C29   A    
C42   H17   S    
C63   H64   S    
C40   H8    S    
C66   C68   S    
C67   H1    S    
C41   H4    S    
C28   C56   A    
C3    N1    A    
C14   H23   S    
C64   H62   S    
C53   C54   S    
C52   C53   S    
C15   C19   A    
C48   H21   S    
C46   H26   S    
C59   H55   S    
C37   C38   S    
C47   H22   S    
C4    O2    S    
C13   C18   A    
C23   C45   A    
C36   C37   S    
C3    O10   S    
C62   H66   S    
O4    Zn2   S    
O5    Zn1   S    
C16   O6    A    
C71   H77   S    
C54   H37   S    
C58   H42   S    
C17   C20   S    
C34   C35   A    
C38   H67   S    
H59   O2    S    
C4    C13   A    
C14   C18   A    
C11   C19   A    
C57   H46   S    
C65   H74   S    
C7    C14   A    
C32   C52   S    
C55   H49   S    
O9    Zn1   S    
C54   H35   S    
C69   H81   S    
C31   C33   A    
C61   H50   S    
C12   O3    A    
C44   H11   S    
C9    C10   A    
C66   H72   S    
C52   H41   S    
C27   C45   A    
C18   C69   S    
C52   H40   S    
C41   H5    S    
C59   C60   S    
C2    C45   A    
C15   H34   S    
C40   H7    S    
C19   C72   S    
C72   H90   S    
C31   C49   S    
C69   H82   S    
C49   H32   S    
C64   H61   S    
C6    C65   S    
C73   C74   S    
C46   H25   S    
C6    N2    A    
C70   H79   S    
C32   C35   A    
C24   C25   S    
C60   H54   S    
C39   C40   S    
C5    C7    A    
C2    C59   S    
C37   H89   S    
C23   C33   A    
C51   H28   S    
N2    Zn2   S    
C10   C13   A    
C43   H15   S    
C47   H24   S    
C4    N2    A    
C60   C61   S    
C38   H56   S    
C43   C44   S    
C73   H86   S    
C57   H47   S    
C47   C48   S    
C2    C75   A    
C51   H29   S    
C23   C34   A    
C35   C75   A    
C62   C63   S    
C58   H44   S    
C50   C51   S    
C72   H88   S    
C54   H36   S    
C61   H51   S    
C24   C36   S    
H58   O10   S    
C9    C11   A    
C66   H71   S    
C70   C71   S    
C71   H75   S    
C55   C76   S    
C74   H83   S    
C68   H70   S    
C8    C10   A    
C40   C41   S    
C49   C50   S    
C8    C15   A    
C55   C57   S    
C22   C26   S    
C50   H31   S    
C70   H80   S    
O3    Zn2   S    
C42   C43   S    
C39   H9    S    
C62   H65   S    
C44   H14   S    
C53   H38   S    
C33   C67   A    
C49   H33   S    
C17   O9    A    
C7    C9    A    
C21   C25   T    
C46   C47   S    
C48   H20   S    
C42   H18   S    
C63   H63   S    
C37   H78   S    
C72   C73   S    
C36   H3    S    
C60   H53   S    
C74   H85   S    
C6    C8    A    
O7    Zn2   S    
C1    O4    A    
C43   H16   S    
C74   H84   S    
C28   C46   S    
C28   C30   A    
C41   H6    S    
C29   C31   A    
C36   H2    S    
C30   C32   A    
C27   C42   S    
C16   O8    A    
C57   C58   S    
C20   C26   T    
C22   C39   S    
C1    O1    A    
C1    C30   S    
C59   H57   S    
C5    C62   S    
C68   H68   S    
C61   H52   S    
C22   C24   D    
C5    N1    A    
C65   H73   S    
C69   C70   S    
C38   H45   S    
C3    C11   A    
C44   H13   S    
C63   C64   S    
C17   O7    A    
C75   H12   S    
O8    Zn2   S    
C58   H43   S    
C73   H87   S    
C65   C66   S    
C55   H48   S    
C50   H30   S    
C71   H76   S    
C67   C76   A    
C39   H10   S    
C51   H27   S    
O6    Zn1   S    
O1    Zn1   S    
C68   H69   S    
C53   H39   S    
C12   O5    A    
