data_mof_unit_66765.cif
_audit_creation_date              2012-12-11T14:19:34-0500
_audit_creation_method            fapswitch 2.2
_symmetry_space_group_name_H-M    P1
_symmetry_Int_Tables_number       1
_space_group_crystal_system       triclinic
_cell_length_a                    8.230707
_cell_length_b                    12.812143
_cell_length_c                    15.066057
_cell_angle_alpha                 95.692634
_cell_angle_beta                  99.243587
_cell_angle_gamma                 98.089746
_cell_volume                      1540.41865048

loop_
_atom_site_label
_atom_site_type_symbol
_atom_type_description
_atom_site_fract_x
_atom_site_fract_y
_atom_site_fract_z
_atom_type_partial_charge
Ba1   Ba    Ba6+2 0.153570 0.551840 0.456200 1.653283
Ba2   Ba    Ba6+2 0.656590 0.448150 0.543720 1.665786
C1    C     C_3   0.485422 0.885182 0.150823 -0.408619
C2    C     C_R   0.728079 0.817575 0.469877 -0.260041
C3    C     C_R   0.688650 0.996071 0.440955 -0.111275
C4    C     C_3   0.935399 0.723212 0.081996 0.297420
C5    C     C_R   0.626060 0.887395 0.435320 -0.009162
C6    C     C_R   0.888643 0.853402 0.518298 0.049199
C7    C     C_R   0.951087 0.966422 0.530304 -0.042527
C8    C     C_R   0.851026 0.038618 0.487997 -0.051573
C9    C     C_R   0.916786 0.150444 0.493951 0.103133
C10   C     C_R   0.173619 0.118353 0.588578 -0.069529
C11   C     C_R   0.111601 0.008991 0.580099 -0.137439
C12   C     C_3   0.425500 0.807469 0.213212 0.376146
C13   C     C_R   0.230872 0.460634 0.768609 -0.248225
C14   C     C_R   0.129593 0.425276 0.828925 -0.000365
C15   C     C_R   0.189723 0.441971 0.922483 -0.135955
C16   C     C_3   0.047531 0.804000 0.042557 -0.385168
C17   C     C_R   0.350332 0.500514 0.957690 0.027205
C18   C     C_R   0.443365 0.544209 0.894318 -0.096118
C19   C     C_R   0.385629 0.522533 0.800917 0.047890
C20   C     C_R   0.586792 0.565608 0.089446 -0.142624
C21   C     C_R   0.655540 0.587013 0.181366 -0.022969
C22   C     C_R   0.402389 0.495443 0.217312 0.111479
C23   C     C_3   0.632794 0.772502 0.686290 0.296625
C24   C     C_R   0.328393 0.482955 0.124894 -0.127850
C25   C     C_R   0.419441 0.519236 0.058571 0.000311
C26   C     C_R   0.561931 0.553035 0.245505 -0.253431
C27   C     C_3   0.715448 0.311431 0.272919 0.300059
C28   C     C_3   0.648429 0.279802 0.172194 -0.395687
C29   C     C_3   0.081215 0.684547 0.727295 0.297828
C30   C     C_3   0.104620 0.710472 0.829373 -0.412984
C31   C     C_3   0.130015 0.224324 0.240378 0.705097
C32   C     C_3   0.099563 0.127300 0.166905 0.299738
C33   C     C_3   0.265532 0.185347 0.381854 0.241604
C34   C     C_3   0.597020 0.883899 0.674337 -0.372539
C35   C     C_3   0.266056 0.071394 0.392961 -0.298869
C36   C     C_3   0.913422 0.991505 0.202804 0.252866
C37   C     C_3   0.903987 0.907456 0.266921 -0.240413
C38   C     C_3   0.916520 0.165706 0.761020 0.363417
C39   C     C_3   0.928024 0.068398 0.810777 -0.393152
C40   C     C_3   0.374183 0.087954 0.785121 0.318907
C41   C     C_3   0.441283 0.084459 0.885375 -0.336227
C42   C     C_R   0.071973 0.187572 0.549840 -0.229663
H1    H     H_    0.338234 0.739710 0.171938 0.072424
H2    H     H_    0.030039 0.270459 0.218231 -0.019707
H3    H     H_    0.379323 0.914034 0.111239 0.129868
H4    H     H_    0.992039 0.132140 0.112495 -0.101938
H5    H     H_    0.208145 0.128880 0.131314 0.038098
H6    H     H_    0.534696 0.775346 0.246481 -0.081799
H7    H     H_    0.554842 0.845972 0.103181 0.059154
H8    H     H_    0.764775 0.777979 0.719363 0.041106
H9    H     H_    0.612031 0.726105 0.617658 0.023624
H10   H     H_    0.601028 0.928003 0.742044 0.114564
H11   H     H_    0.692719 0.926891 0.641337 0.065282
H12   H     H_    0.537542 0.216748 0.162266 0.129951
H13   H     H_    0.471141 0.880099 0.632294 0.135205
H14   H     H_    0.567485 0.954954 0.192120 0.102279
H15   H     H_    0.977767 0.826503 0.979961 0.068548
H16   H     H_    0.830713 0.142011 0.694954 0.078225
H17   H     H_    0.042840 0.196278 0.748204 -0.079368
H18   H     H_    0.960509 0.002966 0.765710 0.077170
H19   H     H_    0.025006 0.088939 0.873421 0.106939
H20   H     H_    0.807169 0.040733 0.831522 0.120346
H21   H     H_    0.387840 0.012835 0.745061 0.004093
H22   H     H_    0.239775 0.093911 0.777684 -0.020872
H23   H     H_    0.612338 0.349486 0.140487 0.079878
H24   H     H_    0.372879 0.014084 0.908822 0.059646
H25   H     H_    0.423090 0.157730 0.926907 0.115682
H26   H     H_    0.811110 0.748945 0.077268 -0.021726
H27   H     H_    0.576883 0.078372 0.895458 0.123938
H28   H     H_    0.610587 0.045875 0.406964 0.075448
H29   H     H_    0.191925 0.957357 0.609852 0.093906
H30   H     H_    0.120360 0.271593 0.557748 0.060580
H31   H     H_    0.678521 0.733723 0.462249 0.060666
H32   H     H_    0.669823 0.576083 0.042528 0.049941
H33   H     H_    0.107314 0.411098 0.965812 0.065358
H34   H     H_    0.745092 0.249256 0.137968 0.103472
H35   H     H_    0.204417 0.438267 0.106096 0.080999
H36   H     H_    0.558256 0.599007 0.915092 0.044642
H37   H     H_    0.620377 0.559723 0.315919 0.063785
H38   H     H_    0.928048 0.644872 0.041209 0.036196
H39   H     H_    0.183801 0.447513 0.696427 0.049433
H40   H     H_    0.090017 0.876806 0.091086 0.183096
H41   H     H_    0.158117 0.770198 0.026926 0.096648
H42   H     H_    0.617903 0.342937 0.305237 0.013378
H43   H     H_    0.825695 0.374494 0.281185 0.082007
H44   H     H_    0.280103 0.234536 0.447703 0.054569
H45   H     H_    0.194844 0.659758 0.707992 0.024293
H46   H     H_    0.382100 0.210204 0.357009 0.096058
H47   H     H_    0.142627 0.033357 0.402733 0.139804
H48   H     H_    0.300850 0.031822 0.332157 0.174747
H49   H     H_    0.360929 0.065047 0.451305 0.103605
H50   H     H_    0.854734 0.955031 0.132858 0.034357
H51   H     H_    0.843094 0.054793 0.224664 0.076327
H52   H     H_    0.022377 0.874167 0.278656 0.213316
H53   H     H_    0.886500 0.943267 0.333641 0.054326
H54   H     H_    0.798507 0.842555 0.239461 0.025523
H55   H     H_    0.974906 0.618567 0.706180 0.068831
H56   H     H_    0.205610 0.779529 0.853489 0.129847
H57   H     H_    0.136614 0.641683 0.863546 0.062270
H58   H     H_    0.985629 0.729596 0.847260 0.112672
O1    O     O_2   0.168170 0.764170 0.543850 -0.443807
O2    O     O_2   0.791717 0.434582 0.820234 -0.460687
O3    O     O_3   0.853389 0.241290 0.814168 -0.564998
O4    O     O_3   0.898670 0.629780 0.545890 -0.504049
O5    O     O_3   0.409490 0.443300 0.392340 -0.494827
O6    O     O_2   0.674250 0.555830 0.719690 -0.470713
O7    O     O_3   0.530347 0.728689 0.743696 -0.647688
O8    O     O_2   0.524807 0.115406 0.596331 -0.514944
O9    O     O_3   0.460696 0.177011 0.756139 -0.548833
O10   O     O_3   0.365980 0.695510 0.380810 -0.461064
O11   O     O_2   0.284213 0.873921 0.439708 -0.489239
O12   O     O_3   0.287346 0.282555 0.240715 -0.735801
O13   O     O_3   0.051300 0.776371 0.688751 -0.651754
O14   O     O_3   0.340909 0.859676 0.273935 -0.579131
O15   O     O_2   0.136040 0.444100 0.280280 -0.465304
O16   O     O_3   0.934510 0.640480 0.335500 -0.460830
O17   O     O_2   0.945254 0.519061 0.182560 -0.497179
O18   O     O_3   0.112660 0.196648 0.327555 -0.683031
O19   O     O_3   0.082560 0.031172 0.204683 -0.650110
O20   O     O_3   0.003608 0.720188 0.173116 -0.576019
O21   O     O_2   0.642110 0.235770 0.456130 -0.511139
O22   O     O_3   0.911620 0.370210 0.454030 -0.486349
O23   O     O_3   0.444310 0.304480 0.619110 -0.442352
O24   O     O_3   0.759759 0.221800 0.311081 -0.629419
O25   O     O_3   0.400800 0.556680 0.607590 -0.472539
O26   O     O_3   0.875770 0.359510 0.664420 -0.488299
P1    P     P_3+3 0.998660 0.747790 0.570900 0.966202
P2    P     P_3+3 0.306970 0.411860 0.294270 0.964794
P3    P     P_3+3 0.881875 0.620546 0.216592 0.946539
P4    P     P_3+3 0.811620 0.252200 0.429030 1.007335
P5    P     P_3+3 0.912513 0.366820 0.782718 0.998564
P6    P     P_3+3 0.407766 0.831958 0.384065 0.960310
P7    P     P_3+3 0.498242 0.590265 0.721002 0.951345
P8    P     P_3+3 0.397073 0.172951 0.638983 0.958711

loop_
_geom_bond_atom_site_label_1
_geom_bond_atom_site_label_2
_ccdc_geom_bond_type
O4    P1    S    
C38   H16   S    
O21   P4    D    
O7    P7    S    
O8    P8    D    
C17   C18   A    
C20   H32   S    
C2    C6    A    
C9    P4    S    
Ba2   O21   S    
C24   C25   A    
C4    H38   S    
C33   C35   S    
C23   H9    S    
C3    H28   S    
Ba1   P1    S    
O5    P2    S    
Ba1   O10   S    
C36   C37   S    
O9    P8    S    
C37   H53   S    
O14   P6    S    
C13   C14   A    
Ba2   O5    S    
O22   P4    S    
Ba1   Ba2   S    
Ba2   O6    S    
C7    C11   A    
C2    H31   S    
O16   P3    S    
C14   C15   A    
C29   H45   S    
C36   H51   S    
C40   H21   S    
Ba2   P4    S    
C29   H55   S    
C17   C25   S    
C7    C8    A    
Ba1   O1    S    
C28   H23   S    
C23   O7    S    
Ba1   O4    S    
Ba2   O25   S    
C1    H14   S    
C41   H25   S    
C27   O24   S    
C31   H2    S    
O12   P2    S    
C33   O18   S    
C39   H18   S    
C2    C5    A    
C14   P5    S    
C29   O13   S    
C12   H1    S    
C4    C16   S    
C16   H41   S    
C27   H43   S    
O2    P5    D    
C18   H36   S    
C35   H49   S    
C22   C26   A    
O6    P7    D    
C34   H13   S    
C3    C5    A    
C1    H7    S    
C6    C7    A    
C37   H54   S    
C13   H39   S    
C28   H12   S    
Ba2   O4    S    
C38   H17   S    
C30   H56   S    
C28   H34   S    
C40   O9    S    
Ba2   O23   S    
C27   C28   S    
C33   H44   S    
O17   P3    D    
C29   C30   S    
O24   P4    S    
C36   H50   S    
C15   H33   S    
C31   C32   S    
C31   O12   S    
C21   P3    S    
C9    C42   A    
Ba1   O15   S    
C21   C26   A    
C10   C11   A    
C42   H30   S    
O15   P2    D    
O1    P1    D    
C27   H42   S    
C1    C12   S    
C5    P6    S    
O23   P8    S    
C38   C39   S    
C11   H29   S    
Ba1   P2    S    
C32   O19   S    
O11   P6    D    
C30   H58   S    
C32   H4    S    
C40   C41   S    
C4    O20   S    
O20   P3    S    
O3    P5    S    
O13   P1    S    
C4    H26   S    
C32   H5    S    
C41   H27   S    
C35   H48   S    
C26   H37   S    
C30   H57   S    
Ba1   O25   S    
O10   P6    S    
Ba2   O22   S    
C41   H24   S    
C24   H35   S    
C20   C25   A    
Ba1   O22   S    
C16   H40   S    
C10   C42   A    
C34   H11   S    
O26   P5    S    
C22   C24   A    
C12   H6    S    
C13   C19   A    
C12   O14   S    
C1    H3    S    
C15   C17   A    
Ba1   O16   S    
O25   P7    S    
C37   H52   S    
C23   H8    S    
C36   O19   S    
C34   H10   S    
C8    C9    A    
C23   C34   S    
Ba1   O5    S    
C33   H46   S    
C22   P2    S    
C16   H15   S    
C3    C8    A    
C18   C19   A    
C31   O18   S    
C10   P8    S    
C6    P1    S    
C40   H22   S    
C39   H19   S    
C20   C21   A    
C39   H20   S    
C19   P7    S    
C35   H47   S    
C38   O3    S    
Ba2   O26   S    
