data_mof_unit_29545.cif
_audit_creation_date              2012-12-10T20:31:05-0500
_audit_creation_method            fapswitch 2.2
_symmetry_space_group_name_H-M    P1
_symmetry_Int_Tables_number       1
_space_group_crystal_system       triclinic
_cell_length_a                    14.936458
_cell_length_b                    10.664836
_cell_length_c                    9.874323
_cell_angle_alpha                 90.231954
_cell_angle_beta                  89.885836
_cell_angle_gamma                 90.645731
_cell_volume                      1572.81328549

loop_
_atom_site_label
_atom_site_type_symbol
_atom_type_description
_atom_site_fract_x
_atom_site_fract_y
_atom_site_fract_z
_atom_type_partial_charge
C1    C     C_R   0.503747 0.260004 0.499813 0.889712
C2    C     C_R   0.907681 0.591498 0.423515 0.063488
C3    C     C_R   0.948612 0.315043 0.646000 -0.212772
C4    C     C_R   0.041230 0.310038 0.642891 -0.202336
C5    C     C_R   0.091073 0.400004 0.569963 0.077354
C6    C     C_R   0.046167 0.495949 0.499074 0.041394
C7    C     C_R   0.094579 0.588210 0.426769 0.106432
C8    C     C_R   0.050203 0.680720 0.353782 -0.250968
C9    C     C_R   0.957049 0.682631 0.350659 -0.001182
C10   C     C_R   0.184651 0.396651 0.565408 -0.055751
C11   C     C_R   0.231311 0.493571 0.499226 -0.112616
C12   C     C_R   0.327010 0.498097 0.499926 0.903929
C13   C     C_R   0.187104 0.587120 0.428995 -0.271300
C14   C     C_R   0.533596 0.065069 0.620024 0.129127
C15   C     C_R   0.520894 0.129176 0.498877 -0.100805
C16   C     C_R   0.527700 0.064751 0.375240 -0.218762
C17   C     C_R   0.527406 0.935238 0.375397 -0.223840
C18   C     C_R   0.519945 0.871647 0.499171 -0.104985
C19   C     C_R   0.532466 0.937013 0.620170 0.155179
C20   C     C_3   0.483153 0.930477 0.751926 -0.474854
C21   C     C_3   0.485566 0.072674 0.752761 -0.480652
C22   C     C_R   0.446961 0.417444 0.071079 0.210489
C23   C     C_R   0.503423 0.740153 0.500065 0.878701
C24   C     C_R   0.558299 0.573188 0.072689 -0.167770
C25   C     C_R   0.558537 0.573345 0.928765 0.004126
C26   C     C_R   0.447030 0.417234 0.928644 0.186750
C27   C     C_3   0.347395 0.408079 0.923946 -0.493263
C28   C     C_3   0.347466 0.408742 0.077560 -0.495246
C29   C     C_R   0.672911 0.500981 0.499881 0.885942
C30   C     C_R   0.814394 0.589744 0.423240 -0.243934
C31   C     C_R   0.768082 0.500940 0.499796 -0.048780
C32   C     C_R   0.811883 0.411536 0.576115 -0.249020
C33   C     C_R   0.904311 0.408181 0.574384 0.134887
C34   C     C_R   0.952775 0.498757 0.499081 0.052074
H1    H     H_    0.776990 0.658027 0.366016 0.151732
H2    H     H_    0.525552 0.886238 0.279093 0.173549
H3    H     H_    0.414448 0.890366 0.741297 0.209774
H4    H     H_    0.523963 0.889196 0.834007 0.208768
H5    H     H_    0.418363 0.114919 0.744932 0.229369
H6    H     H_    0.528741 0.112901 0.833979 0.202842
H7    H     H_    0.603908 0.633905 0.128242 0.151061
H8    H     H_    0.316024 0.492478 0.879455 0.224035
H9    H     H_    0.324139 0.317180 0.881059 0.215857
H10   H     H_    0.316638 0.494057 0.121846 0.224060
H11   H     H_    0.773667 0.342964 0.633909 0.143982
H12   H     H_    0.324000 0.318646 0.122202 0.205041
H13   H     H_    0.911535 0.245352 0.703584 0.153197
H14   H     H_    0.073322 0.236250 0.699258 0.163647
H15   H     H_    0.225235 0.659291 0.376349 0.149130
H16   H     H_    0.088278 0.751159 0.298496 0.153691
H17   H     H_    0.525745 0.112923 0.278916 0.174133
N1    N     N_R   0.499390 0.499140 0.142800 -0.111712
N2    N     N_R   0.499390 0.499180 0.857150 -0.130073
O1    O     O_R   0.500010 0.316790 0.614690 -0.617309
O2    O     O_R   0.500000 0.316760 0.385350 -0.623913
O3    O     O_R   0.367850 0.499990 0.614680 -0.617194
O4    O     O_R   0.367840 0.499950 0.385340 -0.620918
O5    O     O_R   0.500000 0.683240 0.614650 -0.615941
O6    O     O_R   0.499990 0.683210 0.385310 -0.629208
O7    O     O_R   0.632160 0.500050 0.614660 -0.615690
O8    O     O_R   0.632150 0.500010 0.385320 -0.622474
Zn1   Zn    Zn3+2 0.500010 0.500020 0.653130 0.958706
Zn2   Zn    Zn3+2 0.499990 0.499980 0.346870 0.946177
C35   C     C_1   0.620741 0.654258 0.859019 0.224161
N3    N     N_1   0.671115 0.719464 0.803505 -0.210959
C36   C     C_1   0.232300 0.289354 0.617169 0.139132
N4    N     N_1   0.269543 0.202530 0.656963 -0.248156
C37   C     C_1   0.914261 0.779495 0.272723 0.155268
N5    N     N_1   0.880025 0.857027 0.210350 -0.204516

loop_
_geom_bond_atom_site_label_1
_geom_bond_atom_site_label_2
_ccdc_geom_bond_type
C24   N1    A    
C23   O5    A    
C11   C12   S    
C29   O7    A    
C24   C25   A    
O5    Zn1   S    
C6    C7    A    
C1    C15   S    
C17   H2    S    
C8    H16   S    
C3    H13   S    
C20   H4    S    
N2    Zn1   S    
O6    Zn2   S    
C19   C20   S    
C21   H5    S    
C16   H17   S    
C7    C13   A    
C30   C31   A    
C2    C30   A    
C6    C34   A    
C32   C33   A    
C2    C34   A    
C17   C18   A    
C1    O2    A    
C9    C37   S    
C5    C10   A    
C29   C31   S    
C22   C28   S    
C4    C5    A    
C35   N3    T    
C23   O6    A    
C20   H3    S    
C11   C13   A    
C27   H8    S    
C28   H12   S    
C26   C27   S    
C12   O3    A    
C21   H6    S    
C24   H7    S    
C30   H1    S    
C1    O1    A    
C13   H15   S    
C12   O4    A    
C14   C21   S    
O7    Zn1   S    
C25   C35   S    
C25   N2    A    
C33   C34   A    
O3    Zn1   S    
C10   C36   S    
C22   C26   A    
C5    C6    A    
C29   O8    A    
C10   C11   A    
C3    C33   A    
C18   C23   S    
C26   N2    A    
C27   H9    S    
C7    C8    A    
C36   N4    T    
C20   C21   S    
C22   N1    A    
C18   C19   A    
C32   H11   S    
C4    H14   S    
C27   C28   S    
O8    Zn2   S    
C14   C15   A    
C16   C17   A    
O1    Zn1   S    
C37   N5    T    
C2    C9    A    
C14   C19   A    
C28   H10   S    
C31   C32   A    
C3    C4    A    
C15   C16   A    
O4    Zn2   S    
C8    C9    A    
N1    Zn2   S    
O2    Zn2   S    
