data_mof_unit_14945.cif
_audit_creation_date              2012-12-10T20:31:08-0500
_audit_creation_method            fapswitch 2.2
_symmetry_space_group_name_H-M    P1
_symmetry_Int_Tables_number       1
_space_group_crystal_system       triclinic
_cell_length_a                    14.937067
_cell_length_b                    10.692767
_cell_length_c                    9.894647
_cell_angle_alpha                 89.373392
_cell_angle_beta                  89.181928
_cell_angle_gamma                 90.300504
_cell_volume                      1580.08030283

loop_
_atom_site_label
_atom_site_type_symbol
_atom_type_description
_atom_site_fract_x
_atom_site_fract_y
_atom_site_fract_z
_atom_type_partial_charge
C1    C     C_R   0.502473 0.259952 0.500445 0.921726
C2    C     C_R   0.185362 0.409206 0.575707 -0.264554
C3    C     C_R   0.232085 0.500719 0.502517 -0.047628
C4    C     C_R   0.327198 0.499466 0.500883 0.903816
C5    C     C_R   0.188958 0.593708 0.430327 -0.252283
C6    C     C_R   0.513490 0.061580 0.622481 0.097405
C7    C     C_R   0.515957 0.128327 0.500881 -0.065708
C8    C     C_R   0.535632 0.066230 0.379636 -0.218471
C9    C     C_R   0.536294 0.936724 0.378823 -0.212160
C10   C     C_R   0.517492 0.871096 0.499319 -0.077037
C11   C     C_R   0.514756 0.934000 0.621515 0.056946
C12   C     C_R   0.909477 0.605506 0.431121 0.090797
C13   C     C_3   0.449648 0.921573 0.736881 -0.495146
C14   C     C_3   0.447715 0.063289 0.738089 0.231143
C15   C     C_R   0.423565 0.473594 0.073113 0.148216
C16   C     C_R   0.503180 0.739805 0.499333 0.861182
C17   C     C_R   0.571443 0.545065 0.068265 0.433516
C18   C     C_R   0.572313 0.540505 0.925095 -0.138652
C19   C     C_R   0.423106 0.475474 0.931063 0.195181
C20   C     C_3   0.367218 0.359926 0.927772 -0.483542
C21   C     C_3   0.368709 0.357224 0.081445 -0.476988
C22   C     C_R   0.672945 0.503039 0.499271 0.854461
C23   C     C_R   0.948299 0.316820 0.639214 -0.173697
C24   C     C_R   0.815127 0.606665 0.430490 -0.057455
C25   C     C_R   0.768696 0.509325 0.498619 -0.121145
C26   C     C_R   0.812710 0.415142 0.568401 -0.228910
C27   C     C_R   0.905004 0.412853 0.569676 0.071466
C28   C     C_R   0.953921 0.506839 0.500255 0.036673
C29   C     C_2   0.763403 0.709718 0.366436 0.426525
C30   C     C_2   0.083751 0.203278 0.713016 0.396551
C31   C     C_R   0.041700 0.311034 0.641698 -0.022417
C32   C     C_R   0.091928 0.406037 0.573463 0.021623
C33   C     C_R   0.047410 0.503132 0.501841 0.075689
C34   C     C_R   0.096644 0.597540 0.432179 0.137999
C35   C     C_R   0.053374 0.695736 0.367030 -0.228568
C36   C     C_R   0.960867 0.701176 0.368507 -0.151753
H1    H     H_    0.545436 0.889017 0.283621 0.173707
H2    H     H_    0.406269 0.276674 0.123900 0.210011
H3    H     H_    0.908638 0.244894 0.690391 0.189808
H4    H     H_    0.223539 0.341463 0.632119 0.146940
H5    H     H_    0.227652 0.664745 0.375828 0.144704
H6    H     H_    0.091268 0.769646 0.316258 0.160312
H7    H     H_    0.931311 0.781844 0.320874 0.205127
H8    H     H_    0.544593 0.116559 0.284748 0.173384
H9    H     H_    0.704115 0.745496 0.417160 0.028504
H10   H     H_    0.324279 0.100312 0.779176 0.333230
H11   H     H_    0.617440 0.646712 0.206939 0.365611
H12   H     H_    0.385339 0.877227 0.707443 0.224142
H13   H     H_    0.152502 0.177057 0.693246 0.075799
H14   H     H_    0.480984 0.880297 0.828204 0.174241
H15   H     H_    0.475604 0.104842 0.831080 0.090846
H16   H     H_    0.630668 0.573186 0.868897 0.188278
H17   H     H_    0.299654 0.377854 0.886288 0.210473
H18   H     H_    0.403675 0.281617 0.881253 0.222613
H19   H     H_    0.301896 0.373554 0.128708 0.218399
H20   H     H_    0.774362 0.342171 0.620445 0.149539
N1    N     N_R   0.499390 0.499140 0.142800 -0.170495
N2    N     N_R   0.499390 0.499180 0.857150 -0.148649
O1    O     O_R   0.500010 0.316790 0.614690 -0.604823
O2    O     O_3   0.364556 0.111048 0.699257 -0.762082
O3    O     O_3   0.642628 0.601073 0.129079 -0.708411
O4    O     O_2   0.040785 0.139886 0.794628 -0.556671
O5    O     O_R   0.500000 0.316760 0.385350 -0.630057
O6    O     O_R   0.367850 0.499990 0.614680 -0.609127
O7    O     O_R   0.367840 0.499950 0.385340 -0.616674
O8    O     O_R   0.500000 0.683240 0.614650 -0.613163
O9    O     O_R   0.499990 0.683210 0.385310 -0.656777
O10   O     O_R   0.632160 0.500050 0.614660 -0.629902
O11   O     O_R   0.632150 0.500010 0.385320 -0.598051
O12   O     O_2   0.783139 0.750510 0.254171 -0.537947
Zn1   Zn    Zn3+2 0.500010 0.500020 0.653130 0.955785
Zn2   Zn    Zn3+2 0.499990 0.499980 0.346870 0.956574

loop_
_geom_bond_atom_site_label_1
_geom_bond_atom_site_label_2
_ccdc_geom_bond_type
H11   O3    S    
O11   Zn2   S    
C8    H8    S    
C24   C25   A    
O1    Zn1   S    
C6    C7    A    
C23   C27   A    
C6    C14   S    
O7    Zn2   S    
C14   O2    S    
C9    C10   A    
C4    O6    A    
C22   O11   A    
O8    Zn1   S    
C15   C21   S    
C17   O3    S    
C5    C34   A    
C19   C20   S    
C9    H1    S    
C33   C34   A    
C3    C4    S    
C18   H16   S    
C7    C8    A    
N1    Zn2   S    
C16   O9    A    
C10   C16   S    
C13   C14   S    
O5    Zn2   S    
C15   C19   A    
C15   N1    A    
C6    C11   A    
C22   O10   A    
C26   C27   A    
C30   C31   S    
C35   C36   A    
C12   C28   A    
O10   Zn1   S    
C23   H3    S    
C1    O5    A    
C20   H18   S    
C30   H13   S    
C28   C33   A    
C17   C18   A    
C29   O12   D    
C2    C3    A    
C1    O1    A    
C19   N2    A    
C4    O7    A    
N2    Zn1   S    
C23   C31   A    
C12   C36   A    
C10   C11   A    
C30   O4    D    
C13   H14   S    
C2    H4    S    
C11   C13   S    
O9    Zn2   S    
C16   O8    A    
C20   C21   S    
C22   C25   S    
C14   H15   S    
C2    C32   A    
C34   C35   A    
O6    Zn1   S    
C17   N1    A    
C27   C28   A    
C21   H19   S    
C35   H6    S    
C5    H5    S    
C24   C29   S    
C20   H17   S    
C36   H7    S    
C12   C24   A    
H10   O2    S    
C25   C26   A    
C1    C7    S    
C18   N2    A    
C21   H2    S    
C31   C32   A    
C32   C33   A    
C29   H9    S    
C8    C9    A    
C3    C5    A    
C13   H12   S    
C26   H20   S    
