data_mof_unit_41884.cif
_audit_creation_date              2012-12-10T18:49:26-0500
_audit_creation_method            fapswitch 2.2
_symmetry_space_group_name_H-M    P1
_symmetry_Int_Tables_number       1
_space_group_crystal_system       triclinic
_cell_length_a                    9.850787
_cell_length_b                    10.686634
_cell_length_c                    13.591942
_cell_angle_alpha                 90.374704
_cell_angle_beta                  82.875131
_cell_angle_gamma                 89.856318
_cell_volume                      1419.76056337

loop_
_atom_site_label
_atom_site_type_symbol
_atom_type_description
_atom_site_fract_x
_atom_site_fract_y
_atom_site_fract_z
_atom_type_partial_charge
C1    C     C_R   0.499938 0.739922 0.498303 0.896777
C2    C     C_R   0.915779 0.578263 0.562955 0.567452
C3    C     C_1   0.544117 0.491587 0.210264 -0.185257
C4    C     C_1   0.455332 0.506362 0.789689 -0.192012
C5    C     C_2   0.553463 0.476618 0.018013 0.387701
C6    C     C_2   0.441092 0.518567 0.982573 0.389495
C7    C     C_1   0.442629 0.512333 0.877561 -0.100334
C8    C     C_1   0.554928 0.483918 0.122471 -0.080979
C9    C     C_R   0.592489 0.933792 0.550562 -0.308723
C10   C     C_R   0.407369 0.066619 0.450565 -0.299336
C11   C     C_R   0.592245 0.062504 0.555555 0.208800
C12   C     C_R   0.499913 0.260212 0.501821 0.888523
C13   C     C_R   0.404918 0.938025 0.448029 0.198020
C14   C     C_3   0.118662 0.305129 0.289180 0.054705
C15   C     C_3   0.235165 0.258064 0.214046 -0.791223
C16   C     C_3   0.881550 0.696109 0.710432 0.051610
C17   C     C_3   0.765058 0.743139 0.785619 -0.807950
C18   C     C_3   0.210885 0.575107 0.008708 0.108412
C19   C     C_3   0.101514 0.629136 0.086285 -0.827834
C20   C     C_3   0.785215 0.449389 0.973145 0.101033
C21   C     C_3   0.888876 0.391531 0.893381 -0.834939
C22   C     C_3   0.621606 0.165333 0.710064 -0.722066
C23   C     C_R   0.499782 0.127933 0.503833 -0.084087
C24   C     C_3   0.172459 0.876167 0.435520 -0.720461
C25   C     C_R   0.498891 0.872424 0.498176 -0.092332
C26   C     C_R   0.475252 0.500759 0.685853 0.896147
C27   C     C_R   0.524710 0.499136 0.314109 0.906350
C28   C     C_R   0.938207 0.421001 0.439190 -0.336913
C29   C     C_R   0.061719 0.578481 0.561224 -0.347982
C30   C     C_R   0.084178 0.421615 0.437161 0.571371
H1    H     H_    0.888273 0.357570 0.393093 0.154642
H2    H     H_    0.955131 0.774151 0.693833 0.137479
H3    H     H_    0.931904 0.617193 0.745149 0.135156
H4    H     H_    0.690222 0.666971 0.804471 0.267881
H5    H     H_    0.805966 0.773931 0.854342 0.199545
H6    H     H_    0.712591 0.823472 0.755089 0.243468
H7    H     H_    0.183268 0.476450 0.993485 0.133789
H8    H     H_    0.212339 0.631827 0.940179 0.147006
H9    H     H_    0.124776 0.728505 0.101622 0.259492
H10   H     H_    0.000073 0.624123 0.058886 0.189482
H11   H     H_    0.097709 0.575325 0.156130 0.255408
H12   H     H_    0.111623 0.641164 0.607888 0.149327
H13   H     H_    0.809626 0.417427 0.046745 0.150011
H14   H     H_    0.794732 0.553166 0.968268 0.129991
H15   H     H_    0.862375 0.415746 0.818736 0.263132
H16   H     H_    0.992722 0.427367 0.900791 0.192068
H17   H     H_    0.888923 0.288100 0.900815 0.254586
H18   H     H_    0.774526 0.078069 0.615899 0.220419
H19   H     H_    0.590347 0.082735 0.756672 0.223475
H20   H     H_    0.530743 0.225284 0.704310 0.228461
H21   H     H_    0.696671 0.220772 0.746572 0.255283
H22   H     H_    0.323352 0.904828 0.318241 0.218819
H23   H     H_    0.663128 0.881604 0.589830 0.192779
H24   H     H_    0.129383 0.972425 0.435741 0.221984
H25   H     H_    0.164086 0.841342 0.512847 0.244910
H26   H     H_    0.111520 0.813941 0.392249 0.234656
H27   H     H_    0.337974 0.118600 0.410053 0.196025
H28   H     H_    0.069226 0.384906 0.254841 0.132111
H29   H     H_    0.044463 0.227397 0.304936 0.139739
H30   H     H_    0.287102 0.177307 0.244430 0.237255
H31   H     H_    0.194418 0.227942 0.145089 0.202305
H32   H     H_    0.310337 0.334009 0.195613 0.271462
N1    N     N_R   0.142790 0.500030 0.500020 -0.111799
N2    N     N_R   0.857210 0.499970 0.499980 -0.114666
N3    N     N_2   0.683517 0.125088 0.612866 -0.294371
N4    N     N_2   0.313718 0.875410 0.390909 -0.288903
O1    O     O_R   0.385380 0.683250 0.500010 -0.601674
O2    O     O_3   0.828732 0.658386 0.622833 -0.580776
O3    O     O_3   0.338788 0.580354 0.045352 -0.624675
O4    O     O_3   0.653052 0.410464 0.956831 -0.624309
O5    O     O_R   0.614620 0.316750 0.499990 -0.600889
O6    O     O_R   0.614710 0.683220 0.500000 -0.584306
O7    O     O_R   0.385290 0.316780 0.500000 -0.584234
O8    O     O_R   0.368830 0.499990 0.640350 -0.631392
O9    O     O_R   0.631170 0.500010 0.359650 -0.632867
O10   O     O_R   0.598160 0.499960 0.640350 -0.554467
O11   O     O_R   0.401840 0.500040 0.359650 -0.552576
O12   O     O_3   0.171086 0.341383 0.377299 -0.582531
Zn1   Zn    Zn3+2 0.346870 0.500020 0.500000 0.994577
Zn2   Zn    Zn3+2 0.653130 0.499980 0.500000 0.993748

loop_
_geom_bond_atom_site_label_1
_geom_bond_atom_site_label_2
_ccdc_geom_bond_type
C6    O3    S    
C29   N1    A    
C29   H12   S    
C15   H30   S    
C20   O4    S    
C9    C25   A    
N1    Zn1   S    
C24   H25   S    
C14   H29   S    
C12   C23   S    
C2    C29   A    
C18   H7    S    
C2    O2    S    
C5    C6    D    
C24   H24   S    
C18   C19   S    
C11   C23   A    
C16   H2    S    
C1    O1    A    
C16   C17   S    
C26   O10   A    
C16   O2    S    
C17   H6    S    
H18   N3    S    
O9    Zn2   S    
C24   N4    S    
C22   H20   S    
C18   O3    S    
C12   O7    A    
C1    C25   S    
N2    Zn2   S    
C13   C25   A    
C4    C7    T    
C27   O9    A    
O5    Zn2   S    
C20   H14   S    
C2    N2    A    
C21   H15   S    
C13   N4    S    
O11   Zn1   S    
O7    Zn1   S    
C14   H28   S    
C1    O6    A    
C10   H27   S    
O1    Zn1   S    
C3    C8    T    
C22   N3    S    
C5    O4    S    
C16   H3    S    
C15   H31   S    
C9    C11   A    
C19   H9    S    
C22   H19   S    
C28   N2    A    
C12   O5    A    
O8    Zn1   S    
C9    H23   S    
C17   H4    S    
C20   H13   S    
H22   N4    S    
C21   H16   S    
C28   H1    S    
O10   Zn2   S    
C27   O11   A    
C10   C13   A    
C5    C8    S    
C4    C26   S    
C6    C7    S    
C10   C23   A    
C24   H26   S    
C3    C27   S    
C18   H8    S    
O6    Zn2   S    
C28   C30   A    
C26   O8    A    
C15   H32   S    
C14   O12   S    
C19   H10   S    
C30   O12   S    
C11   N3    S    
C20   C21   S    
C14   C15   S    
C17   H5    S    
C30   N1    A    
C19   H11   S    
C22   H21   S    
C21   H17   S    
