data_mof_unit_42175.cif
_audit_creation_date              2012-12-10T19:04:15-0500
_audit_creation_method            fapswitch 2.2
_symmetry_space_group_name_H-M    P1
_symmetry_Int_Tables_number       1
_space_group_crystal_system       triclinic
_cell_length_a                    10.885453
_cell_length_b                    13.010268
_cell_length_c                    13.632197
_cell_angle_alpha                 86.503606
_cell_angle_beta                  87.828284
_cell_angle_gamma                 92.602735
_cell_volume                      1923.44499972

loop_
_atom_site_label
_atom_site_type_symbol
_atom_type_description
_atom_site_fract_x
_atom_site_fract_y
_atom_site_fract_z
_atom_type_partial_charge
C1    C     C_R   0.500997 0.481631 0.684782 0.962831
C2    C     C_1   0.508941 0.467166 0.786702 -0.097473
C3    C     C_2   0.474062 0.032704 0.473502 -0.400341
C4    C     C_R   0.743104 0.498506 0.493455 0.959958
C5    C     C_2   0.528508 0.965299 0.536270 0.402386
C6    C     C_1   0.522920 0.854335 0.522847 0.083502
C7    C     C_1   0.477725 0.145093 0.480579 0.342353
C8    C     C_R   0.497858 0.518216 0.315062 0.935670
C9    C     C_R   0.257599 0.499757 0.498083 0.994138
C10   C     C_3   0.916483 0.413003 0.579125 0.595930
C11   C     C_3   0.061902 0.424048 0.584725 0.110010
C12   C     C_3   0.122730 0.494450 0.492403 -0.329570
C13   C     C_3   0.934210 0.468949 0.377345 0.554984
C14   C     C_3   0.934897 0.601952 0.506614 -0.432744
C15   C     C_3   0.879539 0.490888 0.487660 -0.309667
C16   C     C_3   0.814251 0.586327 0.272201 0.157266
C17   C     C_3   0.821226 0.702440 0.244739 -0.375361
C18   C     C_3   0.713607 0.735852 0.184124 -0.948458
C19   C     C_3   0.171648 0.623256 0.297849 0.094501
C20   C     C_3   0.198894 0.662298 0.190921 -0.300025
C21   C     C_3   0.236269 0.777126 0.182976 -0.980226
C22   C     C_3   0.487773 0.716276 0.990739 0.040368
C23   C     C_3   0.082478 0.458661 0.383809 0.653422
C24   C     C_3   0.434469 0.800098 0.923896 -0.310709
C25   C     C_3   0.481122 0.907386 0.948987 -0.823510
C26   C     C_3   0.885572 0.514355 0.731583 -0.000178
C27   C     C_3   0.913163 0.460430 0.830718 -0.225977
C28   C     C_3   0.919847 0.536321 0.911733 -0.888316
C29   C     C_3   0.074646 0.603531 0.512249 -0.542456
C30   C     C_1   0.496723 0.531254 0.212331 -0.108769
C31   C     C_2   0.491724 0.540063 0.020890 0.338468
C32   C     C_2   0.524576 0.455939 0.976168 0.306966
C33   C     C_1   0.516692 0.457937 0.873144 -0.005578
C34   C     C_1   0.495023 0.538524 0.125207 -0.052963
H1    H     H_    0.119441 0.669697 0.469060 0.204638
H2    H     H_    0.822328 0.745643 0.312526 0.227681
H3    H     H_    0.908079 0.723163 0.201039 0.240967
H4    H     H_    0.708931 0.691239 0.117480 0.248643
H5    H     H_    0.726717 0.819004 0.160755 0.284319
H6    H     H_    0.625973 0.724248 0.228370 0.273854
H7    H     H_    0.254578 0.639689 0.339745 0.150308
H8    H     H_    0.093782 0.667915 0.321999 0.187064
H9    H     H_    0.273541 0.618767 0.158274 0.248809
H10   H     H_    0.115463 0.649127 0.147905 0.247536
H11   H     H_    0.162838 0.822160 0.216142 0.279314
H12   H     H_    0.424452 0.002710 0.412934 0.144387
H13   H     H_    0.250531 0.804037 0.104434 0.279215
H14   H     H_    0.323323 0.791298 0.221050 0.264981
H15   H     H_    0.524752 0.231866 0.938738 0.368671
H16   H     H_    0.589589 0.719878 0.977757 0.142816
H17   H     H_    0.464437 0.731400 0.068559 0.163241
H18   H     H_    0.460944 0.787977 0.846067 0.267667
H19   H     H_    0.332365 0.794791 0.932004 0.229434
H20   H     H_    0.450755 0.922540 0.025261 0.257328
H21   H     H_    0.443524 0.966332 0.897486 0.297027
H22   H     H_    0.583209 0.914234 0.942229 0.269535
H23   H     H_    0.077331 0.473629 0.644784 0.124976
H24   H     H_    0.682855 0.930248 0.766509 0.388907
H25   H     H_    0.805857 0.563153 0.743641 0.178417
H26   H     H_    0.961540 0.569446 0.706818 0.114308
H27   H     H_    0.839846 0.399966 0.851876 0.286915
H28   H     H_    0.002471 0.423225 0.824451 0.265193
H29   H     H_    0.992329 0.597861 0.892424 0.258999
H30   H     H_    0.942631 0.494974 0.981914 0.311067
H31   H     H_    0.829766 0.571799 0.922645 0.250770
H32   H     H_    0.255861 0.194231 0.629632 0.375866
H33   H     H_    0.675234 0.308244 0.279802 0.419451
H34   H     H_    0.911299 0.660703 0.449018 0.236973
H35   H     H_    0.310040 0.260298 0.321534 0.375994
H36   H     H_    0.893519 0.633230 0.573096 0.210092
H37   H     H_    0.099899 0.626632 0.586332 0.202581
H38   H     H_    0.711990 0.268107 0.690207 0.386525
H39   H     H_    0.734237 0.567813 0.322003 0.144754
H40   H     H_    0.802824 0.545778 0.203648 0.224501
N1    N     N_1   0.479840 0.234530 0.484780 -0.048365
N2    N     N_1   0.520150 0.765470 0.515220 -0.091665
O1    O     O_R   0.492620 0.402510 0.634760 -0.583939
O2    O     O_2   0.959749 0.199759 0.566734 -0.110221
O3    O     O_3   0.796701 0.243411 0.692234 -0.416435
O4    O     O_3   0.926303 0.560944 0.314511 -0.677859
O5    O     O_3   0.144343 0.515769 0.300305 -0.580187
O6    O     O_2   0.707609 0.378655 0.076558 -0.250565
O7    O     O_2   0.500692 0.304486 0.119942 -0.288540
O8    O     O_3   0.608427 0.254851 0.956858 -0.492036
O9    O     O_3   0.437183 0.619358 0.967523 -0.639795
O10   O     O_2   0.740176 0.040390 0.599150 -0.192569
O11   O     O_2   0.551861 0.093561 0.683075 -0.304922
O12   O     O_R   0.505570 0.572960 0.644530 -0.612010
O13   O     O_3   0.620933 0.906790 0.720312 -0.583753
O14   O     O_3   0.846823 0.440313 0.665460 -0.654348
O15   O     O_2   0.245893 0.377915 0.706184 -0.358725
O16   O     O_2   0.060569 0.268245 0.729917 -0.215371
O17   O     O_3   0.209753 0.238165 0.583443 -0.447385
O18   O     O_2   0.898529 0.377908 0.205584 -0.208275
O19   O     O_2   0.885232 0.256411 0.348306 -0.176462
O20   O     O_3   0.704702 0.368876 0.314404 -0.572162
O21   O     O_2   0.096991 0.244003 0.423389 -0.203706
O22   O     O_2   0.100452 0.305779 0.252101 -0.176397
O23   O     O_R   0.678730 0.414780 0.495130 -0.538871
O24   O     O_3   0.291956 0.330544 0.340484 -0.504166
O25   O     O_R   0.691680 0.585220 0.504900 -0.641334
O26   O     O_R   0.494430 0.427040 0.355470 -0.522828
O27   O     O_R   0.507380 0.597490 0.365240 -0.677843
O28   O     O_R   0.308320 0.414780 0.495100 -0.500884
O29   O     O_R   0.321270 0.585220 0.504870 -0.657491
O30   O     O_2   0.764755 0.248930 0.508444 -0.231038
S1    S     S_3+6 0.861379 0.274818 0.579398 0.191368
S2    S     S_3+6 0.586201 0.346734 0.036471 0.036459
S3    S     S_3+6 0.612390 0.006093 0.636350 0.060554
S4    S     S_3+6 0.145100 0.324855 0.653037 0.087923
S5    S     S_3+6 0.857277 0.363606 0.312240 0.097537
S6    S     S_3+6 0.138821 0.331204 0.352725 0.136030
Zn1   Zn    Zn3+2 0.491360 0.386190 0.493470 1.142768
Zn2   Zn    Zn3+2 0.508640 0.613810 0.506530 0.973353

loop_
_geom_bond_atom_site_label_1
_geom_bond_atom_site_label_2
_ccdc_geom_bond_type
C24   H18   S    
C31   O9    S    
C12   C29   S    
C1    O1    A    
C19   C20   S    
C25   H22   S    
C23   S6    S    
C12   C23   S    
C26   C27   S    
C16   H40   S    
O15   S4    D    
H38   O3    S    
C3    C7    S    
C10   C15   S    
C5    C6    S    
O30   S1    D    
C9    O29   A    
O13   S3    S    
O18   S5    D    
O7    S2    D    
C13   C23   S    
C1    C2    S    
C22   O9    S    
C18   H6    S    
C27   H27   S    
C16   C17   S    
N2    Zn2   S    
N1    Zn1   S    
C17   H2    S    
O6    S2    D    
C26   H25   S    
C19   H8    S    
O17   S4    S    
C22   H16   S    
C21   H14   S    
C1    O12   A    
C13   O4    S    
C11   S4    S    
O25   Zn2   S    
C14   H36   S    
C10   S1    S    
O1    Zn1   S    
C20   H10   S    
C21   H11   S    
O20   S5    S    
O22   S6    D    
C30   C34   T    
C16   H39   S    
O29   Zn2   S    
O10   S3    D    
C24   C25   S    
C10   C11   S    
O21   S6    D    
C7    N1    T    
C24   H19   S    
O2    S1    D    
C16   O4    S    
C18   H5    S    
H35   O24   S    
C27   H28   S    
C31   C32   D    
C4    O25   A    
O27   Zn2   S    
C17   C18   S    
C31   C34   S    
O3    S1    S    
C17   H3    S    
C25   H20   S    
C11   H23   S    
H32   O17   S    
C28   H30   S    
C2    C33   T    
O24   S6    S    
C13   C15   S    
H33   O20   S    
C22   C24   S    
C14   C29   S    
C20   H9    S    
H15   O8    S    
C26   H26   S    
C23   O5    S    
C25   H21   S    
C3    C5    D    
O23   Zn1   S    
C11   C12   S    
C6    N2    T    
O11   S3    D    
C26   O14   S    
C29   H1    S    
C3    H12   S    
C8    C30   S    
C32   C33   S    
C4    C15   S    
C28   H31   S    
C18   H4    S    
C13   S5    S    
O26   Zn1   S    
O19   S5    D    
O16   S4    D    
C5    S3    S    
C9    O28   A    
O8    S2    S    
H24   O13   S    
O12   Zn2   S    
C8    O27   A    
C9    C12   S    
O28   Zn1   S    
C28   H29   S    
C20   C21   S    
C10   O14   S    
C32   S2    S    
C4    O23   A    
C27   C28   S    
C14   H34   S    
C14   C15   S    
C29   H37   S    
C19   O5    S    
C8    O26   A    
C19   H7    S    
C22   H17   S    
C21   H13   S    
