data_mof_unit_52683.cif
_audit_creation_date              2012-12-10T16:42:59-0500
_audit_creation_method            fapswitch 2.2
_symmetry_space_group_name_H-M    P1
_symmetry_Int_Tables_number       1
_space_group_crystal_system       triclinic
_cell_length_a                    7.458
_cell_length_b                    8.682268
_cell_length_c                    12.986905
_cell_angle_alpha                 88.025498
_cell_angle_beta                  79.736254
_cell_angle_gamma                 102.799958
_cell_volume                      804.514299701

loop_
_atom_site_label
_atom_site_type_symbol
_atom_type_description
_atom_site_fract_x
_atom_site_fract_y
_atom_site_fract_z
_atom_type_partial_charge
C1    C     C_R   0.452813 0.199723 0.503190 0.890763
C2    C     C_R   0.547187 0.800277 0.496810 0.890763
C3    C     C_R   0.468004 0.498226 0.700798 0.855657
C4    C     C_R   0.531995 0.501774 0.299201 0.855656
C5    C     C_R   0.548604 0.511089 0.186361 -0.106206
C6    C     C_R   0.451396 0.488911 0.813639 -0.106206
C7    C     C_R   0.284467 0.357325 0.980797 -0.129190
C8    C     C_R   0.715533 0.642675 0.019202 -0.129190
C9    C     C_R   0.298922 0.380071 0.873625 -0.255736
C10   C     C_R   0.701078 0.619929 0.126375 -0.255736
C11   C     C_R   0.588984 0.581321 0.861164 0.315687
C12   C     C_R   0.411016 0.418679 0.138836 0.315687
C13   C     C_R   0.576812 0.556863 0.969770 0.039535
C14   C     C_R   0.423188 0.443136 0.030229 0.039535
C15   C     C_2   0.426248 0.031862 0.504693 -0.328581
C16   C     C_2   0.573751 0.968138 0.495307 -0.328581
Cu1   Cu    Cu3+1 0.686350 0.517570 0.488220 1.018616
Cu2   Cu    Cu3+1 0.313650 0.482430 0.511780 1.018616
H1    H     H_    0.807574 0.690832 0.163058 0.183405
H2    H     H_    0.192426 0.309168 0.836942 0.183406
H3    H     H_    0.164351 0.271154 0.023700 0.209866
H4    H     H_    0.835649 0.728846 0.976299 0.209866
H5    H     H_    0.934335 0.376906 0.582948 0.231402
H6    H     H_    0.065665 0.623093 0.417052 0.231402
H7    H     H_    0.284043 0.960353 0.513539 0.193678
H8    H     H_    0.715957 0.039646 0.486461 0.193678
N1    N     N_2   0.033570 0.455950 0.529530 -0.192624
N2    N     N_2   0.966430 0.544050 0.470470 -0.192624
O1    O     O_R   0.621060 0.286250 0.492350 -0.590116
O2    O     O_R   0.378940 0.713750 0.507650 -0.590116
O3    O     O_R   0.306310 0.256580 0.512240 -0.569750
O4    O     O_R   0.693690 0.743420 0.487760 -0.569750
O5    O     O_R   0.631800 0.512400 0.642670 -0.551330
O6    O     O_R   0.368200 0.487600 0.357330 -0.551330
O7    O     O_R   0.317060 0.482730 0.662570 -0.586355
O8    O     O_R   0.682940 0.517270 0.337430 -0.586355
Cl1   Cl    Cl    0.230242 0.267668 0.214611 -0.628722
Cl2   Cl    Cl    0.769758 0.732332 0.785389 -0.628721

loop_
_geom_bond_atom_site_label_1
_geom_bond_atom_site_label_2
_ccdc_geom_bond_type
C11   Cl2   S    
C8    H4    S    
C4    O8    A    
C8    C13   A    
C1    C15   S    
Cu1   O8    S    
H5    N1    S    
Cu1   O1    S    
Cu2   O7    S    
C9    H2    S    
C3    O7    A    
C10   H1    S    
C2    O2    A    
C3    C6    S    
C6    C9    A    
C1    O1    A    
Cu1   Cu2   S    
C5    C10   A    
C13   C14   A    
C11   C13   A    
Cu1   O5    S    
Cu2   O2    S    
C8    C10   A    
C12   C14   A    
Cu2   O6    S    
C16   H8    S    
C4    O6    A    
C15   H7    S    
C3    O5    A    
C15   C16   D    
C1    O3    A    
C2    C16   S    
C5    C12   A    
C2    O4    A    
C12   Cl1   S    
C6    C11   A    
C7    C9    A    
Cu1   O4    S    
Cu2   O3    S    
C7    H3    S    
Cu1   N2    S    
C7    C14   A    
Cu2   N1    S    
H6    N2    S    
C4    C5    S    
N1    N2    D    
