data_mof_unit_12836.cif
_audit_creation_date              2012-12-10T19:00:03-0500
_audit_creation_method            fapswitch 2.2
_symmetry_space_group_name_H-M    P1
_symmetry_Int_Tables_number       1
_space_group_crystal_system       triclinic
_cell_length_a                    10.783779
_cell_length_b                    10.692934
_cell_length_c                    9.867673
_cell_angle_alpha                 90.028105
_cell_angle_beta                  90.842609
_cell_angle_gamma                 90.021127
_cell_volume                      1137.72045461

loop_
_atom_site_label
_atom_site_type_symbol
_atom_type_description
_atom_site_fract_x
_atom_site_fract_y
_atom_site_fract_z
_atom_type_partial_charge
C1    C     C_R   0.500058 0.260031 0.499931 0.873329
C2    C     C_R   0.538980 0.064243 0.616772 -0.161119
C3    C     C_R   0.500100 0.872501 0.500065 -0.021816
C4    C     C_R   0.500189 0.127601 0.499922 -0.019582
C5    C     C_R   0.509024 0.609367 0.071920 -0.074083
C6    C     C_R   0.492748 0.390536 0.928130 -0.008475
C7    C     C_R   0.508809 0.609349 0.928441 0.006748
C8    C     C_R   0.491463 0.390651 0.071566 -0.007981
C9    C     C_R   0.259928 0.496412 0.498642 0.896279
C10   C     C_R   0.739915 0.495154 0.501347 0.891740
C11   C     C_R   0.178488 0.501519 0.016975 0.555706
C12   C     C_R   0.500041 0.739999 0.500072 0.866578
C13   C     C_R   0.803329 0.286729 0.907064 0.566932
C14   C     C_R   0.137334 0.536190 0.145363 -0.311942
C15   C     C_R   0.846562 0.322386 0.780091 -0.300510
C16   C     C_R   0.112290 0.444129 0.242294 0.080465
C17   C     C_R   0.886987 0.445454 0.758145 0.082833
C18   C     C_R   0.128501 0.317489 0.209909 -0.208470
C19   C     C_R   0.882299 0.532893 0.863882 -0.213035
C20   C     C_R   0.167847 0.283045 0.081080 -0.328780
C21   C     C_R   0.837432 0.497324 0.990345 -0.366151
C22   C     C_R   0.191788 0.374707 0.984202 0.554635
C23   C     C_R   0.872359 0.486225 0.503770 -0.109146
C24   C     C_R   0.799684 0.373831 0.012530 0.580583
C25   C     C_R   0.931984 0.484083 0.379394 -0.207596
C26   C     C_R   0.067448 0.489294 0.620783 -0.167263
C27   C     C_R   0.127283 0.488957 0.496265 -0.121992
C28   C     C_R   0.940772 0.479037 0.626151 0.027532
C29   C     C_R   0.058810 0.477715 0.374173 0.033758
C30   C     C_R   0.461428 0.064042 0.383125 -0.157633
C31   C     C_R   0.538855 0.936092 0.616864 -0.164460
C32   C     C_R   0.461461 0.935901 0.383173 -0.180488
F1    F     F_    0.229202 0.339819 0.859276 -0.674199
F2    F     F_    0.758911 0.338321 0.135939 -0.656619
F3    F     F_    0.204910 0.591137 0.924699 -0.674052
F4    F     F_    0.765409 0.167448 0.927924 -0.657986
H1    H     H_    0.515848 0.697179 0.875040 0.132559
H2    H     H_    0.119272 0.491105 0.714996 0.262466
H3    H     H_    0.430069 0.113044 0.292830 0.152464
H4    H     H_    0.570071 0.887104 0.707201 0.160142
H5    H     H_    0.430243 0.886757 0.292854 0.154785
H6    H     H_    0.570318 0.113424 0.707036 0.184159
H7    H     H_    0.516358 0.697205 0.125615 0.137315
H8    H     H_    0.486792 0.302566 0.874506 0.166147
H9    H     H_    0.484222 0.302812 0.124925 0.155456
H10   H     H_    0.124318 0.634149 0.169157 0.178803
H11   H     H_    0.850285 0.253929 0.699280 0.178428
H12   H     H_    0.108292 0.245568 0.283649 0.180381
H13   H     H_    0.913656 0.627974 0.848401 0.195544
H14   H     H_    0.179071 0.185164 0.056119 0.198401
H15   H     H_    0.832859 0.565596 0.070995 0.183504
H16   H     H_    0.879932 0.482025 0.285218 0.217420
N1    N     N_R   0.499970 0.499970 0.857200 -0.080122
N2    N     N_R   0.500030 0.500030 0.142800 -0.086618
O1    O     O_R   0.499990 0.316750 0.614620 -0.627872
O2    O     O_R   0.500010 0.683250 0.385380 -0.639060
O3    O     O_R   0.499990 0.316780 0.385290 -0.616844
O4    O     O_R   0.500010 0.683220 0.614710 -0.630823
O5    O     O_R   0.316760 0.500000 0.614660 -0.548911
O6    O     O_R   0.683240 0.500000 0.385340 -0.582283
O7    O     O_R   0.316760 0.500020 0.385330 -0.625138
O8    O     O_R   0.683240 0.499980 0.614670 -0.626715
Zn1   Zn    Zn3+2 0.500000 0.499980 0.653120 1.012935
Zn2   Zn    Zn3+2 0.500000 0.500020 0.346880 0.989733

loop_
_geom_bond_atom_site_label_1
_geom_bond_atom_site_label_2
_ccdc_geom_bond_type
C13   F4    S    
O7    Zn2   S    
C2    C4    A    
C32   H5    S    
O2    Zn2   S    
O8    Zn1   S    
C1    O3    A    
C10   C23   S    
C27   C29   A    
C5    C7    A    
C19   H13   S    
C11   C22   A    
C10   O6    A    
C20   H14   S    
C15   H11   S    
O6    Zn2   S    
C1    C4    S    
C12   O4    A    
C9    O5    A    
C11   F3    S    
C7    H1    S    
C25   H16   S    
C4    C30   A    
C14   H10   S    
C6    H8    S    
C23   C28   A    
C3    C31   A    
N1    Zn1   S    
C26   C27   A    
C10   O8    A    
N2    Zn2   S    
C2    H6    S    
C5    H7    S    
C9    O7    A    
C12   O2    A    
C20   C22   A    
C30   H3    S    
C1    O1    A    
C18   C20   A    
C13   C15   A    
C25   C29   A    
C3    C32   A    
C11   C14   A    
C14   C16   A    
O5    Zn1   S    
C7    N1    A    
C6    N1    A    
C30   C32   A    
C5    N2    A    
C21   H15   S    
C23   C25   A    
C31   H4    S    
C9    C27   S    
O3    Zn2   S    
C16   C18   A    
C21   C24   A    
C8    N2    A    
O4    Zn1   S    
C15   C17   A    
C22   F1    S    
C8    H9    S    
C26   H2    S    
C6    C8    A    
C3    C12   S    
C17   C19   A    
C16   C29   S    
C17   C28   S    
C26   C28   A    
C24   F2    S    
C13   C24   A    
C18   H12   S    
C2    C31   A    
C19   C21   A    
O1    Zn1   S    
