data_mof_unit_63876.cif
_audit_creation_date              2012-12-10T17:08:28-0500
_audit_creation_method            fapswitch 2.2
_symmetry_space_group_name_H-M    P1
_symmetry_Int_Tables_number       1
_space_group_crystal_system       triclinic
_cell_length_a                    18.629052
_cell_length_b                    18.697764
_cell_length_c                    18.707571
_cell_angle_alpha                 109.208064
_cell_angle_beta                  109.218581
_cell_angle_gamma                 109.043815
_cell_volume                      5073.75198373

loop_
_atom_site_label
_atom_site_type_symbol
_atom_type_description
_atom_site_fract_x
_atom_site_fract_y
_atom_site_fract_z
_atom_type_partial_charge
C1    C     C_R   0.378575 0.380786 0.499412 0.908739
C2    C     C_3   0.809171 0.495249 0.805574 -0.129851
C3    C     C_3   0.847903 0.544137 0.759651 0.294331
C4    C     C_3   0.765703 0.542031 0.850553 0.236186
C5    C     C_R   0.203483 0.273965 0.351175 -0.219100
C6    C     C_R   0.121129 0.216832 0.278536 0.266363
C7    C     C_R   0.072872 0.134826 0.266231 0.051935
C8    C     C_R   0.102542 0.114943 0.333019 0.045261
C9    C     C_R   0.173226 0.182754 0.416098 0.046004
C10   C     C_R   0.230369 0.257122 0.420808 -0.018024
C11   C     C_R   0.308760 0.317530 0.498608 -0.065914
C12   C     C_R   0.618420 0.497323 0.620432 0.879138
C13   C     C_R   0.318859 0.320205 0.577198 0.068638
C14   C     C_R   0.256665 0.252581 0.575614 0.039823
C15   C     C_R   0.186300 0.182166 0.495089 -0.109122
C16   C     C_R   0.266869 0.579794 0.421027 0.197334
C17   C     C_R   0.262643 0.656281 0.450459 -0.217479
C18   C     C_R   0.254135 0.696744 0.400017 0.177429
C19   C     C_R   0.235071 0.652995 0.313116 0.110989
C20   C     C_R   0.228078 0.569095 0.279780 -0.026683
C21   C     C_R   0.263365 0.543709 0.339732 0.013515
C22   C     C_R   0.293645 0.483874 0.315197 -0.182310
C23   C     C_R   0.621246 0.618730 0.500073 0.882429
C24   C     C_R   0.258647 0.427257 0.226515 0.206084
C25   C     C_R   0.204016 0.438767 0.165991 -0.165479
C26   C     C_R   0.187855 0.508070 0.190788 -0.085852
C27   C     C_R   0.788430 0.622263 0.527934 0.137560
C28   C     C_R   0.872916 0.645869 0.584954 -0.156539
C29   C     C_R   0.938617 0.730472 0.626649 -0.144699
C30   C     C_R   0.922064 0.789959 0.605246 -0.100143
C31   C     C_R   0.836865 0.767892 0.546327 0.059171
C32   C     C_R   0.768013 0.687604 0.519169 0.006090
C33   C     C_R   0.684281 0.680394 0.492880 -0.150732
C34   C     C_R   0.371615 0.492700 0.380013 0.859405
C35   C     C_R   0.665577 0.741360 0.473721 0.063022
C36   C     C_R   0.732357 0.812866 0.485060 0.166280
C37   C     C_R   0.816852 0.823082 0.515283 -0.196657
C38   C     C_R   0.995820 0.380393 0.875750 0.868385
C39   C     C_R   0.877383 0.494762 0.871784 0.867290
C40   C     C_R   0.998146 0.620673 0.118571 0.890651
C41   C     C_R   0.118584 0.505220 0.122943 0.912441
C42   C     C_R   0.994693 0.115533 0.619639 0.891838
C43   C     C_R   0.120002 0.117324 0.497097 0.956125
C44   C     C_R   0.992560 0.872747 0.380464 0.925561
C45   C     C_3   0.660790 0.397315 0.666161 0.282057
C46   C     C_R   0.880449 0.884215 0.505599 0.910282
C47   C     C_R   0.099385 0.303872 0.925946 -0.005515
C48   C     C_R   0.170752 0.289511 0.944488 0.185841
C49   C     C_R   0.156411 0.209033 0.888624 0.064072
C50   C     C_R   0.080817 0.158837 0.806735 0.122825
C51   C     C_R   0.037474 0.201237 0.775563 0.018232
C52   C     C_R   0.046757 0.275507 0.838219 0.009852
C53   C     C_R   0.997561 0.313939 0.812263 -0.034092
C54   C     C_R   0.943039 0.283093 0.725132 -0.193538
C55   C     C_R   0.939338 0.215029 0.662515 -0.143687
C56   C     C_3   0.740450 0.399029 0.729207 -0.191187
C57   C     C_R   0.987945 0.175187 0.686670 -0.092143
C58   C     C_R   0.989973 0.781643 0.118140 0.017521
C59   C     C_R   0.938660 0.818575 0.091021 0.138474
C60   C     C_R   0.876994 0.820031 0.118325 0.033179
C61   C     C_R   0.880190 0.801546 0.186011 0.162506
C62   C     C_R   0.946148 0.783625 0.225553 -0.053656
C63   C     C_R   0.982522 0.751684 0.177699 -0.056600
C64   C     C_R   0.002535 0.687770 0.189478 -0.123316
C65   C     C_R   0.008345 0.677852 0.262990 0.122216
C66   C     C_R   0.005049 0.738688 0.328201 0.067355
C67   C     C_3   0.771246 0.533628 0.683592 -0.516386
C68   C     C_R   0.978216 0.795533 0.310652 -0.100874
C69   C     C_3   0.704733 0.557569 0.783025 0.176889
C70   C     C_3   0.685544 0.495328 0.687505 -0.135315
H1    H     H_    0.785738 0.596296 0.683925 0.206809
H2    H     H_    0.241750 0.335266 0.356903 0.153135
H3    H     H_    0.267367 0.685131 0.513499 0.192234
H4    H     H_    0.175717 0.394534 0.098623 0.176381
H5    H     H_    0.888903 0.597540 0.593630 0.195489
H6    H     H_    0.003950 0.748869 0.671861 0.179906
H7    H     H_    0.977026 0.853749 0.640510 0.199656
H8    H     H_    0.903983 0.312276 0.705700 0.159402
H9    H     H_    0.899771 0.194997 0.595031 0.189731
H10   H     H_    0.773499 0.381767 0.692502 0.185522
H11   H     H_    0.762906 0.490731 0.620714 0.227248
O1    O     O_R   0.408680 0.356690 0.448550 -0.600213
O2    O     O_R   0.049530 0.460050 0.906180 -0.597291
O3    O     O_R   0.853500 0.448330 0.905250 -0.627099
O4    O     O_R   0.956960 0.551700 0.905190 -0.589436
O5    O     O_R   0.945120 0.539960 0.088480 -0.577482
O6    O     O_R   0.048580 0.643330 0.088420 -0.641109
O7    O     O_R   0.037690 0.448310 0.089470 -0.573592
O8    O     O_R   0.141150 0.551680 0.089410 -0.592938
O9    O     O_R   0.051440 0.091580 0.643120 -0.611936
O10   O     O_R   0.947460 0.091580 0.539110 -0.615912
O11   O     O_R   0.143620 0.091630 0.552020 -0.591189
O12   O     O_R   0.408070 0.460080 0.551430 -0.596874
O13   O     O_R   0.039640 0.091620 0.448010 -0.622545
O14   O     O_R   0.052540 0.908440 0.460910 -0.588630
O15   O     O_R   0.948560 0.908430 0.356900 -0.627428
O16   O     O_R   0.960360 0.908390 0.552000 -0.640460
O17   O     O_R   0.856380 0.908390 0.447990 -0.579382
O18   O     O_R   0.592400 0.448290 0.540670 -0.575209
O19   O     O_R   0.591790 0.551690 0.643550 -0.653803
O20   O     O_R   0.591930 0.539920 0.448570 -0.588784
O21   O     O_R   0.591320 0.643310 0.551450 -0.605225
O22   O     O_R   0.408210 0.448310 0.356450 -0.586221
O23   O     O_R   0.407600 0.551710 0.459330 -0.608726
O24   O     O_R   0.946070 0.356680 0.906240 -0.604151
Zn1   Zn    Zn3+2 0.500410 0.430960 0.431310 1.098142
Zn2   Zn    Zn3+2 0.499590 0.569040 0.568690 1.017016
Zn3   Zn    Zn3+2 0.928250 0.430980 0.997370 1.074621
Zn4   Zn    Zn3+2 0.066400 0.569030 0.997290 1.055069
Zn5   Zn    Zn3+2 0.069430 0.000010 0.569460 1.020222
Zn6   Zn    Zn3+2 0.930570 0.000010 0.430560 1.041232
I1    I     I_    0.632694 0.309040 0.536704 -0.209084
N1    N     N_3   0.833940 0.625752 0.928539 -0.409181
H12   H     H_    0.871455 0.615435 0.975331 0.185765
H13   H     H_    0.804019 0.654374 0.957470 0.213258
I2    I     I_    0.944633 0.680373 0.839512 -0.260473
N2    N     N_3   0.388728 0.394999 0.658243 -0.436971
H14   H     H_    0.362019 0.427741 0.688177 0.207687
H15   H     H_    0.419800 0.375218 0.698949 0.212191
I3    I     I_    0.065411 0.258826 0.194121 -0.209853
N3    N     N_3   0.992037 0.073968 0.187696 -0.386111
H16   H     H_    0.942239 0.059575 0.203569 0.214636
H17   H     H_    0.994435 0.017306 0.159176 0.222739
N4    N     N_3   0.064783 0.026681 0.315421 -0.445404
H18   H     H_    0.997390 0.000778 0.288480 0.216920
H19   H     H_    0.077045 0.991356 0.269063 0.196549
N5    N     N_3   0.262596 0.256245 0.655494 -0.427107
H20   H     H_    0.320442 0.257965 0.690549 0.217705
H21   H     H_    0.262947 0.312468 0.691981 0.191070
I4    I     I_    0.273622 0.315468 0.176172 -0.219725
I5    I     I_    0.540605 0.323444 0.660982 -0.311321
I6    I     I_    0.250244 0.510007 0.489317 -0.304673
I7    I     I_    0.266934 0.821941 0.459472 -0.279154
I8    I     I_    0.246561 0.727459 0.248188 -0.242422
N6    N     N_3   0.578897 0.731079 0.440547 -0.389074
H22   H     H_    0.560077 0.726045 0.379146 0.217414
H23   H     H_    0.532502 0.672987 0.429185 0.191875
I9    I     I_    0.718253 0.488033 0.433344 -0.233716
N7    N     N_3   0.715787 0.327938 0.749480 -0.380439
H24   H     H_    0.766034 0.312771 0.766735 0.211538
H25   H     H_    0.699013 0.340441 0.797962 0.272687
I10   I     I_    0.704661 0.911463 0.469627 -0.224145
I11   I     I_    0.017744 0.244685 0.970151 -0.198252
I12   I     I_    0.298407 0.396502 0.020686 -0.263029
N8    N     N_3   0.218851 0.181021 0.913751 -0.386536
H26   H     H_    0.189455 0.125190 0.917332 0.234026
H27   H     H_    0.236167 0.164827 0.865292 0.205797
I13   I     I_    0.012948 0.023345 0.759652 -0.320848
I14   I     I_    0.021025 0.573186 0.278127 -0.308587
N9    N     N_3   0.060674 0.793729 0.099945 -0.390490
H28   H     H_    0.038533 0.743072 0.039134 0.258231
H29   H     H_    0.112827 0.798374 0.148668 0.240085
I15   I     I_    0.953425 0.868221 0.006045 -0.237505
I16   I     I_    0.782037 0.852587 0.060101 -0.273420
I17   I     I_    0.770837 0.770818 0.208294 -0.206897
N10   N     N_3   0.021101 0.738644 0.408631 -0.423465
H30   H     H_    0.974395 0.679477 0.395426 0.221086
H31   H     H_    0.082556 0.744413 0.437955 0.234263
I18   I     I_    0.921643 0.494800 0.708437 -0.355483
N11   N     N_3   0.751508 0.650117 0.805552 -0.398887
H32   H     H_    0.723981 0.662878 0.756288 0.219934
H33   H     H_    0.751458 0.691300 0.859223 0.222891
N12   N     N_3   0.624589 0.541655 0.790185 -0.414056
H34   H     H_    0.614299 0.595171 0.802704 0.212755
H35   H     H_    0.568417 0.490123 0.734198 0.223780
I19   I     I_    0.696518 0.475090 0.904733 -0.299175

loop_
_geom_bond_atom_site_label_1
_geom_bond_atom_site_label_2
_ccdc_geom_bond_type
C41   O8    A    
C16   C21   A    
C47   I11   S    
C38   O2    A    
C11   C13   A    
C66   C68   A    
C35   C36   A    
C1    C11   S    
C69   N11   S    
N8    H26   S    
C59   I15   S    
C45   I1    S    
N6    H22   S    
C29   H6    S    
C53   C54   A    
C19   I8    S    
C62   C63   A    
C40   O6    A    
N10   H30   S    
N12   H35   S    
C39   O3    A    
C25   H4    S    
C5    H2    S    
O4    Zn4   S    
C3    I2    S    
N2    H15   S    
C5    C6    A    
O7    Zn3   S    
C23   O21   A    
O10   Zn6   S    
O8    Zn4   S    
O13   Zn6   S    
O20   Zn1   S    
C43   O13   A    
C48   I12   S    
C18   I7    S    
C18   C19   A    
C40   O5    A    
O18   Zn1   S    
C36   I10   S    
C12   O18   A    
C33   C35   A    
C30   H7    S    
C2    C39   S    
C47   C48   A    
C45   C56   S    
C8    C9    A    
C23   C33   S    
C64   C65   A    
O2    Zn4   S    
C51   C57   A    
C9    C10   A    
C67   H1    S    
C46   O17   A    
C59   C60   A    
C21   C22   A    
C3    I18   S    
C61   C62   A    
C7    N3    S    
C61   I17   S    
C42   C57   S    
C6    I3    S    
C4    C69   S    
N8    H27   S    
C17   C18   A    
C22   C34   S    
O15   Zn6   S    
C3    C67   S    
C27   I9    S    
C12   O19   A    
C51   C52   A    
C4    N1    S    
C7    C8    A    
C24   C25   A    
C35   N6    S    
C17   H3    S    
C56   N7    S    
C16   C17   A    
C1    O1    A    
C1    O12   A    
C34   O23   A    
C14   N5    S    
C31   C37   A    
C60   C61   A    
C42   O9    A    
N11   H33   S    
C2    C4    S    
N5    H21   S    
C29   C30   A    
C44   O15   A    
C55   H9    S    
C31   C32   A    
C30   C31   A    
C50   C51   A    
C49   N8    S    
O21   Zn2   S    
O24   Zn3   S    
C58   N9    S    
N3    H16   S    
C47   C52   A    
C8    N4    S    
C48   C49   A    
C46   O16   A    
C45   I5    S    
C55   C57   A    
C49   C50   A    
N9    H29   S    
C44   C68   S    
C39   O4    A    
N5    H20   S    
C52   C53   A    
N4    H19   S    
N1    H12   S    
C50   I13   S    
C58   C63   A    
N6    H23   S    
C41   O7    A    
C12   C70   S    
C54   C55   A    
C28   C29   A    
O19   Zn2   S    
O17   Zn6   S    
C45   C70   S    
N9    H28   S    
C58   C59   A    
O5    Zn3   S    
C69   N12   S    
O14   Zn5   S    
C56   H10   S    
C13   N2    S    
N7    H24   S    
C67   H11   S    
C6    C7    A    
O6    Zn4   S    
C43   O11   A    
C40   C64   S    
C62   C68   A    
C67   C70   S    
C32   C33   A    
C19   C20   A    
N10   H31   S    
C2    C3    S    
C25   C26   A    
C15   C43   S    
C5    C10   A    
C44   O14   A    
C2    C56   S    
N2    H14   S    
N11   H32   S    
C66   N10   S    
O16   Zn5   S    
N7    H25   S    
O11   Zn5   S    
C23   O20   A    
C38   C53   S    
C20   C26   A    
C38   O24   A    
C34   O22   A    
O3    Zn3   S    
C4    I19   S    
O22   Zn1   S    
C22   C24   A    
O1    Zn1   S    
C9    C15   A    
C69   C70   S    
C16   I6    S    
C60   I16   S    
N3    H17   S    
N12   H34   S    
C10   C11   A    
C27   C32   A    
C63   C64   A    
C24   I4    S    
C20   C21   A    
C36   C37   A    
C65   C66   A    
C27   C28   A    
C65   I14   S    
O9    Zn5   S    
C14   C15   A    
C54   H8    S    
C37   C46   S    
C13   C14   A    
C28   H5    S    
O23   Zn2   S    
O12   Zn2   S    
C42   O10   A    
C26   C41   S    
N4    H18   S    
N1    H13   S    
