data_mof_unit_29747.cif
_audit_creation_date              2013-03-05T15:53:16-0500
_audit_creation_method            fapswitch 2.2
_symmetry_space_group_name_H-M    P1
_symmetry_Int_Tables_number       1
_space_group_crystal_system       triclinic
_cell_length_a                    11.545449
_cell_length_b                    10.681667
_cell_length_c                    9.917009
_cell_angle_alpha                 87.40449
_cell_angle_beta                  89.985781
_cell_angle_gamma                 91.995941
_cell_volume                      1221.01363476

loop_
_atom_site_label
_atom_site_type_symbol
_atom_site_description
_atom_site_fract_x
_atom_site_fract_y
_atom_site_fract_z
_atom_type_partial_charge
O1    O     O_R   0.500000 0.316780 0.614690 -0.658667
O2    O     O_R   0.499990 0.316750 0.385360 -0.586483
C1    C     C_R   0.509589 0.260053 0.504165 0.927724
O3    O     O_R   0.334450 0.500030 0.614670 -0.641136
O4    O     O_R   0.334440 0.500000 0.385330 -0.637150
C2    C     C_R   0.282023 0.499579 0.500047 0.873360
Zn1   Zn    Zn3+2 0.500010 0.500020 0.653130 0.941406
Zn2   Zn    Zn3+2 0.499990 0.499980 0.346870 0.996503
O5    O     O_R   0.500010 0.683250 0.614640 -0.617154
O6    O     O_R   0.500000 0.683220 0.385310 -0.614273
O7    O     O_R   0.665560 0.500000 0.614670 -0.617501
O8    O     O_R   0.665550 0.499970 0.385330 -0.580517
C3    C     C_R   0.491988 0.739521 0.497116 0.883460
C4    C     C_R   0.717995 0.500582 0.499964 0.935822
C5    C     C_1   0.161543 0.499384 0.500104 -0.176823
C6    C     C_1   0.059355 0.499402 0.500087 0.011576
C7    C     C_1   0.940668 0.499709 0.500014 0.023420
C8    C     C_1   0.838486 0.500134 0.499967 -0.137679
C9    C     C_R   0.474584 0.094121 0.760905 -0.233151
H1    H     H_    0.523894 0.176129 0.789893 0.215190
C10   C     C_R   0.416870 0.021113 0.863569 0.345788
C11   C     C_R   0.355152 0.912267 0.829273 -0.223396
H2    H     H_    0.304889 0.857067 0.904131 0.186646
C12   C     C_R   0.366214 0.867729 0.700478 -0.191920
H3    H     H_    0.322233 0.779667 0.679002 0.168764
C13   C     C_R   0.439922 0.931564 0.604349 0.101190
C14   C     C_R   0.478562 0.053735 0.626783 -0.003818
C15   C     C_R   0.526795 0.126341 0.515652 -0.225939
C16   C     C_R   0.573401 0.067403 0.404489 0.322920
H4    H     H_    0.590718 0.891707 0.313221 0.202034
C17   C     C_R   0.550594 0.940222 0.393751 -0.217577
C18   C     C_R   0.484636 0.873103 0.492284 -0.160598
H5    H     H_    0.638813 0.631623 0.118714 0.149269
C19   C     C_R   0.336756 0.347072 0.146459 -0.083696
H6    H     H_    0.335314 0.334942 0.253496 0.188219
C20   C     C_R   0.253143 0.276834 0.079083 -0.105613
H7    H     H_    0.189904 0.218657 0.135813 0.166555
C21   C     C_R   0.254259 0.276304 0.939498 -0.171007
H8    H     H_    0.192220 0.217410 0.887559 0.158267
C22   C     C_R   0.338930 0.346129 0.866691 -0.164271
H9    H     H_    0.340905 0.332931 0.760881 0.202032
C23   C     C_R   0.419995 0.424769 0.931086 0.172112
C24   C     C_R   0.419501 0.425099 0.075622 0.196717
N1    N     N_R   0.498930 0.498800 0.142780 -0.121093
C25   C     C_R   0.576434 0.572380 0.067918 -0.072503
H10   H     H_    0.638603 0.631810 0.868224 0.155698
C26   C     C_R   0.576317 0.572456 0.924836 -0.084537
N2    N     N_R   0.498900 0.498720 0.857170 -0.127696
N3    N     N_R   0.653819 0.132166 0.311667 0.239291
O9    O     O_R   0.681229 0.082037 0.199301 -0.337740
O10   O     O_R   0.717263 0.226866 0.350744 -0.398329
N4    N     N_R   0.424300 0.055092 0.002084 0.208668
O11   O     O_R   0.495437 0.144997 0.036856 -0.367270
O12   O     O_R   0.365599 0.991588 0.095839 -0.415091

loop_
_geom_bond_atom_site_label_1
_geom_bond_atom_site_label_2
_geom_bond_distance
_ccdc_geom_bond_type
O1    C1    1.282797 A    
O4    Zn2   1.948950 S    
Zn1   O7    1.948948 S    
C24   N1    1.379054 A    
C13   C18   1.405909 A    
H5    C25   1.081755 S    
C9    C14   1.417981 A    
C4    C8    1.391300 S    
C3    C18   1.430989 S    
C17   C18   1.395308 A    
Zn2   O8    1.949240 S    
Zn1   N2    2.022920 S    
N4    O12   1.301712 A    
C20   C21   1.384594 A    
O2    C1    1.306640 A    
C16   N3    1.443993 S    
C16   C17   1.383626 A    
C23   N2    1.374156 A    
C10   C11   1.397644 A    
C12   H3    1.083022 S    
C21   C22   1.390439 A    
C15   C16   1.409723 A    
C13   C14   1.391866 A    
O4    C2    1.288220 A    
N4    O11   1.300344 A    
O3    Zn1   1.949242 S    
C22   C23   1.408374 A    
C20   H7    1.082721 S    
C9    C10   1.407227 A    
C12   C13   1.413595 A    
C7    C8    1.179903 T    
C19   C20   1.391589 A    
C25   C26   1.418903 A    
H4    C17   1.083952 S    
C19   H6    1.063580 S    
O7    C4    1.288136 A    
C11   C12   1.390409 A    
C23   C24   1.433545 A    
C5    C6    1.179808 T    
C26   N2    1.366999 A    
Zn2   N1    2.024610 S    
C10   N4    1.438426 S    
C21   H8    1.082700 S    
N1    C25   1.366544 A    
O3    C2    1.288090 A    
N3    O9    1.301646 A    
C14   C15   1.420697 A    
Zn1   O5    1.977037 S    
O5    C3    1.291781 A    
C11   H2    1.082514 S    
C1    C15   1.448250 S    
C22   H9    1.065399 S    
O1    Zn1   2.010955 S    
C2    C5    1.390919 S    
H10   C26   1.081707 S    
Zn2   O6    2.010955 S    
O2    Zn2   1.977037 S    
C19   C24   1.411366 A    
C9    H1    1.078079 S    
O8    C4    1.288323 A    
C6    C7    1.370419 S    
N3    O10   1.301537 A    
O6    C3    1.289898 A    
