data_mof_unit_50376.cif
_audit_creation_date              2012-12-10T16:58:24-0500
_audit_creation_method            fapswitch 2.2
_symmetry_space_group_name_H-M    P1
_symmetry_Int_Tables_number       1
_space_group_crystal_system       triclinic
_cell_length_a                    7.736211
_cell_length_b                    8.565749
_cell_length_c                    23.416862
_cell_angle_alpha                 91.020752
_cell_angle_beta                  85.900463
_cell_angle_gamma                 93.684984
_cell_volume                      1544.44546963

loop_
_atom_site_label
_atom_site_type_symbol
_atom_type_description
_atom_site_fract_x
_atom_site_fract_y
_atom_site_fract_z
_atom_type_partial_charge
C1    C     C_R   0.545915 0.794873 0.498491 0.960365
C2    C     C_R   0.454075 0.205125 0.501509 0.964451
C3    C     C_R   0.368065 0.472063 0.768466 -0.198119
C4    C     C_R   0.340999 0.512840 0.240228 -0.194997
C5    C     C_R   0.355228 0.473432 0.709413 0.505565
C6    C     C_R   0.336993 0.514271 0.299955 0.503991
C7    C     C_R   0.508445 0.493689 0.672933 -0.163686
C8    C     C_R   0.493990 0.503786 0.326821 -0.160131
C9    C     C_R   0.671282 0.506005 0.696334 -0.288535
C10   C     C_R   0.651726 0.498233 0.293314 -0.287717
C11   C     C_R   0.682215 0.501013 0.755081 -0.088180
C12   C     C_R   0.654088 0.500825 0.234207 -0.100270
C13   C     C_R   0.530695 0.484748 0.790978 0.246697
C14   C     C_R   0.499039 0.507256 0.207849 0.258788
C15   C     C_2   0.570199 0.958292 0.497621 -0.370766
C16   C     C_2   0.429769 0.041705 0.502375 -0.377429
C17   C     C_R   0.502120 0.498787 0.610728 0.899659
C18   C     C_R   0.497588 0.500393 0.389226 0.901285
C19   C     C_R   0.467891 0.364896 0.119750 0.518627
C20   C     C_R   0.579285 0.624123 0.878751 0.517780
C21   C     C_R   0.546327 0.639775 0.118222 0.511270
C22   C     C_R   0.501554 0.349123 0.880278 0.511173
C23   C     C_R   0.557447 0.638550 0.058469 -0.017024
C24   C     C_R   0.495868 0.349409 0.939982 -0.016113
C25   C     C_R   0.522499 0.495939 0.029270 -0.019554
C26   C     C_R   0.531955 0.491794 0.969170 -0.019650
C27   C     C_R   0.477232 0.357615 0.060037 -0.019711
C28   C     C_R   0.575860 0.630331 0.938411 -0.019177
C29   C     C_R   0.602714 0.775608 0.027438 -0.167876
C30   C     C_R   0.452391 0.212019 0.971002 -0.168311
C31   C     C_R   0.611865 0.771527 0.967870 -0.165991
C32   C     C_R   0.443051 0.216107 0.030571 -0.166148
H1    H     H_    0.630775 0.886256 0.049029 0.193708
H2    H     H_    0.424089 0.101411 0.949415 0.194358
H3    H     H_    0.646298 0.879233 0.945052 0.194585
H4    H     H_    0.408256 0.108468 0.053393 0.195063
H5    H     H_    0.251426 0.461841 0.796993 0.151931
H6    H     H_    0.221402 0.515229 0.218944 0.148374
H7    H     H_    0.790545 0.520999 0.669288 0.205564
H8    H     H_    0.773859 0.491003 0.312655 0.208921
H9    H     H_    0.808047 0.511240 0.772818 0.166749
H10   H     H_    0.776141 0.495813 0.208717 0.151427
H11   H     H_    0.702790 0.009418 0.493089 0.180232
H12   H     H_    0.297175 0.990581 0.506905 0.179174
H13   H     H_    0.014239 0.383174 0.456721 0.214382
H14   H     H_    0.985779 0.616906 0.543251 0.197207
N1    N     N_R   0.502441 0.504314 0.147175 -0.351712
N2    N     N_R   0.540684 0.485407 0.851324 -0.350134
N3    N     N_2   0.950330 0.457950 0.484560 -0.172336
N4    N     N_2   0.049670 0.542050 0.515440 -0.171191
O1    O     O_R   0.389250 0.738570 0.503790 -0.617667
O2    O     O_R   0.610750 0.261430 0.496210 -0.611977
O3    O     O_R   0.678390 0.711620 0.493890 -0.635633
O4    O     O_R   0.321610 0.288380 0.506110 -0.634580
O5    O     O_R   0.355400 0.513520 0.588790 -0.561570
O6    O     O_R   0.644600 0.486480 0.411210 -0.626188
O7    O     O_R   0.644550 0.486570 0.578900 -0.639572
O8    O     O_R   0.355450 0.513430 0.421100 -0.577314
O9    O     O_2   0.425937 0.234069 0.150329 -0.528693
O10   O     O_2   0.617636 0.755703 0.848288 -0.530491
O11   O     O_2   0.579040 0.774639 0.147337 -0.534145
O12   O     O_2   0.467194 0.214467 0.851221 -0.538314
Zn1   Zn    Zn3+2 0.306930 0.518000 0.506610 0.978166
Zn2   Zn    Zn3+2 0.693070 0.482000 0.493390 0.947513
O13   O     O_3   0.192915 0.464208 0.687908 -0.603893
C33   C     C_3   0.128402 0.306442 0.688265 -0.278049
H15   H     H_    0.218745 0.230277 0.663344 0.161442
H16   H     H_    0.003637 0.297671 0.667499 0.191566
H17   H     H_    0.101940 0.263299 0.732762 0.174149
O14   O     O_3   0.178959 0.513433 0.331601 -0.605715
C34   C     C_3   0.119437 0.665735 0.332446 -0.284191
H18   H     H_    0.217692 0.753766 0.348346 0.166881
H19   H     H_    0.001790 0.668214 0.362383 0.196942
H20   H     H_    0.082248 0.698386 0.289439 0.164766

loop_
_geom_bond_atom_site_label_1
_geom_bond_atom_site_label_2
_ccdc_geom_bond_type
C13   N2    S    
C33   H16   S    
C23   C29   A    
O6    Zn2   S    
C11   H9    S    
O14   C34   S    
C1    C15   S    
H13   N3    S    
C22   O12   S    
C2    C16   S    
C17   O5    A    
C21   O11   S    
C3    C13   A    
O1    Zn1   S    
C18   O6    A    
C28   C31   A    
C1    O3    A    
C5    O13   S    
C21   C23   A    
C33   H15   S    
C27   C32   A    
C15   H11   S    
C34   H18   S    
C29   C31   A    
N3    Zn2   S    
C21   N1    A    
C32   H4    S    
C30   C32   A    
N4    Zn1   S    
C1    O1    A    
C20   N2    A    
O5    Zn1   S    
C2    O2    A    
C11   C13   A    
C6    C8    A    
C10   C12   A    
C10   H8    S    
C12   C14   A    
C22   N2    A    
O13   C33   S    
C22   C24   A    
O2    Zn2   S    
C9    C11   A    
C4    C14   A    
O3    Zn2   S    
C31   H3    S    
C20   O10   S    
C33   H17   S    
C25   C27   A    
O4    Zn1   S    
C30   H2    S    
C24   C30   A    
C4    C6    A    
C15   C16   D    
C29   H1    S    
C9    H7    S    
C23   C25   A    
C19   C27   A    
C3    H5    S    
O7    Zn2   S    
C6    O14   S    
N3    N4    D    
C2    O4    A    
C19   N1    A    
C34   H19   S    
O8    Zn1   S    
C7    C9    A    
H14   N4    S    
C5    C7    A    
C12   H10   S    
C20   C28   A    
C34   H20   S    
C19   O9    S    
C25   C26   A    
C4    H6    S    
C14   N1    S    
C26   C28   A    
C16   H12   S    
C8    C10   A    
C8    C18   S    
C24   C26   A    
C17   O7    A    
C18   O8    A    
C3    C5    A    
C7    C17   S    
