data_mof_unit_25671.cif
_audit_creation_date              2012-12-11T14:06:48-0500
_audit_creation_method            fapswitch 2.2
_symmetry_space_group_name_H-M    P1
_symmetry_Int_Tables_number       1
_space_group_crystal_system       triclinic
_cell_length_a                    6.924105
_cell_length_b                    17.312432
_cell_length_c                    24.103392
_cell_angle_alpha                 104.571794
_cell_angle_beta                  90.317995
_cell_angle_gamma                 90.039694
_cell_volume                      2796.35741319

loop_
_atom_site_label
_atom_site_type_symbol
_atom_type_description
_atom_site_fract_x
_atom_site_fract_y
_atom_site_fract_z
_atom_type_partial_charge
O1    O     O_R   0.494290 0.391990 0.999150 -0.513916
O2    O     O_R   0.827170 0.534410 0.082350 -0.542539
O3    O     O_R   0.994360 0.608010 0.000850 -0.542898
C1    C     C_R   0.658688 0.550391 0.106019 0.703713
O4    O     O_R   0.824210 0.388010 0.004470 -0.529127
O5    O     O_R   0.991370 0.460560 0.922410 -0.534948
C2    C     C_R   0.653367 0.355346 0.002656 0.843701
O6    O     O_R   0.497270 0.539440 0.077590 -0.543077
O7    O     O_3   0.659770 0.523970 0.973170 -0.374571
V1    V     V_3+5 0.935840 0.495550 0.004980 1.487235
O8    O     O_R   0.320910 0.465590 0.917650 -0.527584
C3    C     C_R   0.152140 0.448038 0.894124 0.752809
O9    O     O_R   0.323870 0.611990 0.995530 -0.551660
C4    C     C_R   0.154433 0.645167 0.998609 0.752643
V2    V     V_3+5 0.435470 0.504450 0.995020 1.482726
O10   O     O_3   0.161670 0.476030 0.026830 -0.354677
C5    C     C_2   0.142829 0.730351 0.998322 -0.338265
H1    H     H_    0.277322 0.761214 0.995017 0.147461
C6    C     C_2   0.972814 0.769856 0.002237 -0.341199
H2    H     H_    0.838331 0.739020 0.005598 0.147437
C7    C     C_R   0.073905 0.241825 0.626566 0.590975
N1    N     N_R   0.086019 0.322881 0.649142 -0.557507
C8    C     C_R   0.083257 0.374326 0.614099 0.575578
C9    C     C_R   0.068412 0.344928 0.554151 -0.028765
C10   C     C_R   0.057540 0.261901 0.530454 -0.017656
C11   C     C_R   0.060169 0.209724 0.566826 -0.032460
C12   C     C_R   0.065525 0.396467 0.517410 -0.149401
C13   C     C_R   0.052914 0.365980 0.458009 -0.137613
C14   C     C_R   0.042875 0.283192 0.433854 -0.036860
C15   C     C_R   0.044550 0.230988 0.470235 -0.009751
C16   C     C_R   0.033864 0.147957 0.446520 -0.041440
C17   C     C_R   0.036236 0.096402 0.483241 -0.174783
C18   C     C_R   0.049226 0.126904 0.542653 -0.136878
C19   C     C_R   0.030766 0.251134 0.374120 0.592360
N2    N     N_R   0.020806 0.170141 0.351604 -0.548457
C20   C     C_R   0.022495 0.118607 0.386506 0.532330
O11   O     O_2   0.073706 0.192344 0.661782 -0.499750
O12   O     O_2   0.097256 0.453694 0.637065 -0.515791
H3    H     H_    0.073304 0.460573 0.534403 0.169429
H4    H     H_    0.051311 0.407546 0.431105 0.181154
O13   O     O_2   0.027509 0.300566 0.338876 -0.504524
O14   O     O_2   0.014896 0.039144 0.363219 -0.518040
H5    H     H_    0.028660 0.032295 0.466201 0.177823
H6    H     H_    0.051164 0.085318 0.569538 0.181449
C21   C     C_R   0.834080 0.103619 0.265399 -0.175532
H7    H     H_    0.711138 0.100817 0.292380 0.123641
C22   C     C_R   0.818418 0.071985 0.205800 0.373511
C23   C     C_R   0.976056 0.078535 0.169884 -0.163864
C24   C     C_R   0.148931 0.113676 0.195612 -0.236231
H8    H     H_    0.272979 0.119090 0.169670 0.191324
C25   C     C_R   0.164076 0.143063 0.255086 -0.085105
H9    H     H_    0.298528 0.169672 0.273821 0.144389
C26   C     C_R   0.006459 0.138669 0.290309 0.328576
C27   C     C_R   0.960814 0.403675 0.741561 -0.061331
H10   H     H_    0.834253 0.418326 0.719691 0.143205
C28   C     C_R   0.978812 0.433888 0.800929 -0.201034
H11   H     H_    0.865463 0.471999 0.823572 0.154137
C29   C     C_R   0.140799 0.415583 0.830824 -0.102179
C30   C     C_R   0.285187 0.365087 0.799418 0.112429
C31   C     C_R   0.266115 0.335641 0.739860 -0.099147
H12   H     H_    0.377004 0.297184 0.716186 0.156382
C32   C     C_R   0.104444 0.354405 0.710513 0.329973
C33   C     C_R   0.461676 0.877498 0.612162 0.603747
N3    N     N_R   0.506063 0.829389 0.647828 -0.560930
C34   C     C_R   0.568304 0.752547 0.625819 0.574086
C35   C     C_R   0.589308 0.721719 0.566163 -0.012152
C36   C     C_R   0.546008 0.770713 0.529083 -0.014417
C37   C     C_R   0.481254 0.849145 0.552182 -0.085616
C38   C     C_R   0.652700 0.643207 0.542837 -0.138142
C39   C     C_R   0.672329 0.613670 0.483635 -0.144044
C40   C     C_R   0.629619 0.661920 0.446163 -0.004205
C41   C     C_R   0.566899 0.741020 0.468880 -0.072610
C42   C     C_R   0.525248 0.790249 0.431603 -0.126266
C43   C     C_R   0.465001 0.869970 0.455503 0.435002
C44   C     C_R   0.439256 0.897690 0.515021 -0.238252
C45   C     C_R   0.647908 0.632769 0.386398 0.600397
N4    N     N_R   0.606106 0.680588 0.350488 -0.559439
C46   C     C_R   0.546213 0.757903 0.371704 0.673932
O15   O     O_2   0.401528 0.952951 0.634603 -0.510051
O16   O     O_2   0.608819 0.705804 0.661486 -0.514535
H13   H     H_    0.687220 0.604178 0.570246 0.176972
H14   H     H_    0.721238 0.552786 0.467350 0.165789
O17   O     O_2   0.707269 0.557103 0.364308 -0.508248
O18   O     O_2   0.506973 0.802960 0.334841 -0.472488
H15   H     H_    0.387080 0.957990 0.531903 0.176409
C47   C     C_R   0.788427 0.661086 0.259360 0.190940
C48   C     C_R   0.802184 0.627552 0.200013 -0.222166
H16   H     H_    0.930947 0.638288 0.177737 0.144727
C49   C     C_R   0.648777 0.582570 0.169314 -0.083539
C50   C     C_R   0.482431 0.570729 0.199429 -0.181366
H17   H     H_    0.361957 0.536290 0.177131 0.151364
C51   C     C_R   0.470506 0.602322 0.258785 -0.094358
H18   H     H_    0.342396 0.591406 0.281228 0.157462
C52   C     C_R   0.622006 0.648228 0.289212 0.339536
C53   C     C_R   0.312719 0.881080 0.735774 -0.073364
H19   H     H_    0.182209 0.873899 0.710015 0.123307
C54   C     C_R   0.300368 0.910248 0.795536 -0.187122
H20   H     H_    0.159691 0.925237 0.814579 0.130241
C55   C     C_R   0.467809 0.919738 0.830142 -0.056509
C56   C     C_R   0.647510 0.899382 0.803221 -0.187682
H21   H     H_    0.779694 0.905726 0.828186 0.129614
C57   C     C_R   0.659407 0.870105 0.743653 -0.081476
H22   H     H_    0.799222 0.854863 0.724058 0.119513
C58   C     C_R   0.492378 0.860512 0.709361 0.372300
C59   C     C_2   0.637512 0.269349 0.000050 -0.343514
H23   H     H_    0.766980 0.233922 0.987717 0.154088
C60   C     C_2   0.469957 0.232543 0.008256 -0.023857
O19   O     O_R   0.618210 0.960470 0.922400 -0.543010
O20   O     O_R   0.291310 0.111960 0.995450 -0.527009
O21   O     O_R   0.124210 0.039530 0.077580 -0.542964
C61   C     C_R   0.460723 0.145471 0.000500 0.759321
O22   O     O_R   0.288310 0.965490 0.917650 -0.543546
O23   O     O_R   0.121180 0.892010 0.999220 -0.541446
C62   C     C_R   0.456962 0.950077 0.893803 0.702895
O24   O     O_R   0.621230 0.107990 0.000760 -0.543191
O25   O     O_3   0.455770 0.976060 0.026840 -0.373306
V3    V     V_3+5 0.179680 0.004440 0.995020 1.448573
O26   O     O_R   0.791670 0.888040 0.004570 -0.550809
C63   C     C_R   0.961152 0.854941 0.001703 0.752240
O27   O     O_R   0.794680 0.034510 0.082370 -0.511511
C64   C     C_R   0.964001 0.049131 0.106211 0.747053
V4    V     V_3+5 0.680070 0.995560 0.005010 1.454918
O28   O     O_3   0.953840 0.023940 0.973160 -0.369173
I1    I     I_    0.528837 0.323724 0.837630 -0.379990
O29   O     O_3   0.419042 0.920078 0.420888 -0.516993
C65   C     C_3   0.572814 0.974427 0.422967 0.147531
H24   H     H_    0.707057 0.942268 0.405245 0.162850
H25   H     H_    0.601217 0.010282 0.467581 0.092621
C66   C     C_3   0.519791 0.031910 0.386990 -0.585074
H26   H     H_    0.388423 0.065432 0.404472 0.218474
H27   H     H_    0.638039 0.075483 0.388559 0.162615
H28   H     H_    0.493272 0.998773 0.341777 0.239722
I2    I     I_    0.020001 0.731804 0.302281 -0.351517
I3    I     I_    0.212605 0.293214 0.043647 -0.352853
O30   O     O_3   0.645379 0.038054 0.182982 -0.553176
C67   C     C_3   0.636319 0.959315 0.189545 0.105883
H29   H     H_    0.652494 0.957978 0.235335 0.142723
H30   H     H_    0.751043 0.921849 0.163740 0.108777
C68   C     C_3   0.440839 0.923053 0.168486 -0.665846
H31   H     H_    0.418773 0.923040 0.122851 0.223496
H32   H     H_    0.433967 0.860592 0.172488 0.186629
H33   H     H_    0.323739 0.957927 0.194582 0.224191

loop_
_geom_bond_atom_site_label_1
_geom_bond_atom_site_label_2
_ccdc_geom_bond_type
C48   H16   S    
C65   H24   S    
N2    C26   S    
C42   C43   A    
C27   H10   S    
C20   O14   S    
C53   H19   S    
C9    C12   A    
C1    O6    A    
C55   C62   S    
O22   C62   A    
C54   H20   S    
O20   V3    S    
O30   C67   S    
C33   O15   S    
N4    C46   A    
O25   V3    S    
C37   C44   A    
C59   C60   D    
O25   V4    S    
C13   C14   A    
C36   C41   A    
C60   I3    S    
O20   C61   A    
O21   C64   A    
O5    C3    A    
C15   C16   A    
C68   H33   S    
C43   O29   S    
C13   H4    S    
V2    O10   S    
N4    C52   S    
C30   I1    S    
C28   H11   S    
O21   V3    S    
C31   C32   A    
C19   N2    A    
O26   V4    S    
O19   C62   A    
O26   C63   A    
C56   H21   S    
C47   C52   A    
O23   C63   A    
O8    V2    S    
C44   H15   S    
C16   C17   A    
C12   H3    S    
C24   C25   A    
C8    C9    A    
C2    C59   S    
C39   C40   A    
O1    V2    S    
O7    V1    S    
C66   H28   S    
C3    C29   S    
C35   C36   A    
C21   C26   A    
C30   C31   A    
C34   O16   S    
O9    C4    A    
C4    C5    S    
C38   C39   A    
C19   O13   S    
C67   C68   S    
C45   O17   S    
C56   C57   A    
C54   C55   A    
C7    C11   A    
O27   V4    S    
C21   C22   A    
C27   C28   A    
C43   C44   A    
C36   C37   A    
O8    C3    A    
C45   N4    A    
C67   H30   S    
C49   C50   A    
C23   C64   S    
O4    C2    A    
C47   C48   A    
C41   C42   A    
C27   C32   A    
C65   C66   S    
C10   C11   A    
C21   H7    S    
C14   C19   A    
C25   H9    S    
C31   H12   S    
C25   C26   A    
N2    C20   A    
O2    C1    A    
C14   C15   A    
N1    C32   S    
C47   I2    S    
C50   C51   A    
C22   C23   A    
C42   C46   A    
C51   C52   A    
C5    H1    S    
C9    C10   A    
C57   C58   A    
O3    C4    A    
O23   V3    S    
C23   C24   A    
C34   C35   A    
O6    V2    S    
C48   C49   A    
O29   C65   S    
C29   C30   A    
O2    V1    S    
C40   C45   A    
O27   C64   A    
C1    C49   S    
C10   C15   A    
N3    C58   S    
C33   C37   A    
C65   H25   S    
C22   O30   S    
O1    C2    A    
C18   H6    S    
C60   C61   S    
N1    C8    A    
O19   V4    S    
C67   H29   S    
O5    V1    S    
C68   H31   S    
C53   C54   A    
C8    O12   S    
C59   H23   S    
C66   H26   S    
C55   C56   A    
C17   C18   A    
C6    H2    S    
O9    V2    S    
V3    O28   S    
O4    V1    S    
O3    V1    S    
V1    O10   S    
N3    C34   A    
C53   C58   A    
C68   H32   S    
C50   H17   S    
O22   V3    S    
C51   H18   S    
C5    C6    D    
C17   H5    S    
C28   C29   A    
O7    V2    S    
C57   H22   S    
C39   H14   S    
C38   H13   S    
C6    C63   S    
C33   N3    A    
C35   C38   A    
C46   O18   S    
C40   C41   A    
C7    O11   S    
C24   H8    S    
C12   C13   A    
O24   V4    S    
C16   C20   A    
C61   O24   A    
V4    O28   S    
C7    N1    A    
C11   C18   A    
C66   H27   S    
