data_mof_unit_31534.cif
_audit_creation_date              2012-12-10T18:11:10-0500
_audit_creation_method            fapswitch 2.2
_symmetry_space_group_name_H-M    P1
_symmetry_Int_Tables_number       1
_space_group_crystal_system       triclinic
_cell_length_a                    10.734764
_cell_length_b                    9.421316
_cell_length_c                    10.620684
_cell_angle_alpha                 89.822049
_cell_angle_beta                  90.243406
_cell_angle_gamma                 90.063491
_cell_volume                      1074.1137723

loop_
_atom_site_label
_atom_site_type_symbol
_atom_type_description
_atom_site_fract_x
_atom_site_fract_y
_atom_site_fract_z
_atom_type_partial_charge
C1    C     C_R   0.259807 0.500082 0.502858 0.766713
C2    C     C_3   0.499923 0.500911 0.122425 0.012968
C3    C     C_3   0.073404 0.651702 0.540518 -0.411542
C4    C     C_3   0.075770 0.395677 0.611416 -0.407911
C5    C     C_3   0.930384 0.650108 0.557952 -0.137782
C6    C     C_3   0.931404 0.381377 0.605857 -0.139286
C7    C     C_3   0.067999 0.456415 0.379541 -0.384935
C8    C     C_3   0.122023 0.500654 0.508539 0.117730
C9    C     C_3   0.877802 0.500925 0.516938 0.000903
C10   C     C_3   0.925097 0.469743 0.381253 -0.439606
C11   C     C_3   0.618533 0.084037 0.452953 -0.188989
C12   C     C_3   0.618370 0.916790 0.452627 -0.190065
C13   C     C_3   0.483858 0.083303 0.631360 -0.192299
C14   C     C_3   0.483836 0.915954 0.631361 -0.183520
C15   C     C_3   0.398180 0.083832 0.423537 -0.191770
C16   C     C_3   0.398093 0.916435 0.423662 -0.191910
C17   C     C_R   0.499870 0.500282 0.259308 0.785572
C18   C     C_R   0.739564 0.500207 0.509429 0.831404
C19   C     C_R   0.499802 0.499710 0.740787 0.853721
C20   C     C_3   0.501607 0.634997 0.040225 -0.163503
C21   C     C_3   0.396793 0.434378 0.041781 -0.177617
C22   C     C_3   0.398458 0.568354 0.957291 -0.189104
C23   C     C_3   0.500052 0.498940 0.877654 0.028977
C24   C     C_3   0.603192 0.565383 0.958334 -0.134139
C25   C     C_3   0.498389 0.364810 0.959839 -0.113261
C26   C     C_3   0.601504 0.431441 0.042806 -0.160155
Cu1   Cu    Cu3+1 0.499860 0.642410 0.500060 0.919168
Cu2   Cu    Cu3+1 0.499860 0.357590 0.500060 0.916709
H1    H     H_    0.315452 0.624184 0.918970 0.144114
H2    H     H_    0.895850 0.556643 0.316268 0.165606
H3    H     H_    0.883448 0.369691 0.344501 0.163654
H4    H     H_    0.698435 0.120679 0.511367 0.156607
H5    H     H_    0.698363 0.879863 0.510488 0.172310
H6    H     H_    0.635003 0.124514 0.355918 0.134870
H7    H     H_    0.634471 0.877393 0.355409 0.131398
H8    H     H_    0.560131 0.121131 0.694104 0.176496
H9    H     H_    0.559994 0.878024 0.694218 0.188568
H10   H     H_    0.306416 0.121343 0.458127 0.138913
H11   H     H_    0.306380 0.878766 0.458569 0.138936
H12   H     H_    0.406791 0.123261 0.325170 0.142002
H13   H     H_    0.406412 0.877418 0.325354 0.139764
H14   H     H_    0.395130 0.122413 0.672418 0.134555
H15   H     H_    0.395071 0.876433 0.672425 0.135514
H16   H     H_    0.502937 0.745702 0.075761 0.130138
H17   H     H_    0.312417 0.380952 0.079233 0.128877
H18   H     H_    0.687975 0.618475 0.921735 0.169443
H19   H     H_    0.497158 0.254140 0.924226 0.129591
H20   H     H_    0.684536 0.375585 0.081011 0.117515
H21   H     H_    0.096678 0.725440 0.461794 0.147000
H22   H     H_    0.117436 0.288686 0.597862 0.148849
H23   H     H_    0.123344 0.693986 0.624237 0.200968
H24   H     H_    0.109622 0.434760 0.704022 0.220344
H25   H     H_    0.892822 0.732705 0.492853 0.102575
H26   H     H_    0.911050 0.277197 0.560691 0.113114
H27   H     H_    0.106540 0.524702 0.303299 0.156136
H28   H     H_    0.094605 0.344838 0.358393 0.164623
N1    N     N_3   0.500250 0.143650 0.502780 -0.113201
N2    N     N_3   0.500250 0.856350 0.502780 -0.113373
O1    O     O_R   0.317570 0.620260 0.500070 -0.602341
O2    O     O_R   0.317570 0.379740 0.500070 -0.602264
O3    O     O_R   0.499850 0.620240 0.316900 -0.597194
O4    O     O_R   0.499850 0.379760 0.316900 -0.595667
O5    O     O_R   0.682190 0.620260 0.500030 -0.576108
O6    O     O_R   0.682190 0.379740 0.500030 -0.579387
O7    O     O_R   0.499910 0.620280 0.683200 -0.582614
O8    O     O_R   0.499910 0.379720 0.683200 -0.574283
C27   C     C_2   0.891881 0.693884 0.690345 0.820653
O9    O     O_2   0.785147 0.732834 0.709579 -0.638771
O10   O     O_R   0.977254 0.691764 0.790291 -0.760280
H29   H     H_    0.938990 0.723030 0.872783 0.326375
C28   C     C_2   0.872123 0.372468 0.735856 0.820042
O11   O     O_2   0.763207 0.336474 0.745412 -0.624420
O12   O     O_R   0.941643 0.398439 0.845128 -0.755838
H30   H     H_    0.890466 0.388039 0.924656 0.319721

loop_
_geom_bond_atom_site_label_1
_geom_bond_atom_site_label_2
_ccdc_geom_bond_type
C7    C10   S    
C22   H1    S    
C1    C8    S    
O12   H30   S    
Cu2   O8    S    
C7    H27   S    
C4    C8    S    
C11   N1    S    
C6    C9    S    
C3    H21   S    
C7    C8    S    
Cu2   N1    S    
C5    C27   S    
C4    H24   S    
C5    H25   S    
C24   C26   S    
C1    O1    A    
C18   O5    A    
C13   N1    S    
C15   C16   S    
C19   O8    A    
Cu1   O3    S    
C17   O3    A    
C10   H3    S    
C20   C24   S    
C23   C24   S    
C9    C10   S    
C25   H19   S    
C26   H20   S    
C12   N2    S    
C21   C22   S    
C2    C17   S    
C15   N1    S    
C7    H28   S    
C6    H26   S    
C13   H14   S    
C20   H16   S    
C21   H17   S    
Cu2   O2    S    
C6    C28   S    
C14   N2    S    
C2    C20   S    
C27   O9    D    
C13   H8    S    
C4    C6    S    
C3    C8    S    
C1    O2    A    
C28   O12   S    
C3    H23   S    
C25   C26   S    
C4    H22   S    
C27   O10   S    
C19   C23   S    
C15   H10   S    
C5    C9    S    
Cu1   O7    S    
C17   O4    A    
C10   H2    S    
C2    C21   S    
C2    C26   S    
C16   N2    S    
C12   H7    S    
Cu1   O5    S    
Cu2   O6    S    
C20   C22   S    
C11   H4    S    
C21   C25   S    
C11   H6    S    
C3    C5    S    
Cu1   N2    S    
C11   C12   S    
C24   H18   S    
C28   O11   D    
Cu1   O1    S    
C14   H9    S    
C18   O6    A    
C19   O7    A    
C23   C25   S    
O10   H29   S    
C15   H12   S    
C16   H11   S    
C9    C18   S    
Cu1   Cu2   S    
C22   C23   S    
C12   H5    S    
C13   C14   S    
C16   H13   S    
C14   H15   S    
Cu2   O4    S    
