data_mof_unit_11097.cif
_audit_creation_date              2012-12-10T21:00:43-0500
_audit_creation_method            fapswitch 2.2
_symmetry_space_group_name_H-M    P1
_symmetry_Int_Tables_number       1
_space_group_crystal_system       triclinic
_cell_length_a                    18.131767
_cell_length_b                    18.174864
_cell_length_c                    18.305106
_cell_angle_alpha                 119.88786
_cell_angle_beta                  90.032253
_cell_angle_gamma                 119.954732
_cell_volume                      4274.41973396

loop_
_atom_site_label
_atom_site_type_symbol
_atom_type_description
_atom_site_fract_x
_atom_site_fract_y
_atom_site_fract_z
_atom_type_partial_charge
C1    C     C_R   0.110881 0.220027 0.609906 0.789038
C2    C     C_R   0.888962 0.779971 0.390106 0.789748
C3    C     C_3   0.921863 0.405498 0.449459 -0.185500
C4    C     C_3   0.078280 0.594924 0.550889 -0.185714
C5    C     C_3   0.439513 0.965130 0.928399 -0.182671
C6    C     C_3   0.560072 0.034604 0.071831 -0.179758
C7    C     C_3   0.543278 0.037443 0.954911 -0.174446
C8    C     C_3   0.456203 0.962210 0.045245 -0.166490
C9    C     C_3   0.549061 0.102391 0.052433 0.060550
C10   C     C_3   0.450610 0.897422 0.947756 0.059617
C11   C     C_3   0.445852 0.031446 0.026622 -0.153146
C12   C     C_3   0.553749 0.968334 0.973572 -0.149894
C13   C     C_3   0.412935 0.430821 0.447916 -0.133680
C14   C     C_3   0.587059 0.569145 0.552081 -0.134495
C15   C     C_3   0.482146 0.404761 0.447835 -0.179767
C16   C     C_3   0.517848 0.595205 0.552160 -0.180498
C17   C     C_3   0.550887 0.500196 0.449502 0.059775
C18   C     C_3   0.449107 0.499773 0.550494 0.059965
C19   C     C_3   0.482620 0.526327 0.448786 -0.179136
C20   C     C_3   0.517373 0.473639 0.551211 -0.179108
C21   C     C_R   0.175290 0.144498 0.812309 -0.151634
C22   C     C_R   0.819284 0.856931 0.191064 -0.152837
C23   C     C_R   0.392945 0.781160 0.888474 0.773716
C24   C     C_R   0.606987 0.218779 0.111556 0.769522
C25   C     C_R   0.144222 0.103052 0.721914 -0.153923
C26   C     C_R   0.852040 0.897486 0.280925 -0.153586
C27   C     C_R   0.070324 0.097408 0.688914 0.151770
C28   C     C_R   0.926600 0.902687 0.311638 0.152144
C29   C     C_R   0.027079 0.132279 0.747071 -0.093225
C30   C     C_R   0.968719 0.868133 0.251707 -0.094950
C31   C     C_R   0.058903 0.174591 0.837611 -0.131828
C32   C     C_R   0.935106 0.826588 0.161663 -0.133779
C33   C     C_R   0.132989 0.180746 0.870202 -0.108961
C34   C     C_R   0.860493 0.821032 0.131404 -0.109159
C35   C     C_R   0.982114 0.943408 0.536140 -0.259123
C36   C     C_R   0.017357 0.056596 0.463956 -0.259028
C37   C     C_R   0.945545 0.892267 0.444400 -0.050070
C38   C     C_R   0.053966 0.107730 0.555672 -0.050394
C39   C     C_R   0.963368 0.949561 0.407538 -0.015522
C40   C     C_R   0.035626 0.050442 0.592633 -0.014892
C41   C     C_R   0.696612 0.786508 0.955219 -0.147174
C42   C     C_R   0.302289 0.210262 0.041145 -0.146453
C43   C     C_R   0.649264 0.696425 0.953038 -0.175059
C44   C     C_R   0.349728 0.301129 0.044524 -0.176082
C45   C     C_R   0.110540 0.500440 0.889377 0.798136
C46   C     C_R   0.890167 0.500263 0.111287 0.787739
C47   C     C_R   0.586745 0.682699 0.998707 0.105338
C48   C     C_R   0.413483 0.316605 0.000326 0.106450
C49   C     C_R   0.572451 0.760966 0.047296 0.170085
C50   C     C_R   0.428797 0.239208 0.951869 0.172188
C51   C     C_R   0.620472 0.851041 0.049217 -0.148183
C52   C     C_R   0.380666 0.148330 0.948721 -0.147093
C53   C     C_R   0.682346 0.863805 0.003367 -0.156735
C54   C     C_R   0.317659 0.133894 0.993216 -0.159562
C55   C     C_R   0.589767 0.583502 0.050403 -0.239959
C56   C     C_R   0.410199 0.416394 0.949509 -0.239584
C57   C     C_R   0.550338 0.496893 0.053204 -0.022998
C58   C     C_R   0.449638 0.503018 0.946726 -0.023442
C59   C     C_R   0.459619 0.411777 0.002025 0.019279
C60   C     C_R   0.540390 0.588041 0.997782 0.018720
C61   C     C_R   0.129908 0.792188 0.951172 -0.186011
C62   C     C_R   0.884350 0.208746 0.048067 -0.197037
C63   C     C_R   0.114938 0.734335 0.986174 0.131870
C64   C     C_R   0.899262 0.265198 0.011574 0.117824
C65   C     C_R   0.038025 0.630107 0.938544 0.116427
C66   C     C_R   0.966079 0.373862 0.065061 0.124199
C67   C     C_R   0.392342 0.499975 0.607680 0.770819
C68   C     C_R   0.607657 0.500015 0.392320 0.770928
C69   C     C_R   0.977950 0.586768 0.857939 -0.201784
C70   C     C_R   0.018381 0.422349 0.151875 -0.185534
C71   C     C_R   0.994091 0.644844 0.823611 -0.163626
C72   C     C_R   0.003261 0.365073 0.186813 -0.153112
C73   C     C_R   0.070425 0.747699 0.869608 0.173262
C74   C     C_R   0.935291 0.258260 0.135736 0.172259
C75   C     C_R   0.966988 0.560663 0.023415 -0.255137
C76   C     C_R   0.035097 0.441381 0.978439 -0.265457
C77   C     C_R   0.947597 0.499882 0.055659 -0.066656
C78   C     C_R   0.054515 0.502222 0.946290 -0.062894
C79   C     C_R   0.981931 0.439001 0.032570 0.012547
C80   C     C_R   0.020561 0.563434 0.969688 0.006136
C81   C     C_R   0.393921 0.501182 0.889749 0.831187
C82   C     C_R   0.606074 0.498787 0.110223 0.831877
C83   C     C_R   0.109018 0.500196 0.607672 0.768825
C84   C     C_R   0.891042 0.499902 0.392378 0.769239
C85   C     C_3   0.016450 0.429725 0.447981 -0.135040
C86   C     C_3   0.983716 0.570744 0.552349 -0.133424
C87   C     C_3   0.042563 0.524547 0.447516 -0.178462
C88   C     C_3   0.957611 0.475963 0.552884 -0.176573
C89   C     C_3   0.948795 0.500184 0.449638 0.060429
C90   C     C_3   0.051347 0.500213 0.550652 0.060581
H1    H     H_    0.076948 0.545513 0.404093 0.123485
H2    H     H_    0.923719 0.456148 0.597098 0.127210
H3    H     H_    0.157364 0.213188 0.940206 0.126863
H4    H     H_    0.834887 0.789294 0.061813 0.128998
H5    H     H_    0.232192 0.148569 0.837465 0.147861
H6    H     H_    0.761924 0.853273 0.167684 0.148764
H7    H     H_    0.177438 0.075151 0.677625 0.131419
H8    H     H_    0.819716 0.925237 0.326631 0.131275
H9    H     H_    0.969296 0.127220 0.722321 0.109338
H10   H     H_    0.027026 0.872950 0.274717 0.114533
H11   H     H_    0.025902 0.202175 0.882404 0.116929
H12   H     H_    0.967062 0.799152 0.115348 0.113300
H13   H     H_    0.968912 0.899974 0.564723 0.174658
H14   H     H_    0.030448 0.100042 0.435402 0.175006
H15   H     H_    0.719653 0.933854 0.005493 0.125927
H16   H     H_    0.280269 0.063212 0.990116 0.127259
H17   H     H_    0.744821 0.796669 0.920028 0.129590
H18   H     H_    0.253136 0.198754 0.075207 0.130123
H19   H     H_    0.661553 0.637411 0.916084 0.137825
H20   H     H_    0.336520 0.359360 0.081217 0.137787
H21   H     H_    0.030639 0.371779 0.405832 0.136624
H22   H     H_    0.969727 0.628832 0.594760 0.138000
H23   H     H_    0.610359 0.911636 0.086985 0.150712
H24   H     H_    0.391517 0.088369 0.910967 0.151163
H25   H     H_    0.659295 0.649058 0.090429 0.175865
H26   H     H_    0.340697 0.350758 0.909363 0.175041
H27   H     H_    0.188483 0.872039 0.987267 0.118119
H28   H     H_    0.832334 0.125916 0.008415 0.120257
H29   H     H_    0.919136 0.507026 0.820825 0.138377
H30   H     H_    0.070186 0.505212 0.193083 0.131107
H31   H     H_    0.947295 0.609075 0.760629 0.123350
H32   H     H_    0.043957 0.404369 0.254183 0.121581
H33   H     H_    0.940242 0.606590 0.039862 0.166152
H34   H     H_    0.061588 0.395166 0.961696 0.168058
H35   H     H_    0.856722 0.327827 0.407268 0.135212
H36   H     H_    0.143500 0.672527 0.592832 0.135239
H37   H     H_    0.577924 0.068154 0.916918 0.144614
H38   H     H_    0.420036 0.930134 0.082000 0.135197
H39   H     H_    0.389813 0.934999 0.868196 0.126433
H40   H     H_    0.610031 0.064743 0.131864 0.127489
H41   H     H_    0.401719 0.057880 0.049390 0.138118
H42   H     H_    0.597904 0.941946 0.950767 0.138631
H43   H     H_    0.468518 0.326712 0.404017 0.132342
H44   H     H_    0.531470 0.673251 0.595979 0.131378
H45   H     H_    0.340603 0.373998 0.405929 0.143712
H46   H     H_    0.659390 0.625967 0.594069 0.143102
H47   H     H_    0.469385 0.547858 0.405741 0.134777
H48   H     H_    0.530606 0.452109 0.594257 0.134736
O1    O     O_3   0.251620 0.500000 0.748430 -0.479398
O2    O     O_3   0.748380 0.500000 0.251570 -0.478450
O3    O     O_R   0.134680 0.560740 0.864590 -0.636350
O4    O     O_R   0.865320 0.439260 0.135410 -0.636959
O5    O     O_R   0.306670 0.439270 0.571150 -0.649419
O6    O     O_R   0.693330 0.560730 0.428850 -0.649641
O7    O     O_R   0.135450 0.268370 0.694460 -0.639762
O8    O     O_R   0.864550 0.731630 0.305540 -0.639769
O9    O     O_R   0.429670 0.731610 0.863510 -0.629142
O10   O     O_R   0.570330 0.268390 0.136490 -0.627336
O11   O     O_R   0.134680 0.268390 0.572240 -0.649889
O12   O     O_R   0.865320 0.731610 0.427760 -0.650157
O13   O     O_R   0.306670 0.731630 0.863510 -0.647815
O14   O     O_R   0.693330 0.268370 0.136490 -0.652311
O15   O     O_R   0.135450 0.439270 0.865360 -0.643511
O16   O     O_R   0.864550 0.560730 0.134640 -0.642238
O17   O     O_R   0.429670 0.560710 0.692610 -0.641684
O18   O     O_R   0.570330 0.439290 0.307390 -0.641390
O19   O     O_R   0.308540 0.439240 0.865360 -0.641585
O20   O     O_R   0.691460 0.560760 0.134640 -0.641166
O21   O     O_R   0.133580 0.439310 0.571150 -0.647854
O22   O     O_R   0.866420 0.560690 0.428850 -0.647924
O23   O     O_R   0.430770 0.560690 0.864590 -0.635533
O24   O     O_R   0.569230 0.439310 0.135410 -0.635717
O25   O     O_R   0.133580 0.560760 0.692610 -0.647903
O26   O     O_R   0.866420 0.439240 0.307390 -0.647124
Zn1   Zn    Zn3+2 0.207400 0.586780 0.791530 0.966133
Zn2   Zn    Zn3+2 0.792600 0.413220 0.208470 0.961903
Zn3   Zn    Zn3+2 0.208510 0.413230 0.792630 0.979815
Zn4   Zn    Zn3+2 0.791490 0.586770 0.207370 0.979108
Zn5   Zn    Zn3+2 0.383150 0.586740 0.791530 0.985064
Zn6   Zn    Zn3+2 0.616850 0.413260 0.208470 0.984996
Zn7   Zn    Zn3+2 0.207400 0.413250 0.618010 0.952462
Zn8   Zn    Zn3+2 0.792600 0.586750 0.381990 0.952541
I1    I     I_    0.481426 0.748852 0.120320 -0.469406
I2    I     I_    0.521333 0.253703 0.880565 -0.485060
C91   C     C_3   0.088487 0.810081 0.831995 -0.451373
C92   C     C_3   0.172459 0.832546 0.803427 -0.319792
C93   C     C_3   0.186536 0.887706 0.758165 -0.910539
H49   H     H_    0.128827 0.837149 0.695860 0.262738
H50   H     H_    0.192949 0.961404 0.803585 0.274505
H51   H     H_    0.249268 0.905836 0.740857 0.250079
H52   H     H_    0.233093 0.882346 0.862796 0.210445
H53   H     H_    0.165066 0.758557 0.756218 0.243095
H54   H     H_    0.029554 0.767260 0.773268 0.197762
H55   H     H_    0.098050 0.884307 0.883403 0.192965
C94   C     C_3   0.916751 0.196962 0.174496 -0.448594
C95   C     C_3   0.827469 0.166047 0.193794 -0.317768
C96   C     C_3   0.810686 0.109123 0.237812 -0.911066
H56   H     H_    0.809097 0.038313 0.194182 0.274372
H57   H     H_    0.864655 0.160585 0.303204 0.263124
H58   H     H_    0.744790 0.085770 0.249181 0.250153
H59   H     H_    0.829156 0.236686 0.238956 0.242544
H60   H     H_    0.770619 0.114709 0.130560 0.211344
H61   H     H_    0.914207 0.126319 0.126767 0.193984
H62   H     H_    0.972350 0.243597 0.237521 0.195712
C97   C     C_3   0.182654 0.784913 0.072853 -0.411559
C98   C     C_3   0.156698 0.838235 0.152853 -0.375093
C99   C     C_3   0.225551 0.891424 0.240784 -0.861640
H63   H     H_    0.229332 0.833536 0.243298 0.267058
H64   H     H_    0.293250 0.951661 0.248148 0.260867
H65   H     H_    0.204932 0.929282 0.297378 0.243032
H66   H     H_    0.152734 0.897283 0.152726 0.218831
H67   H     H_    0.089612 0.780016 0.148255 0.223741
H68   H     H_    0.187814 0.726761 0.073330 0.211676
H69   H     H_    0.250870 0.843331 0.079092 0.194730
C100  C     C_3   0.842306 0.207788 0.916636 -0.468826
C101  C     C_3   0.765060 0.220545 0.914604 -0.285641
C102  C     C_3   0.698076 0.147676 0.820167 -0.891647
H70   H     H_    0.732506 0.164207 0.774728 0.266683
H71   H     H_    0.667388 0.065488 0.794725 0.252854
H72   H     H_    0.643426 0.159216 0.820730 0.276211
H73   H     H_    0.729136 0.203854 0.959232 0.227621
H74   H     H_    0.792181 0.301432 0.938751 0.226473
H75   H     H_    0.884725 0.235413 0.880316 0.200449
H76   H     H_    0.813494 0.123745 0.880127 0.197522

loop_
_geom_bond_atom_site_label_1
_geom_bond_atom_site_label_2
_ccdc_geom_bond_type
O2    Zn4   S    
C38   C40   A    
C63   C65   A    
C2    O12   A    
C2    O8    A    
C87   H1    S    
C27   C29   A    
C13   H45   S    
C1    O7    A    
C76   C79   A    
C94   H62   S    
C6    H40   S    
C16   H44   S    
O19   Zn3   S    
C6    C9    S    
C49   I1    S    
C84   O22   A    
O20   Zn4   S    
O26   Zn2   S    
C47   C49   A    
C4    C87   S    
C100  C101  S    
C92   H53   S    
C66   C79   S    
C51   H23   S    
O21   Zn7   S    
C13   C18   S    
C75   H33   S    
C31   H11   S    
O25   Zn1   S    
C76   C78   A    
C5    C11   S    
C35   H13   S    
C16   C19   S    
C6    C12   S    
C82   O20   A    
C96   H57   S    
C86   C88   S    
C57   C59   A    
C97   H68   S    
C58   C60   A    
C57   C82   S    
C30   H10   S    
C67   O17   A    
C20   H48   S    
C95   H59   S    
O1    Zn1   S    
C96   H58   S    
C62   C64   A    
C24   O14   A    
C47   C60   S    
C101  H73   S    
C8    H38   S    
O12   Zn8   S    
C88   H2    S    
C70   H30   S    
C28   C30   A    
C93   H50   S    
C102  H72   S    
O10   Zn6   S    
C31   C33   A    
O1    Zn7   S    
C45   C78   S    
C14   C16   S    
C12   H42   S    
C75   C80   A    
C5    H39   S    
C84   O26   A    
C74   C94   S    
O23   Zn5   S    
C48   C50   A    
C67   O5    A    
O2    Zn8   S    
C65   C80   S    
C55   C60   A    
O15   Zn3   S    
C45   O3    A    
C41   C43   A    
C14   C17   S    
O16   Zn4   S    
C92   H52   S    
O1    Zn5   S    
C42   C44   A    
C46   O16   A    
C23   O13   A    
C52   C54   A    
C4    C90   S    
C85   C87   S    
O2    Zn2   S    
C7    C12   S    
C22   C34   A    
C69   C71   A    
C42   H18   S    
C29   H9    S    
C61   H27   S    
C102  H70   S    
C76   H34   S    
C14   C20   S    
C81   O19   A    
C46   O4    A    
C21   C25   A    
C24   O10   A    
C58   C81   S    
C5    C7    S    
C54   H16   S    
C101  C102  S    
C13   C19   S    
C6    C8    S    
C97   H69   S    
C21   H5    S    
C28   C39   S    
C49   C51   A    
C18   C67   S    
O13   Zn1   S    
C23   O9    A    
C69   H29   S    
C33   H3    S    
C15   C20   S    
C51   C53   A    
C64   C66   A    
C73   C91   S    
C99   H65   S    
C86   H22   S    
C101  H74   S    
O4    Zn2   S    
C9    C11   S    
O17   Zn5   S    
C50   C52   A    
C91   C92   S    
O24   Zn6   S    
C13   C15   S    
C27   C40   S    
C19   H47   S    
C93   H51   S    
C61   C63   A    
C3    C89   S    
C56   H26   S    
C77   C79   A    
C83   O21   A    
C16   C18   S    
C1    O11   A    
C75   C77   A    
C41   C53   A    
C10   C12   S    
C1    C38   S    
C26   H8    S    
C72   C74   A    
C92   C93   S    
C88   C90   S    
C100  H76   S    
C55   C57   A    
C63   C97   S    
C3    C85   S    
O8    Zn4   S    
C45   O15   A    
C84   C89   S    
C98   H67   S    
C36   C38   A    
C78   C80   A    
C4    C86   S    
C35   C37   A    
C48   C59   S    
C91   H54   S    
C70   C72   A    
O7    Zn3   S    
C25   H7    S    
C7    C9    S    
C83   C90   S    
C83   O25   A    
C17   C68   S    
O2    Zn6   S    
C41   H17   S    
C72   H32   S    
C3    C88   S    
O11   Zn7   S    
C22   H6    S    
C71   H31   S    
C36   C39   A    
C34   H4    S    
C94   H61   S    
C98   C99   S    
C68   O18   A    
C86   C89   S    
C11   H41   S    
C46   C77   S    
O14   Zn2   S    
C85   C90   S    
C3    H35   S    
C9    C24   S    
C15   C17   S    
C15   H43   S    
C32   H12   S    
C52   H24   S    
C10   C23   S    
C25   C27   A    
C82   O24   A    
C64   C100  S    
O6    Zn8   S    
C26   C28   A    
C56   C59   A    
C4    H36   S    
C36   H14   S    
C61   C73   A    
O3    Zn1   S    
C99   H64   S    
C35   C40   A    
C95   C96   S    
O5    Zn7   S    
C5    C10   S    
C29   C31   A    
C44   C48   A    
C42   C54   A    
C30   C32   A    
C55   H25   S    
C2    C37   S    
C94   C95   S    
C66   C70   A    
C14   H46   S    
C8    C11   S    
C65   C69   A    
O18   Zn6   S    
C17   C19   S    
C56   C58   A    
C68   O6    A    
C18   C20   S    
C95   H60   S    
C99   H63   S    
C62   H28   S    
C100  H75   S    
C97   C98   S    
C53   H15   S    
C37   C39   A    
C21   C33   A    
C96   H56   S    
O1    Zn3   S    
C8    C10   S    
C93   H49   S    
C22   C26   A    
C71   C73   A    
C102  H71   S    
C87   C89   S    
O22   Zn8   S    
C62   C74   A    
C81   O23   A    
C50   I2    S    
C43   H19   S    
C7    H37   S    
C98   H66   S    
C43   C47   A    
O9    Zn5   S    
C85   H21   S    
C32   C34   A    
C91   H55   S    
C44   H20   S    
