data_mof_unit_60339.cif
_audit_creation_date              2013-03-05T16:04:53-0500
_audit_creation_method            fapswitch 2.2
_symmetry_space_group_name_H-M    P1
_symmetry_Int_Tables_number       1
_space_group_crystal_system       triclinic
_cell_length_a                    30.307274
_cell_length_b                    21.437045
_cell_length_c                    21.419932
_cell_angle_alpha                 90.283616
_cell_angle_beta                  135.022974
_cell_angle_gamma                 89.832314
_cell_volume                      9836.37802128

loop_
_atom_site_label
_atom_site_type_symbol
_atom_site_description
_atom_site_fract_x
_atom_site_fract_y
_atom_site_fract_z
_atom_type_partial_charge
O1    O     O_R   0.091580 0.500000 0.144580 -0.579995
O2    O     O_R   0.591580 1.000000 0.144580 -0.580000
O3    O     O_R   0.091570 0.500000 0.038570 -0.585280
O4    O     O_R   0.591570 1.000000 0.038570 -0.585193
C1    C     C_R   0.120272 0.500342 0.120261 0.812914
C2    C     C_R   0.620272 0.000340 0.120261 0.813059
O5    O     O_R   0.999990 0.591570 0.052990 -0.598794
O6    O     O_R   0.999990 0.408430 0.052990 -0.567792
O7    O     O_R   0.499990 0.091570 0.052990 -0.598784
O8    O     O_R   0.499990 0.908430 0.052990 -0.567743
O9    O     O_R   0.999990 0.591570 0.946990 -0.571995
O10   O     O_R   0.999990 0.408430 0.946990 -0.580283
O11   O     O_R   0.499990 0.091570 0.946990 -0.572169
O12   O     O_R   0.499990 0.908430 0.946990 -0.580346
C3    C     C_R   0.999633 0.620271 0.999813 0.800450
C4    C     C_R   0.999855 0.379746 0.999713 0.832099
C5    C     C_R   0.499625 0.120270 0.999799 0.800557
C6    C     C_R   0.499859 0.879746 0.999717 0.832048
Cu1   Cu    Cu3+1 0.000000 0.500000 0.062770 1.025137
Cu2   Cu    Cu3+1 0.500000 1.000000 0.062770 1.025136
Cu3   Cu    Cu3+1 1.000000 0.500000 0.937230 1.014952
Cu4   Cu    Cu3+1 0.500000 1.000000 0.937230 1.014726
O13   O     O_R   0.908430 0.500000 0.961430 -0.555516
O14   O     O_R   0.408430 0.000000 0.961430 -0.555494
O15   O     O_R   0.908420 0.500000 0.855420 -0.587132
O16   O     O_R   0.408420 0.000000 0.855420 -0.587199
C7    C     C_R   0.879621 0.499812 0.879571 0.816412
C8    C     C_R   0.379621 0.999811 0.879572 0.816375
C9    C     C_3   0.057014 0.728235 0.040296 -0.254966
C10   C     C_3   0.029500 0.271891 0.976386 -0.278215
C11   C     C_3   0.557277 0.228230 0.041430 -0.254007
C12   C     C_3   0.529311 0.771893 0.976084 -0.278245
C13   C     C_3   0.013112 0.769199 0.957256 0.371821
C14   C     C_3   0.970891 0.230424 0.919628 0.341817
C15   C     C_3   0.514012 0.269193 0.958328 0.371399
C16   C     C_3   0.470708 0.730431 0.919542 0.341777
H1    H     H_    0.103671 0.710484 0.073041 0.154286
H2    H     H_    0.053491 0.289518 0.958056 0.175930
H3    H     H_    0.604150 0.210477 0.075141 0.154043
H4    H     H_    0.553151 0.789519 0.957518 0.175935
C17   C     C_3   0.999820 0.811289 0.000183 -0.131737
C18   C     C_3   0.000377 0.188725 0.998762 -0.142102
C19   C     C_3   0.499822 0.311288 0.000133 -0.131878
C20   C     C_3   0.500372 0.688725 0.998743 -0.142032
C21   C     C_3   0.041887 0.769804 0.082054 0.252596
C22   C     C_3   0.058170 0.230821 0.056304 0.241411
C23   C     C_3   0.541249 0.269807 0.082028 0.253077
C24   C     C_3   0.558165 0.730818 0.056079 0.241437
C25   C     C_3   0.985732 0.729251 0.044347 -0.141420
C26   C     C_3   0.030287 0.271243 0.080852 -0.124522
C27   C     C_3   0.484806 0.229257 0.043146 -0.141560
C28   C     C_3   0.530475 0.771238 0.080925 -0.124515
C29   C     C_3   0.942820 0.770634 0.960286 -0.257652
C30   C     C_3   0.971000 0.229338 0.021337 -0.221760
C31   C     C_3   0.442554 0.270630 0.959058 -0.257446
C32   C     C_3   0.471187 0.729336 0.021619 -0.221790
C33   C     C_3   0.956184 0.728467 0.915923 -0.191434
C34   C     C_3   0.940528 0.271152 0.940085 -0.146058
C35   C     C_3   0.456839 0.228459 0.915844 -0.191896
C36   C     C_3   0.440532 0.771155 0.940300 -0.146183
C37   C     C_3   0.999577 0.688481 0.000213 -0.067120
C38   C     C_3   0.000005 0.311575 0.999394 -0.079304
C39   C     C_3   0.499570 0.188479 0.000172 -0.067282
C40   C     C_3   0.500009 0.811576 0.999396 -0.079305
H5    H     H_    0.974717 0.711993 0.080844 0.153302
H6    H     H_    0.055113 0.289035 0.147655 0.164021
H7    H     H_    0.473043 0.212005 0.078718 0.153257
H8    H     H_    0.555453 0.789028 0.147790 0.163962
H9    H     H_    0.896231 0.788550 0.927600 0.178572
H10   H     H_    0.947091 0.211159 0.039559 0.170124
H11   H     H_    0.395742 0.288535 0.925390 0.178843
H12   H     H_    0.447429 0.711154 0.040078 0.170000
H13   H     H_    0.921237 0.710446 0.847084 0.170358
H14   H     H_    0.891811 0.288712 0.890949 0.191938
H15   H     H_    0.422441 0.210433 0.846999 0.170714
H16   H     H_    0.391815 0.788718 0.891343 0.192025
C41   C     C_3   0.228995 0.519463 0.172640 -0.180709
C42   C     C_3   0.228764 0.539641 0.273697 -0.190203
C43   C     C_3   0.728994 0.019469 0.172643 -0.180537
C44   C     C_3   0.728763 0.039632 0.273701 -0.190118
C45   C     C_3   0.270661 0.558355 0.259473 -0.270790
C46   C     C_3   0.770660 0.058355 0.259480 -0.270565
H17   H     H_    0.288514 0.606043 0.268051 0.189324
H18   H     H_    0.788512 0.106045 0.268064 0.189449
H19   H     H_    0.211472 0.534617 0.108821 0.183474
H20   H     H_    0.210958 0.571266 0.293002 0.163995
H21   H     H_    0.711472 0.034629 0.108825 0.183615
H22   H     H_    0.710956 0.071250 0.293011 0.164031
C47   C     C_3   0.311376 0.500042 0.311679 -0.171084
C48   C     C_3   0.811376 0.000042 0.311679 -0.171177
C49   C     C_3   0.269684 0.461959 0.226238 0.331520
C50   C     C_3   0.269506 0.481506 0.324399 0.370635
C51   C     C_3   0.769685 0.961964 0.226234 0.331432
C52   C     C_3   0.769506 0.981497 0.324397 0.370583
C53   C     C_3   0.228217 0.441575 0.239722 -0.262249
C54   C     C_3   0.728218 0.941571 0.239716 -0.262283
C55   C     C_3   0.188482 0.500329 0.188392 -0.085983
C56   C     C_3   0.688482 0.000326 0.188392 -0.086090
H23   H     H_    0.210492 0.393866 0.231272 0.157252
H24   H     H_    0.710494 0.893860 0.231258 0.157278
C57   C     C_3   0.770665 0.558196 0.781031 -0.211205
C58   C     C_3   0.770435 0.479414 0.714395 -0.180417
C59   C     C_3   0.270666 0.058210 0.780941 -0.211162
C60   C     C_3   0.270435 0.979325 0.714428 -0.180444
C61   C     C_3   0.729086 0.537811 0.683596 -0.090828
C62   C     C_3   0.229087 0.037739 0.683538 -0.090884
H25   H     H_    0.710773 0.568885 0.628232 0.197646
H26   H     H_    0.210774 0.068755 0.628127 0.197665
H27   H     H_    0.788908 0.606012 0.807581 0.154446
H28   H     H_    0.788227 0.462898 0.686343 0.184528
H29   H     H_    0.288909 0.106038 0.807419 0.154427
H30   H     H_    0.288228 0.962737 0.686403 0.184498
C63   C     C_3   0.688753 0.499805 0.688637 -0.050927
C64   C     C_3   0.188753 0.999805 0.688638 -0.050919
C65   C     C_3   0.729010 0.520372 0.784851 -0.203929
C66   C     C_3   0.728940 0.441182 0.718111 -0.218866
C67   C     C_3   0.229010 0.020458 0.784820 -0.203973
C68   C     C_3   0.228939 0.941164 0.718203 -0.218817
C69   C     C_3   0.769887 0.462783 0.813698 0.387951
C70   C     C_3   0.269886 0.962850 0.813757 0.387938
C71   C     C_3   0.811156 0.499860 0.810849 -0.086519
C72   C     C_3   0.311155 0.999857 0.810851 -0.086493
H31   H     H_    0.711050 0.536389 0.812852 0.158114
H32   H     H_    0.711361 0.393038 0.692718 0.176495
H33   H     H_    0.211050 0.036547 0.812796 0.158093
H34   H     H_    0.211360 0.893009 0.692885 0.176541
O17   O     O_R   0.947020 0.000000 0.855520 -0.564448
O18   O     O_R   0.447020 0.500000 0.855520 -0.564698
O19   O     O_R   0.053020 1.000000 0.961550 -0.585211
O20   O     O_R   0.553020 0.500000 0.961550 -0.584589
C73   C     C_R   0.000012 0.000187 0.879649 0.871636
C74   C     C_R   0.500013 0.500177 0.879650 0.870589
O21   O     O_R   0.947010 0.908420 0.947070 -0.590447
O22   O     O_R   0.947010 0.091580 0.947070 -0.554887
O23   O     O_R   0.447010 0.408420 0.947070 -0.590924
O24   O     O_R   0.447010 0.591580 0.947070 -0.554667
O25   O     O_R   0.053010 0.908430 0.053110 -0.584253
O26   O     O_R   0.053010 0.091570 0.053110 -0.590666
O27   O     O_R   0.553010 0.408430 0.053110 -0.583557
O28   O     O_R   0.553010 0.591570 0.053110 -0.590549
C75   C     C_R   0.999985 0.879681 0.000549 0.857032
C76   C     C_R   0.000117 0.120327 0.999464 0.837182
C77   C     C_R   0.499984 0.379680 0.000518 0.856436
C78   C     C_R   0.500116 0.620327 0.999453 0.836951
Cu5   Cu    Cu3+1 0.937240 1.000000 0.937300 1.017964
Cu6   Cu    Cu3+1 0.437240 0.500000 0.937300 1.017737
Cu7   Cu    Cu3+1 0.062760 1.000000 0.062860 1.006173
Cu8   Cu    Cu3+1 0.562760 0.500000 0.062860 1.006838
O29   O     O_R   0.946970 1.000000 0.038620 -0.600517
O30   O     O_R   0.446970 0.500000 0.038620 -0.600399
O31   O     O_R   0.052980 1.000000 0.144650 -0.579332
O32   O     O_R   0.552980 0.500000 0.144650 -0.579492
C79   C     C_R   0.000004 0.000192 0.120308 0.820940
C80   C     C_R   0.500003 0.500177 0.120308 0.820922
O33   O     O_R   0.499990 0.552970 0.408480 -0.543937
O34   O     O_R   0.499990 0.447030 0.408480 -0.580816
O35   O     O_R   0.999990 0.052970 0.408480 -0.543890
O36   O     O_R   0.999990 0.947030 0.408480 -0.580858
C81   C     C_R   0.500623 0.499757 0.380437 0.817156
C82   C     C_R   0.000636 0.999754 0.380449 0.817148
O37   O     O_R   0.408420 0.552990 0.408490 -0.598511
O38   O     O_R   0.408420 0.447010 0.408490 -0.525944
O39   O     O_R   0.908420 0.052990 0.408490 -0.598473
O40   O     O_R   0.908420 0.947010 0.408490 -0.525968
C83   C     C_R   0.379709 0.499984 0.379549 0.864775
C84   C     C_R   0.879709 0.999984 0.379549 0.864817
Cu9   Cu    Cu3+1 0.499990 0.562760 0.500060 1.028660
Cu10  Cu    Cu3+1 0.499990 0.437240 0.500060 1.052875
Cu11  Cu    Cu3+1 0.999990 0.062760 0.500060 1.028794
Cu12  Cu    Cu3+1 0.999990 0.937240 0.500060 1.052937
O41   O     O_R   0.500000 0.553030 0.591640 -0.594004
O42   O     O_R   0.500000 0.446970 0.591640 -0.571694
O43   O     O_R   0.000000 0.053030 0.591640 -0.593973
O44   O     O_R   0.000000 0.946970 0.591640 -0.571722
O45   O     O_R   0.591570 0.553010 0.591640 -0.575206
O46   O     O_R   0.591570 0.446990 0.591640 -0.596221
O47   O     O_R   0.091570 0.053010 0.591640 -0.575182
O48   O     O_R   0.091570 0.946990 0.591640 -0.596228
C85   C     C_R   0.500001 0.500099 0.620478 0.824584
C86   C     C_R   0.999997 0.000100 0.620473 0.824723
C87   C     C_R   0.620344 0.499984 0.620244 0.799948
C88   C     C_R   0.120344 0.999984 0.620244 0.799903
C89   C     C_3   0.006952 0.058992 0.777949 -0.142144
C90   C     C_3   0.047435 0.964921 0.817973 -0.108009
C91   C     C_3   0.506455 0.559037 0.777455 -0.142407
C92   C     C_3   0.547743 0.465317 0.818284 -0.108152
C93   C     C_3   0.554121 0.524098 0.783529 -0.212664
C94   C     C_3   0.054315 0.023645 0.783716 -0.212794
H35   H     H_    0.598512 0.543611 0.809735 0.154499
H36   H     H_    0.098871 0.042775 0.810083 0.154555
H37   H     H_    0.012961 0.107180 0.802177 0.183106
H38   H     H_    0.086562 0.936097 0.874887 0.196461
H39   H     H_    0.512054 0.607275 0.801269 0.183339
H40   H     H_    0.587114 0.436826 0.875442 0.196826
C95   C     C_3   0.499927 0.500200 0.688958 -0.021162
C96   C     C_3   0.999918 0.000207 0.688948 -0.021724
C97   C     C_3   0.452214 0.535142 0.681681 -0.083836
C98   C     C_3   0.493553 0.441400 0.722707 -0.091027
C99   C     C_3   0.952506 0.035558 0.681974 -0.084465
C100  C     C_3   0.993043 0.941466 0.722197 -0.089753
C101  C     C_3   0.945607 0.976839 0.716174 -0.095196
C102  C     C_3   0.445816 0.476363 0.716381 -0.095960
C103  C     C_3   0.000017 0.000262 0.811060 -0.022249
C104  C     C_3   0.500022 0.500250 0.811066 -0.022339
H41   H     H_    0.413042 0.563731 0.624422 0.175322
H42   H     H_    0.488213 0.393044 0.699345 0.188134
H43   H     H_    0.913580 0.064480 0.624963 0.175237
H44   H     H_    0.987283 0.893158 0.698415 0.188554
H45   H     H_    0.900986 0.957556 0.689409 0.182188
H46   H     H_    0.401363 0.456698 0.689786 0.181806
C105  C     C_3   0.054803 0.974251 0.282693 -0.248304
C106  C     C_3   0.995585 0.059549 0.224923 -0.200792
C107  C     C_3   0.554786 0.474234 0.282695 -0.248583
C108  C     C_3   0.495577 0.559542 0.224904 -0.200776
C109  C     C_3   0.548386 0.532472 0.318343 0.327499
C110  C     C_3   0.048401 0.032475 0.318357 0.327447
H47   H     H_    0.098726 0.953521 0.308520 0.184790
H48   H     H_    0.991645 0.108211 0.203940 0.155742
H49   H     H_    0.598708 0.453491 0.308535 0.184642
H50   H     H_    0.491642 0.608200 0.203912 0.155704
C111  C     C_3   0.501075 0.499042 0.312611 -0.189355
C112  C     C_3   0.001101 0.999026 0.312633 -0.189483
C113  C     C_3   0.505608 0.441538 0.274425 0.218855
C114  C     C_3   0.448362 0.524041 0.218729 0.233298
C115  C     C_3   0.005639 0.941532 0.274432 0.219015
C116  C     C_3   0.948381 0.024030 0.218755 0.233295
C117  C     C_3   0.951131 0.965375 0.179576 -0.162509
C118  C     C_3   0.451110 0.465375 0.179563 -0.162388
C119  C     C_3   0.000172 0.000033 0.188572 -0.132590
C120  C     C_3   0.500164 0.500015 0.188568 -0.132508
H51   H     H_    0.910725 0.938044 0.121493 0.161861
H52   H     H_    0.410705 0.438043 0.121482 0.161872
N1    N     N_R   0.027497 0.789768 0.908559 0.123788
O49   O     O_R   0.038123 0.748699 0.875614 -0.335399
O50   O     O_R   0.028708 0.848794 0.896287 -0.408153
N2    N     N_R   0.937957 0.209819 0.830701 0.120815
O51   O     O_R   0.915052 0.250945 0.769714 -0.342273
O52   O     O_R   0.931511 0.150783 0.811683 -0.384622
N3    N     N_R   0.529426 0.289751 0.910899 0.123833
O53   O     O_R   0.540826 0.248673 0.878935 -0.335548
O54   O     O_R   0.530870 0.348774 0.898866 -0.407180
N4    N     N_R   0.437568 0.709843 0.830523 0.120802
O55   O     O_R   0.414529 0.750981 0.769496 -0.342350
O56   O     O_R   0.431069 0.650811 0.811460 -0.384318
N5    N     N_R   0.793325 0.421370 0.885452 0.132775
O57   O     O_R   0.779818 0.431700 0.930256 -0.342550
O58   O     O_R   0.827571 0.373588 0.904584 -0.377076
N6    N     N_R   0.293320 0.921512 0.885573 0.132770
O59   O     O_R   0.279812 0.931935 0.930359 -0.342828
O60   O     O_R   0.327560 0.873702 0.904774 -0.377037
N7    N     N_R   0.600879 0.568872 0.394362 0.123793
O61   O     O_R   0.657801 0.551913 0.438806 -0.366749
O62   O     O_R   0.590981 0.619027 0.417358 -0.336342
N8    N     N_R   0.100897 0.068870 0.394380 0.123765
O63   O     O_R   0.157818 0.051909 0.438818 -0.366887
O64   O     O_R   0.091005 0.119016 0.417397 -0.336383
N9    N     N_2   0.511775 0.378080 0.302500 -0.381305
H53   H     H_    0.548724 0.372601 0.369790 0.265540
C121  C     C_3   0.510651 0.331036 0.252787 -0.634252
H54   H     H_    0.513598 0.284027 0.277047 0.230716
H55   H     H_    0.550952 0.337288 0.261130 0.232716
H56   H     H_    0.466473 0.333743 0.181595 0.234169
N10   N     N_2   0.391547 0.550520 0.187067 -0.410853
H57   H     H_    0.371179 0.522855 0.200246 0.273436
C122  C     C_3   0.347656 0.572467 0.097009 -0.586818
H58   H     H_    0.307501 0.595021 0.080662 0.231309
H59   H     H_    0.330072 0.532785 0.050824 0.227543
H60   H     H_    0.370081 0.607449 0.088614 0.227231
N11   N     N_2   0.011828 0.878056 0.302472 -0.381108
H61   H     H_    0.048740 0.872572 0.369768 0.265607
C123  C     C_3   0.010788 0.831049 0.252798 -0.634760
H62   H     H_    0.013632 0.784022 0.276929 0.230746
H63   H     H_    0.051180 0.837270 0.261327 0.232168
H64   H     H_    0.966681 0.833813 0.181568 0.233863
N12   N     N_2   0.891566 0.050499 0.187105 -0.410851
H65   H     H_    0.871195 0.022818 0.200266 0.273461
C124  C     C_3   0.847680 0.072475 0.097062 -0.586574
H66   H     H_    0.807530 0.095028 0.080731 0.231445
H67   H     H_    0.830088 0.032810 0.050852 0.227498
H68   H     H_    0.870111 0.107467 0.088690 0.227211
N13   N     N_2   0.088114 0.793532 0.171634 -0.437638
H69   H     H_    0.119161 0.823920 0.182183 0.272648
C125  C     C_3   0.118691 0.746555 0.239489 -0.680915
H70   H     H_    0.151678 0.769395 0.305442 0.235626
H71   H     H_    0.145179 0.713835 0.235554 0.226900
H72   H     H_    0.083839 0.720193 0.232368 0.237401
N14   N     N_2   0.121890 0.208422 0.118667 -0.401002
H73   H     H_    0.130319 0.178811 0.089992 0.266897
C126  C     C_3   0.169010 0.256358 0.172122 -0.615855
H74   H     H_    0.215998 0.234545 0.219338 0.248947
H75   H     H_    0.162933 0.282146 0.210706 0.231193
H76   H     H_    0.166279 0.289449 0.129699 0.221192
N15   N     N_2   0.586784 0.293517 0.171649 -0.438675
H77   H     H_    0.617924 0.324210 0.182895 0.272447
C127  C     C_3   0.617135 0.246456 0.239360 -0.681479
H78   H     H_    0.649414 0.269269 0.305317 0.235332
H79   H     H_    0.644367 0.214214 0.236322 0.227292
H80   H     H_    0.582057 0.219571 0.231218 0.237792
N16   N     N_2   0.621877 0.708411 0.118198 -0.401002
H81   H     H_    0.630171 0.678814 0.089345 0.266780
C128  C     C_3   0.669026 0.756336 0.171542 -0.615630
H82   H     H_    0.716012 0.734519 0.218556 0.248985
H83   H     H_    0.663122 0.782082 0.210348 0.231111
H84   H     H_    0.666144 0.789466 0.129013 0.221230
N17   N     N_R   0.292507 0.419450 0.200993 0.117709
O65   O     O_R   0.279747 0.429516 0.129782 -0.376944
O66   O     O_R   0.323513 0.369787 0.247600 -0.331888
N18   N     N_R   0.290292 0.461057 0.406561 0.126585
O67   O     O_R   0.249279 0.446677 0.407818 -0.337411
O68   O     O_R   0.349426 0.457411 0.478845 -0.391593
N19   N     N_R   0.792508 0.919462 0.200983 0.117695
O69   O     O_R   0.779745 0.929535 0.129772 -0.376975
O70   O     O_R   0.823515 0.869798 0.247584 -0.331887
N20   N     N_R   0.790295 0.961046 0.406560 0.126698
O71   O     O_R   0.749282 0.946632 0.407807 -0.337295
O72   O     O_R   0.849428 0.957463 0.478864 -0.391510

loop_
_geom_bond_atom_site_label_1
_geom_bond_atom_site_label_2
_geom_bond_distance
_ccdc_geom_bond_type
C82   C112  1.462619 S    
C31   C35   1.554951 S    
C98   H42   1.110151 S    
C14   C18   1.529097 S    
C118  H52   1.110062 S    
C29   H9    1.110072 S    
C43   H21   1.110216 S    
C7    C71   1.466659 S    
C85   C95   1.468422 S    
C128  H82   1.110230 S    
Cu12  O48   1.972749 S    
N16   C128  1.445680 S    
C53   H23   1.109570 S    
C123  H62   1.110203 S    
C9    C13   1.538061 S    
C10   H2    1.110210 S    
Cu11  O47   1.973085 S    
O29   C79   1.290789 A    
N8    O64   1.300200 A    
O35   Cu11  1.971799 S    
Cu6   O30   1.972706 S    
O9    C3    1.291996 A    
O10   C4    1.291095 A    
O8    Cu2   1.973083 S    
C32   H12   1.110235 S    
N4    O56   1.299812 A    
N14   C126  1.445679 S    
C105  C119  1.547405 S    
C86   C96   1.468404 S    
C95   C98   1.535164 S    
O5    C3    1.290571 A    
O6    C4    1.291075 A    
N5    O57   1.300301 A    
C109  N7    1.456368 S    
C59   C67   1.552645 S    
C114  C118  1.542769 S    
C118  C120  1.548621 S    
N6    O60   1.300212 A    
C114  N10   1.446750 S    
C107  C109  1.542070 S    
C107  H49   1.110249 S    
C65   H31   1.110271 S    
N10   H57   1.030933 S    
C15   N3    1.456607 S    
Cu9   O41   1.973507 S    
N20   O71   1.300183 A    
C81   C111  1.462571 S    
C36   H16   1.109755 S    
C9    C21   1.540833 S    
Cu1   O13   1.972548 S    
O38   C83   1.291927 A    
C30   H10   1.110235 S    
O23   Cu6   1.974497 S    
C53   C55   1.541772 S    
C3    C37   1.462209 S    
C52   C54   1.538903 S    
O48   C88   1.292062 A    
O17   Cu5   1.972554 S    
O42   C85   1.292948 A    
O35   C82   1.293057 A    
O5    Cu1   1.975141 S    
N11   C123  1.445924 S    
C57   C65   1.552642 S    
C16   C20   1.529109 S    
O21   Cu5   1.974497 S    
C116  N12   1.446746 S    
C48   C51   1.527109 S    
C113  N9    1.447316 S    
Cu12  O44   1.971453 S    
C128  H84   1.111483 S    
N10   C122  1.444624 S    
C41   C49   1.536392 S    
C113  C118  1.541152 S    
C121  H55   1.110729 S    
C26   H6    1.110035 S    
C33   C37   1.540619 S    
C35   C39   1.540682 S    
C36   C40   1.540300 S    
C44   H22   1.110248 S    
C108  H50   1.110163 S    
C89   C94   1.547108 S    
C5    C39   1.462180 S    
C6    C40   1.461372 S    
O8    C6    1.291078 A    
C25   C29   1.554519 S    
C27   C31   1.554545 S    
O31   C79   1.290467 A    
O17   C73   1.293120 A    
O19   Cu7   1.972306 S    
C24   C28   1.536665 S    
C14   C34   1.537218 S    
C17   C21   1.528824 S    
C91   C97   1.548119 S    
C92   C93   1.547175 S    
N20   O72   1.299954 A    
C31   H11   1.110076 S    
C20   C24   1.531467 S    
C63   C65   1.538506 S    
C117  H51   1.110065 S    
O40   Cu12  1.972923 S    
C127  H79   1.111442 S    
C61   H25   1.110205 S    
C12   C16   1.538384 S    
C91   C104  1.534113 S    
C61   C63   1.537241 S    
Cu1   Cu3   2.689058 S    
C8    C72   1.466659 S    
C91   C93   1.547126 S    
C60   C72   1.539655 S    
O34   Cu10  1.973864 S    
N2    O51   1.300189 A    
C94   H36   1.110219 S    
N9    H53   1.030848 S    
C33   H13   1.110182 S    
O27   C77   1.291959 A    
C63   C87   1.465465 S    
N17   O66   1.300205 A    
C54   C56   1.541776 S    
C98   C102  1.546168 S    
C41   C55   1.542756 S    
C47   C49   1.527106 S    
C58   C71   1.539660 S    
C15   C19   1.528282 S    
N1    O49   1.300202 A    
O45   C87   1.293525 A    
O23   C77   1.291759 A    
C105  C110  1.542072 S    
C41   H19   1.110217 S    
C124  H66   1.110310 S    
C125  H72   1.110413 S    
C101  C103  1.534693 S    
C79   C119  1.458638 S    
C96   C99   1.533756 S    
C101  H45   1.110132 S    
C45   H17   1.110113 S    
N18   O68   1.299951 A    
C68   C70   1.531603 S    
C69   C71   1.521215 S    
C9    C37   1.542919 S    
O27   Cu8   1.973902 S    
O6    Cu1   1.973083 S    
C10   C14   1.538406 S    
O33   C81   1.292988 A    
C11   C39   1.542909 S    
C12   C40   1.542858 S    
C44   C46   1.554867 S    
O33   Cu9   1.971799 S    
C60   H30   1.110113 S    
O36   Cu12  1.973864 S    
C112  C115  1.534857 S    
C42   C50   1.537665 S    
O9    Cu3   1.973082 S    
Cu7   O31   1.972764 S    
O24   Cu6   1.974159 S    
N15   H77   1.030564 S    
O4    Cu4   1.972549 S    
C42   C55   1.540818 S    
C126  H74   1.110227 S    
C97   C102  1.546739 S    
N3    O54   1.299529 A    
C27   H7    1.110099 S    
C122  H59   1.111181 S    
C17   C29   1.544977 S    
O37   Cu9   1.972586 S    
O38   Cu10  1.972923 S    
C49   N17   1.456660 S    
C19   C31   1.545002 S    
C117  C119  1.548568 S    
C1    C55   1.461188 S    
C65   C69   1.535001 S    
N19   O70   1.300205 A    
O44   C86   1.292966 A    
C13   N1    1.456572 S    
C34   H14   1.109760 S    
Cu9   O45   1.973085 S    
O47   C88   1.293527 A    
Cu10  O46   1.972749 S    
Cu3   O15   1.973133 S    
C110  N8    1.456368 S    
C92   H40   1.109991 S    
O14   C8    1.292587 A    
C43   C46   1.554687 S    
C59   H29   1.110176 S    
N13   C125  1.445301 S    
O11   C5    1.291887 A    
C16   N4    1.457436 S    
O12   Cu4   1.975144 S    
C69   N5    1.456089 S    
C45   C47   1.545436 S    
C106  C119  1.547794 S    
O18   Cu6   1.972554 S    
C62   H26   1.110202 S    
C54   H24   1.109573 S    
C115  C117  1.541148 S    
C23   N15   1.447180 S    
O37   C83   1.291614 A    
C64   C67   1.538501 S    
C49   C53   1.540086 S    
C100  H44   1.110151 S    
C116  C117  1.542788 S    
C124  H68   1.110777 S    
C125  H70   1.110321 S    
Cu11  O43   1.973507 S    
C70   N6    1.456089 S    
C67   H33   1.110273 S    
C95   C97   1.533744 S    
C34   C38   1.540310 S    
C123  H64   1.110519 S    
C97   H41   1.110165 S    
N3    O53   1.300186 A    
C60   C62   1.549900 S    
N7    O61   1.300322 A    
C26   C30   1.555012 S    
C102  C104  1.534670 S    
O1    C1    1.291694 A    
C22   N14   1.447623 S    
C2    C56   1.461192 S    
C111  C114  1.530953 S    
C57   H27   1.110178 S    
C109  C111  1.529921 S    
C126  H76   1.111482 S    
C58   C61   1.549893 S    
C15   C35   1.537271 S    
C18   C22   1.531474 S    
C90   H38   1.109994 S    
C73   C103  1.469299 S    
C60   C68   1.551746 S    
C106  C116  1.543337 S    
C90   C103  1.534543 S    
C11   C23   1.540790 S    
N11   H61   1.030843 S    
C48   C84   1.463870 S    
O36   C82   1.289126 A    
C12   C24   1.538379 S    
Cu5   Cu7   2.688873 S    
C10   C22   1.538367 S    
C48   C52   1.528263 S    
Cu6   Cu8   2.688873 S    
C128  H83   1.110335 S    
O46   C87   1.292064 A    
C105  H47   1.110251 S    
C74   C104  1.469281 S    
O1    Cu1   1.973133 S    
O2    Cu2   1.973133 S    
Cu8   O32   1.972764 S    
O39   C84   1.291612 A    
C25   C37   1.544171 S    
O4    C2    1.290370 A    
O26   C76   1.290473 A    
C67   C70   1.534994 S    
Cu9   Cu10  2.690776 S    
C29   C33   1.554982 S    
C23   C27   1.536706 S    
C50   N18   1.457312 S    
O43   C86   1.294578 A    
C64   C88   1.465461 S    
C57   C71   1.538760 S    
C52   N20   1.457318 S    
O20   C74   1.292750 A    
N16   H81   1.030855 S    
N8    O63   1.300325 A    
O22   C76   1.293546 A    
C20   C32   1.544305 S    
O7    Cu2   1.975141 S    
N14   H73   1.030852 S    
C21   C25   1.536710 S    
N4    O55   1.300190 A    
C27   C39   1.544055 S    
C115  N11   1.447339 S    
Cu2   Cu4   2.689058 S    
C10   C38   1.542856 S    
C28   C40   1.542390 S    
C11   C15   1.538035 S    
C58   H28   1.110107 S    
C44   C52   1.537660 S    
C108  C120  1.547807 S    
C127  H78   1.110295 S    
N6    O59   1.300301 A    
O22   Cu5   1.974159 S    
O25   C75   1.291956 A    
C66   H32   1.110175 S    
C44   C56   1.540815 S    
O16   C8    1.291645 A    
O25   Cu7   1.973902 S    
O28   C78   1.290491 A    
C19   C23   1.528790 S    
O3    C1    1.290370 A    
O21   C75   1.291763 A    
C46   C48   1.545427 S    
C13   C17   1.528254 S    
O41   C85   1.294601 A    
O24   C78   1.293530 A    
C18   C30   1.544297 S    
C107  C113  1.541256 S    
C42   C45   1.554869 S    
O40   C84   1.291928 A    
N2    O52   1.299817 A    
O11   Cu4   1.973082 S    
O39   Cu11  1.972586 S    
C32   C36   1.556256 S    
Cu10  O42   1.971453 S    
N15   C127  1.445338 S    
N17   O65   1.300366 A    
Cu4   O16   1.973133 S    
C9    H1    1.110204 S    
C99   C101  1.546692 S    
C92   C98   1.545659 S    
C59   C72   1.538765 S    
Cu5   O29   1.972706 S    
C107  C120  1.547433 S    
N19   O69   1.300364 A    
C125  H71   1.111465 S    
Cu11  Cu12  2.690776 S    
O12   C6    1.291090 A    
C43   C56   1.542754 S    
C96   C100  1.535136 S    
C121  H56   1.110508 S    
C14   N2    1.457433 S    
O28   Cu8   1.974236 S    
C51   N19   1.456660 S    
C25   H5    1.110109 S    
C62   C64   1.537239 S    
N12   C124  1.444620 S    
C43   C51   1.536391 S    
N7    O62   1.300206 A    
C112  C116  1.530968 S    
Cu2   O14   1.972548 S    
C100  C101  1.546189 S    
C18   C76   1.466495 S    
C41   C45   1.554689 S    
C24   N16   1.447619 S    
C122  H58   1.110308 S    
C28   H8    1.110033 S    
C63   C66   1.540245 S    
C42   H20   1.110247 S    
C80   C120  1.458694 S    
O2    C2    1.291693 A    
C4    C38   1.461371 S    
C102  H46   1.110135 S    
O18   C74   1.293129 A    
C70   C72   1.521219 S    
C127  H80   1.110457 S    
C57   C61   1.551780 S    
C21   N13   1.447267 S    
O20   Cu8   1.972306 S    
C106  C110  1.542145 S    
C108  C109  1.542152 S    
C90   C100  1.545653 S    
N13   H69   1.030601 S    
O10   Cu3   1.975144 S    
C50   C53   1.538894 S    
C89   C99   1.548155 S    
C90   C94   1.547194 S    
N9    C121  1.445803 S    
C17   C75   1.466113 S    
O26   Cu7   1.974236 S    
C20   C78   1.466499 S    
C99   H43   1.110163 S    
C92   C104  1.534551 S    
C47   C50   1.528265 S    
N1    O50   1.299512 A    
C47   C83   1.463872 S    
C64   C68   1.540247 S    
C108  C114  1.543345 S    
O7    C5    1.290669 A    
N12   H65   1.030924 S    
O32   C80   1.290501 A    
C51   C54   1.540092 S    
O13   C7    1.292594 A    
C124  H67   1.111181 S    
O30   C80   1.290781 A    
C26   C38   1.542397 S    
O3    Cu3   1.972549 S    
C121  H54   1.110212 S    
C35   H15   1.110167 S    
N18   O67   1.300187 A    
C19   C77   1.466114 S    
C30   C34   1.556270 S    
C123  H63   1.110881 S    
C13   C33   1.537239 S    
C93   C95   1.533327 S    
O34   C81   1.289167 A    
C91   H39   1.109798 S    
C16   C36   1.537231 S    
C89   H37   1.109816 S    
O15   C7    1.291636 A    
C22   C26   1.536669 S    
C46   H18   1.110113 S    
C66   C69   1.531605 S    
C89   C103  1.534112 S    
N5    O58   1.300211 A    
C111  C113  1.534748 S    
C106  H48   1.110163 S    
C126  H75   1.110339 S    
C11   H3    1.110215 S    
C59   C62   1.551778 S    
C12   H4    1.110209 S    
C122  H60   1.110777 S    
C110  C112  1.529938 S    
C93   H35   1.110219 S    
C58   C66   1.551750 S    
C94   C96   1.533331 S    
C105  C115  1.541218 S    
C68   H34   1.110175 S    
C28   C32   1.555029 S    
O19   C73   1.292767 A    
