data_mof_unit_26008.cif
_audit_creation_date              2013-03-05T15:46:20-0500
_audit_creation_method            fapswitch 2.2
_symmetry_space_group_name_H-M    P1
_symmetry_Int_Tables_number       1
_space_group_crystal_system       triclinic
_cell_length_a                    10.982615
_cell_length_b                    10.90145
_cell_length_c                    18.774486
_cell_angle_alpha                 90.811466
_cell_angle_beta                  91.179805
_cell_angle_gamma                 59.902844
_cell_volume                      1944.31376809

loop_
_atom_site_label
_atom_site_type_symbol
_atom_site_description
_atom_site_fract_x
_atom_site_fract_y
_atom_site_fract_z
_atom_type_partial_charge
O1    O     O_R   0.748800 0.497470 0.428000 -0.545662
O2    O     O_R   0.476420 0.724060 0.429470 -0.511801
C1    C     C_R   0.360356 0.767809 0.395793 0.563508
O3    O     O_R   0.264580 0.744340 0.416750 -0.510088
O4    O     O_R   0.309380 0.472470 0.418200 -0.501164
C2    C     C_R   0.416012 0.378346 0.382918 0.540356
O5    O     O_R   0.501710 0.260430 0.414300 -0.479345
O6    O     O_R   0.728090 0.305600 0.428960 -0.509358
C3    C     C_R   0.774302 0.380756 0.402087 0.548258
O7    O     O_R   0.738760 0.495930 0.588610 -0.403129
O8    O     O_R   0.467110 0.722640 0.578360 -0.493058
C4    C     C_R   0.339921 0.778003 0.602127 0.564075
O9    O     O_R   0.254530 0.742800 0.577360 -0.448736
O10   O     O_R   0.300070 0.471040 0.567100 -0.456287
C5    C     C_R   0.371638 0.350329 0.596492 0.589522
O11   O     O_R   0.491670 0.258900 0.574910 -0.520650
O12   O     O_R   0.718780 0.304180 0.577850 -0.480844
C6    C     C_R   0.703296 0.412798 0.617068 0.565542
Cr1   Cr    Cr6+3 0.601770 0.606860 0.505860 1.074516
Cr2   Cr    Cr6+3 0.291380 0.601660 0.495070 1.095326
Cr3   Cr    Cr6+3 0.606880 0.291510 0.499120 1.073819
O13   O     O_3   0.500010 0.500010 0.500020 -0.329597
C7    C     C_R   0.825893 0.958920 0.063962 -0.111953
C8    C     C_R   0.737201 0.096019 0.037829 0.251929
C9    C     C_R   0.647555 0.203022 0.085014 -0.096566
C10   C     C_R   0.624202 0.168264 0.153200 0.000219
H1    H     H_    0.613296 0.245947 0.289180 0.139453
C11   C     C_R   0.358764 0.339752 0.161140 -0.004534
C12   C     C_R   0.509480 0.293633 0.264770 -0.119153
C13   C     C_R   0.496072 0.272490 0.192464 -0.006687
C14   C     C_R   0.044757 0.646175 0.323582 -0.133878
C15   C     C_R   0.954099 0.711560 0.380451 -0.110810
C16   C     C_R   0.707988 0.027251 0.177818 0.162793
C17   C     C_R   0.813580 0.925566 0.133798 -0.159936
C18   C     C_R   0.240783 0.425868 0.202959 -0.135866
C19   C     C_R   0.254391 0.431855 0.276033 0.003016
C20   C     C_R   0.940990 0.629548 0.432683 -0.096898
C21   C     C_R   0.014453 0.481947 0.426763 -0.037021
C22   C     C_R   0.102256 0.414470 0.368754 0.251949
C23   C     C_R   0.125257 0.497613 0.319450 0.030332
C24   C     C_R   0.390989 0.366791 0.307187 0.019666
H2    H     H_    0.880866 0.817729 0.151837 0.117876
H3    H     H_    0.896404 0.826019 0.384900 0.144617
H4    H     H_    0.900179 0.875691 0.029429 0.143967
H5    H     H_    0.581106 0.310131 0.065718 0.134275
H6    H     H_    0.057603 0.711633 0.285114 0.111880
H7    H     H_    0.135052 0.475207 0.180437 0.145982
H8    H     H_    0.872427 0.680296 0.477362 0.168009
H9    H     H_    0.001009 0.419838 0.466898 0.207426
C25   C     C_R   0.871733 0.225123 0.297248 -0.104324
H10   H     H_    0.892832 0.132809 0.327876 0.141601
C26   C     C_R   0.894235 0.212581 0.224667 -0.106258
H11   H     H_    0.938419 0.108272 0.200628 0.147766
C27   C     C_R   0.864929 0.332738 0.184403 0.031583
C28   C     C_R   0.811408 0.465131 0.216603 -0.138910
H12   H     H_    0.789307 0.558399 0.186511 0.135793
C29   C     C_R   0.789693 0.477455 0.288648 -0.133027
C30   C     C_R   0.819899 0.357588 0.329362 0.038512
C31   C     C_R   0.412512 0.881619 0.295437 -0.071292
H13   H     H_    0.449339 0.934075 0.332083 0.179962
C32   C     C_R   0.410874 0.903194 0.222192 -0.091813
H14   H     H_    0.438895 0.978905 0.203062 0.174795
C33   C     C_R   0.359416 0.838055 0.174861 0.017039
C34   C     C_R   0.320039 0.743728 0.200310 -0.142883
H15   H     H_    0.280800 0.692071 0.164505 0.122785
C35   C     C_R   0.319582 0.724872 0.272699 -0.146897
H16   H     H_    0.288336 0.652572 0.291656 0.121571
C36   C     C_R   0.358748 0.798519 0.320730 0.038057
C37   C     C_R   0.458365 0.254743 0.713916 -0.177902
H17   H     H_    0.563709 0.192814 0.693450 0.169836
C38   C     C_R   0.444154 0.256947 0.786052 -0.126331
H18   H     H_    0.537464 0.192472 0.818222 0.220265
C39   C     C_R   0.310839 0.330958 0.815664 -0.016624
C40   C     C_R   0.191873 0.412793 0.772507 -0.114553
C41   C     C_R   0.205907 0.414309 0.698731 0.195378
C42   C     C_R   0.340929 0.333716 0.669354 0.013705
C43   C     C_R   0.715701 0.505858 0.743166 0.180964
C44   C     C_R   0.725445 0.477638 0.815887 -0.109770
H19   H     H_    0.703167 0.562062 0.853729 0.173723
C45   C     C_R   0.793201 0.339237 0.840744 0.027456
C46   C     C_R   0.814529 0.229321 0.794493 -0.109553
H20   H     H_    0.866916 0.120636 0.812467 0.196972
C47   C     C_R   0.777862 0.258088 0.722836 -0.170832
C48   C     C_R   0.733496 0.393709 0.694657 -0.003125
C49   C     C_R   0.175978 0.873123 0.705374 0.202070
C50   C     C_R   0.175590 0.872760 0.779676 -0.129037
H21   H     H_    0.085684 0.881217 0.806879 0.184486
C51   C     C_R   0.284934 0.873431 0.818644 -0.034269
C52   C     C_R   0.389730 0.884590 0.782134 -0.126092
H22   H     H_    0.467803 0.900385 0.810319 0.199716
C53   C     C_R   0.393316 0.879332 0.708433 -0.139391
H23   H     H_    0.472162 0.891196 0.681207 0.207183
C54   C     C_R   0.297649 0.855199 0.670334 0.011470
O14   O     O_R   0.186690 0.923650 0.086970 -0.521084
O15   O     O_R   0.957250 0.194250 0.084630 -0.513248
C55   C     C_R   0.913091 0.314657 0.112315 0.551209
O16   O     O_R   0.934970 0.407490 0.085330 -0.525185
O17   O     O_R   0.203780 0.365190 0.067090 -0.511231
C56   C     C_R   0.329064 0.295821 0.092051 0.547330
O18   O     O_R   0.417600 0.174890 0.067840 -0.500018
O19   O     O_R   0.375320 0.946260 0.070860 -0.502146
C57   C     C_R   0.309638 0.897219 0.104625 0.547006
O20   O     O_R   0.160600 0.919630 0.926660 -0.506015
O21   O     O_R   0.933060 0.190520 0.936020 -0.459674
C58   C     C_R   0.875794 0.311724 0.906709 0.578431
O22   O     O_R   0.908880 0.403460 0.925020 -0.523890
O23   O     O_R   0.179600 0.361450 0.918490 -0.506547
C59   C     C_R   0.295904 0.291110 0.886510 0.570587
O24   O     O_R   0.391510 0.170860 0.907530 -0.483453
O25   O     O_R   0.351130 0.942530 0.922260 -0.506930
C60   C     C_R   0.269607 0.903182 0.895052 0.546395
Cr4   Cr    Cr6+3 0.062440 0.063090 0.008210 1.056010
Cr5   Cr    Cr6+3 0.062880 0.375170 0.998920 1.037455
Cr6   Cr    Cr6+3 0.374700 0.061720 0.992470 1.071242
O26   O     O_3   0.166667 0.166667 0.999870 -0.266004
N1    N     N_R   0.171940 0.262594 0.361970 0.070621
O27   O     O_R   0.203225 0.203397 0.299293 -0.366526
O28   O     O_R   0.189040 0.184112 0.417086 -0.335132
H24   H     H_    0.745661 0.582391 0.311979 0.149451
H25   H     H_    0.087729 0.466565 0.795250 0.183961
N2    N     N_R   0.082947 0.490807 0.654525 0.093702
O29   O     O_R   0.068032 0.433520 0.596256 -0.336555
O30   O     O_R   0.978292 0.609952 0.676607 -0.209208
N3    N     N_R   0.707151 0.639928 0.725121 0.085469
O31   O     O_R   0.730586 0.710991 0.774583 -0.331112
O32   O     O_R   0.689574 0.689138 0.661128 -0.270031
H26   H     H_    0.794251 0.170741 0.688568 0.207564
N4    N     N_R   0.050577 0.899762 0.666550 0.088794
O33   O     O_R   0.958596 0.875260 0.695888 -0.293180
O34   O     O_R   0.014951 0.973897 0.608234 -0.309750
N5    N     N_R   0.726281 0.122900 0.962640 0.080916
O35   O     O_R   0.794921 0.019295 0.917912 -0.361314
O36   O     O_R   0.633266 0.246574 0.937906 -0.398555
N6    N     N_R   0.678061 0.987362 0.244996 -0.314444
O37   O     O_R   0.727903 0.855090 0.261750 -0.000000
O38   O     O_R   0.727903 0.855090 0.261750 -0.000000

loop_
_geom_bond_atom_site_label_1
_geom_bond_atom_site_label_2
_geom_bond_distance
_ccdc_geom_bond_type
C35   C36   1.397368 A    
C28   H12   1.083963 S    
O19   C57   1.274058 A    
H1    C12   1.082146 S    
C39   C40   1.402612 A    
O15   C55   1.257341 A    
C17   H2    1.082806 S    
O17   Cr5   1.948849 S    
C18   H7    1.084575 S    
N4    O33   1.301135 A    
Cr6   O26   1.983750 S    
O4    Cr2   1.944302 S    
C49   C50   1.395136 A    
C59   O24   1.262460 A    
O8    Cr1   1.948103 S    
C12   C13   1.390879 A    
C47   C48   1.411463 A    
O15   Cr4   1.947053 S    
C21   C22   1.402220 A    
C50   C51   1.396388 A    
C5    O11   1.260238 A    
N1    O27   1.300756 A    
C37   C42   1.402467 A    
O20   C60   1.276127 A    
C3    C30   1.438861 S    
C37   C38   1.364965 A    
O25   C60   1.267551 A    
O23   Cr5   1.956229 S    
C14   C23   1.404912 A    
C51   C60   1.460616 S    
C49   C54   1.423818 A    
C16   N6    1.436588 S    
C1    C36   1.450812 S    
C11   C18   1.406319 A    
N1    O28   1.301519 A    
O6    C3    1.273847 A    
C14   H6    1.081884 S    
C6    C48   1.481458 S    
C7    C8    1.401527 A    
C52   C53   1.384612 A    
O25   Cr6   1.941032 S    
C27   C55   1.437964 S    
C29   H24   1.083544 S    
C5    C42   1.450899 S    
C31   H13   1.083195 S    
Cr3   O13   1.966801 S    
O19   Cr6   1.947763 S    
C19   C24   1.415706 A    
C37   H17   1.081449 S    
C33   C57   1.447240 S    
O21   C58   1.271662 A    
C46   C47   1.390466 A    
C26   C27   1.409268 A    
C46   H20   1.080904 S    
C31   C32   1.396615 A    
O1    Cr1   2.069522 S    
C40   C41   1.398050 A    
O22   Cr5   2.067126 S    
C25   C30   1.392085 A    
O10   Cr2   1.943823 S    
C19   C23   1.483607 S    
Cr1   O13   1.978582 S    
O1    C3    1.250880 A    
C8    C9    1.403427 A    
C53   H23   1.077152 S    
O21   Cr4   1.944242 S    
C50   H21   1.082799 S    
C39   C59   1.442781 S    
N6    O38   1.300745 A    
C43   C48   1.448615 A    
C25   H10   1.083566 S    
C9    C10   1.404585 A    
C43   C44   1.393901 A    
C45   C58   1.462166 S    
C2    C24   1.458246 S    
O12   Cr3   1.950357 S    
C7    H4    1.082539 S    
N4    O34   1.301996 A    
O20   Cr4   2.064317 S    
C18   C19   1.381151 A    
C34   C35   1.377872 A    
C41   C42   1.410090 A    
C20   C21   1.396065 A    
C31   C36   1.398229 A    
C53   C54   1.387715 A    
C10   C16   1.416827 A    
C25   C26   1.382509 A    
C14   C15   1.396355 A    
O7    Cr1   2.066835 S    
O23   C59   1.271306 A    
C7    C17   1.392728 A    
C55   O16   1.265704 A    
C32   C33   1.406129 A    
O12   C6    1.323501 A    
O18   Cr6   2.062145 S    
C15   C20   1.393352 A    
C4    O9    1.257352 A    
C20   H8    1.082474 S    
N2    O29   1.299797 A    
C2    O5    1.292513 A    
O24   Cr6   2.068556 S    
C11   C56   1.462834 S    
Cr2   O13   1.983505 S    
C10   C13   1.493333 S    
C28   C29   1.371300 A    
C4    C54   1.471611 S    
O16   Cr5   2.076218 S    
C1    O3    1.271412 A    
C9    H5    1.083367 S    
C22   C23   1.416064 A    
C21   H9    1.080417 S    
C26   H11   1.083181 S    
N3    O32   1.293571 A    
C27   C28   1.390358 A    
O9    Cr2   2.062025 S    
C12   C24   1.395534 A    
O2    Cr1   1.947056 S    
C41   N2    1.432438 S    
C47   H26   1.080989 S    
C45   C46   1.393574 A    
N5    O36   1.301455 A    
O6    Cr3   1.952888 S    
O8    C4    1.298890 A    
O11   Cr3   2.071637 S    
N6    O37   1.300745 A    
C40   H25   1.083855 S    
C58   O22   1.264874 A    
C56   O18   1.267150 A    
C34   H15   1.084191 S    
C11   C13   1.422773 A    
O2    C1    1.271883 A    
C38   H18   1.083118 S    
C43   N3    1.461104 S    
O5    Cr3   2.070334 S    
C44   H19   1.083723 S    
C8    N5    1.436137 S    
C29   C30   1.408889 A    
O4    C2    1.292525 A    
O7    C6    1.278576 A    
O14   Cr4   2.063847 S    
C15   H3    1.082446 S    
C16   C17   1.407450 A    
C35   H16   1.072334 S    
C44   C45   1.388363 A    
C32   H14   1.082885 S    
N2    O30   1.298881 A    
C33   C34   1.393246 A    
O3    Cr2   2.062982 S    
C51   C52   1.408748 A    
O14   C57   1.268955 A    
O17   C56   1.274611 A    
C38   C39   1.392775 A    
C22   N1    1.438883 S    
O10   C5    1.272526 A    
C49   N4    1.440811 S    
C52   H22   1.082450 S    
Cr4   O26   1.979507 S    
N5    O35   1.301682 A    
N3    O31   1.303255 A    
Cr5   O26   1.966696 S    
