data_mof_unit_55164.cif
_audit_creation_date              2012-10-26T21:10:39-0400
_audit_creation_method            fapswitch 2.2
_symmetry_space_group_name_H-M    P1
_symmetry_Int_Tables_number       1
_space_group_crystal_system       triclinic
_cell_length_a                    10.832506
_cell_length_b                    14.680925
_cell_length_c                    14.708431
_cell_angle_alpha                 65.219277
_cell_angle_beta                  103.437328
_cell_angle_gamma                 102.943728
_cell_volume                      2044.23983891

loop_
_atom_site_label
_atom_site_type_symbol
_atom_type_description
_atom_site_fract_x
_atom_site_fract_y
_atom_site_fract_z
_atom_type_partial_charge
C1    C     C_R   0.477436 0.119640 0.312220 0.540980
C2    C     C_R   0.543742 0.783993 0.971630 -0.136754
C3    C     C_R   0.417507 0.148784 0.128267 -0.144817
C4    C     C_R   0.547533 0.850553 0.871191 -0.145273
C5    C     C_R   0.478529 0.291763 0.178877 -0.137145
C6    C     C_R   0.502562 0.707948 0.820618 -0.134212
C7    C     C_R   0.455339 0.360043 0.077806 0.031372
C8    C     C_R   0.493445 0.639269 0.920587 0.031402
C9    C     C_R   0.418557 0.320193 0.001188 0.051836
C10   C     C_R   0.516890 0.678920 0.996893 0.051399
C11   C     C_R   0.471225 0.466658 0.050915 0.031287
C12   C     C_R   0.521028 0.880317 0.687766 0.541561
C13   C     C_R   0.464097 0.532582 0.946849 0.031013
C14   C     C_R   0.425515 0.489665 0.872636 -0.140152
C15   C     C_R   0.491509 0.509382 0.124441 -0.139304
C16   C     C_R   0.262815 0.999109 0.502424 0.546837
C17   C     C_R   0.737151 0.001075 0.497372 0.546528
C18   C     C_R   0.402027 0.385502 0.899668 -0.135304
C19   C     C_R   0.513216 0.613479 0.097546 -0.134753
C20   C     C_R   0.709223 0.282933 0.671845 -0.161552
C21   C     C_R   0.291595 0.717500 0.327518 -0.163039
C22   C     C_R   0.677594 0.201938 0.641041 0.041258
C23   C     C_R   0.870604 0.001804 0.495009 -0.002995
C24   C     C_R   0.322789 0.798263 0.358673 0.040908
C25   C     C_R   0.520065 0.285879 0.507889 0.047616
C26   C     C_R   0.479971 0.714143 0.492031 0.046573
C27   C     C_R   0.548381 0.371519 0.534821 0.003041
C28   C     C_R   0.452151 0.628762 0.464703 0.001784
C29   C     C_R   0.644626 0.367596 0.619511 0.037466
C30   C     C_R   0.356241 0.632858 0.379778 0.036426
C31   C     C_R   0.484102 0.459337 0.482387 0.013247
C32   C     C_R   0.516641 0.541053 0.516969 0.012279
C33   C     C_R   0.612338 0.532224 0.602584 -0.149666
C34   C     C_R   0.129348 0.999069 0.504103 -0.002563
C35   C     C_R   0.388735 0.468327 0.396548 -0.152287
C36   C     C_R   0.675095 0.447513 0.652198 -0.133477
C37   C     C_R   0.326193 0.553150 0.346786 -0.137153
C38   C     C_R   0.351041 0.081338 0.769362 -0.099576
C39   C     C_R   0.642591 0.925877 0.230289 -0.095853
C40   C     C_R   0.263056 0.035643 0.709322 -0.053650
C41   C     C_R   0.734511 0.969834 0.289824 -0.052191
C42   C     C_R   0.186513 0.094572 0.622221 0.050930
C43   C     C_R   0.812845 0.909431 0.374460 0.049394
C44   C     C_R   0.197958 0.199298 0.597099 -0.097625
C45   C     C_R   0.906549 0.954758 0.440612 -0.033552
C46   C     C_R   0.800136 0.805149 0.396929 -0.098244
C47   C     C_R   0.286046 0.244571 0.657404 -0.114486
C48   C     C_R   0.708421 0.761641 0.336883 -0.111807
C49   C     C_R   0.362961 0.185726 0.743168 -0.104400
C50   C     C_R   0.629040 0.821814 0.254182 -0.100009
C51   C     C_R   0.964061 0.048080 0.551867 -0.152592
C52   C     C_R   0.035832 0.953049 0.446937 -0.152078
C53   C     C_R   0.093351 0.047003 0.557698 -0.033957
C54   C     C_R   0.458324 0.187056 0.204644 -0.005663
C55   C     C_R   0.525834 0.812666 0.795119 -0.005318
C56   C     C_R   0.398958 0.215077 0.026991 -0.137738
Cu1   Cu    Cu3+1 0.466270 0.918260 0.475690 0.933271
Cu2   Cu    Cu3+1 0.533730 0.081740 0.524310 0.933636
H1    H     H_    0.431759 0.221001 0.789330 0.102890
H2    H     H_    0.445705 0.280701 0.446785 0.119092
H3    H     H_    0.274141 0.864205 0.317632 0.119536
H4    H     H_    0.726296 0.136024 0.682064 0.120256
H5    H     H_    0.783072 0.279054 0.736754 0.090323
H6    H     H_    0.218081 0.721561 0.262376 0.090277
H7    H     H_    0.641243 0.589659 0.633771 0.094111
H8    H     H_    0.360096 0.410997 0.365216 0.092006
H9    H     H_    0.409832 0.035871 0.836358 0.091672
H10   H     H_    0.581460 0.972382 0.165900 0.093003
H11   H     H_    0.254914 0.954704 0.730266 0.100031
H12   H     H_    0.556663 0.787773 0.208883 0.096862
H13   H     H_    0.743381 0.050439 0.271075 0.097921
H14   H     H_    0.139615 0.245869 0.530354 0.106260
H15   H     H_    0.859612 0.757430 0.461848 0.105898
H16   H     H_    0.295248 0.325389 0.637321 0.116041
H17   H     H_    0.697793 0.681056 0.355178 0.116904
H18   H     H_    0.936345 0.083051 0.594643 0.130560
H19   H     H_    0.063527 0.918172 0.404072 0.130057
H20   H     H_    0.372213 0.355942 0.840410 0.103926
H21   H     H_    0.528408 0.642806 0.156346 0.105138
H22   H     H_    0.493957 0.681743 0.760948 0.117675
H23   H     H_    0.369236 0.184175 0.968775 0.102014
H24   H     H_    0.515604 0.318497 0.239144 0.120788
H25   H     H_    0.567163 0.931336 0.853111 0.119910
H26   H     H_    0.400523 0.067918 0.146662 0.118654
H27   H     H_    0.561300 0.814731 0.029529 0.098949
H28   H     H_    0.408606 0.534319 0.792455 0.104502
H29   H     H_    0.487477 0.464475 0.203634 0.101044
H30   H     H_    0.748099 0.444340 0.717478 0.110987
H31   H     H_    0.253611 0.556527 0.281222 0.111700
H32   H     H_    0.553991 0.719166 0.553374 0.118834
N1    N     N_R   0.584450 0.204570 0.560790 -0.228432
N2    N     N_R   0.415550 0.795430 0.439210 -0.228013
O1    O     O_R   0.455540 0.022090 0.338120 -0.507545
O2    O     O_R   0.544460 0.977910 0.661880 -0.507055
O3    O     O_R   0.512510 0.160150 0.379180 -0.513999
O4    O     O_R   0.487490 0.839850 0.620820 -0.513913
O5    O     O_R   0.291160 0.930970 0.479480 -0.510164
O6    O     O_R   0.708840 0.069030 0.520520 -0.510501
O7    O     O_R   0.348130 0.069020 0.520540 -0.490796
O8    O     O_R   0.651870 0.930980 0.479460 -0.490266

loop_
_geom_bond_atom_site_label_1
_geom_bond_atom_site_label_2
_ccdc_geom_bond_type
C24   H3    S    
C23   C45   A    
Cu1   N2    S    
C27   C29   A    
C39   H10   S    
C14   C18   A    
C2    C4    A    
Cu2   O6    S    
C6    C55   A    
C1    C54   S    
C33   H7    S    
C56   H23   S    
C39   C41   A    
C38   C49   A    
C36   H30   S    
C15   C19   A    
C29   C36   A    
C8    C13   A    
C35   C37   A    
C42   C53   S    
C3    C54   A    
C16   O5    A    
C26   N2    A    
C33   C36   A    
C2    H27   S    
C21   H6    S    
C16   C34   S    
C6    H22   S    
Cu1   O4    S    
C22   N1    A    
C25   H2    S    
C17   O6    A    
C44   C47   A    
C18   H20   S    
C41   H13   S    
C40   C42   A    
Cu1   O1    S    
C13   C14   A    
C41   C43   A    
C48   H17   S    
C12   O2    A    
C42   C44   A    
C24   N2    A    
C43   C46   A    
C20   C29   A    
C46   C48   A    
C25   N1    A    
C40   H11   S    
C27   C31   A    
C5    C54   A    
C28   C32   A    
C51   H18   S    
C14   H28   S    
C47   C49   A    
C5    C7    A    
C6    C8    A    
C45   C52   A    
Cu1   O8    S    
C30   C37   A    
C51   C53   A    
C7    C11   A    
Cu2   O3    S    
C22   H4    S    
C3    C56   A    
C23   C51   A    
C31   C32   A    
C10   C19   A    
C1    O3    A    
Cu1   O5    S    
C9    C56   A    
C17   C23   S    
C19   H21   S    
C43   C45   S    
C8    C10   A    
C20   C22   A    
C11   C15   A    
C4    C55   A    
C31   C35   A    
C26   H32   S    
C52   H19   S    
C2    C10   A    
C15   H29   S    
Cu2   N1    S    
C7    C9    A    
C26   C28   A    
Cu2   O7    S    
C47   H16   S    
C49   H1    S    
C16   O7    A    
C25   C27   A    
C21   C30   A    
C34   C52   A    
C35   H8    S    
C37   H31   S    
C32   C33   A    
C20   H5    S    
C28   C30   A    
C50   H12   S    
C38   C40   A    
C5    H24   S    
C11   C13   A    
Cu1   Cu2   S    
C4    H25   S    
C48   C50   A    
C44   H14   S    
Cu2   O2    S    
C17   O8    A    
C12   C55   S    
C9    C18   A    
C39   C50   A    
C38   H9    S    
C34   C53   A    
C1    O1    A    
C21   C24   A    
C3    H26   S    
C12   O4    A    
C46   H15   S    
