data_mof_unit_6747.cif
_audit_creation_date              2013-03-05T16:12:48-0500
_audit_creation_method            fapswitch 2.2
_symmetry_space_group_name_H-M    P1
_symmetry_Int_Tables_number       1
_space_group_crystal_system       triclinic
_cell_length_a                    8.402217
_cell_length_b                    16.537898
_cell_length_c                    18.872296
_cell_angle_alpha                 110.918127
_cell_angle_beta                  89.635539
_cell_angle_gamma                 82.933056
_cell_volume                      2427.3732085

loop_
_atom_site_label
_atom_site_type_symbol
_atom_site_description
_atom_site_fract_x
_atom_site_fract_y
_atom_site_fract_z
_atom_type_partial_charge
P1    P     P_3+3 0.582960 0.413890 0.320860 0.434194
O1    O     O_2   0.402610 0.439360 0.314250 -0.399189
O2    O     O_3   0.648560 0.446300 0.404730 -0.404075
O3    O     O_3   0.108870 0.604000 0.387500 -0.398081
O4    O     O_2   0.255496 0.546789 0.251609 -0.349962
O5    O     O_3   0.614544 0.298323 0.291633 -0.580251
O6    O     O_3   0.092710 0.703125 0.297404 -0.470969
H1    H     H_    0.945573 0.749218 0.396562 0.068952
C1    C     C_3   0.952680 0.848080 0.349017 -0.920691
H2    H     H_    0.056074 0.873517 0.382237 0.258908
H3    H     H_    0.961058 0.854549 0.292676 0.286067
P2    P     P_3+3 0.071690 0.707860 0.593450 0.450916
P3    P     P_3+3 0.500471 0.765567 0.458392 0.412356
O7    O     O_2   0.241370 0.719440 0.573960 -0.388619
O8    O     O_3   0.507090 0.652150 0.432150 -0.412636
O9    O     O_2   0.333602 0.808457 0.498194 -0.400175
O10   O     O_3   0.061873 0.737247 0.692310 -0.566292
O11   O     O_3   0.495148 0.789907 0.375150 -0.541858
C2    C     C_3   0.500534 0.712048 0.311934 0.478196
H4    H     H_    0.396099 0.678610 0.315185 0.196126
H5    H     H_    0.613099 0.667612 0.308722 0.013573
C3    C     C_3   0.493504 0.733007 0.239777 -0.873685
H6    H     H_    0.382031 0.777672 0.241776 0.286018
H7    H     H_    0.599471 0.764521 0.233665 0.240980
C4    C     C_3   0.559487 0.748333 0.678598 0.293722
H8    H     H_    0.673829 0.769691 0.667964 0.098176
H9    H     H_    0.510889 0.711670 0.623711 0.128760
C5    C     C_3   0.440225 0.829184 0.723582 -0.423210
H10   H     H_    0.475347 0.856765 0.783380 0.221462
H11   H     H_    0.320650 0.808355 0.725724 0.200819
Ba1   Ba    Ba6+2 0.333520 0.539550 0.472180 1.497011
C6    C     C_3   0.484733 0.255818 0.255658 0.389329
H12   H     H_    0.378739 0.298847 0.249923 0.126884
H13   H     H_    0.447598 0.218186 0.289658 0.130694
C7    C     C_3   0.535385 0.189318 0.176572 -1.014377
H14   H     H_    0.562502 0.221844 0.136711 0.233682
H15   H     H_    0.435598 0.150737 0.154043 0.255584
H16   H     H_    0.641179 0.143448 0.178402 0.318844
C8    C     C_3   0.136589 0.668568 0.712069 0.425945
H17   H     H_    0.265130 0.654537 0.692740 0.074047
H18   H     H_    0.076674 0.609176 0.687275 0.139136
C9    C     C_3   0.123560 0.696384 0.798228 -0.990667
H19   H     H_    0.184921 0.754923 0.824694 0.260340
H20   H     H_    0.180138 0.643270 0.816274 0.228454
H21   H     H_    0.995197 0.712145 0.818692 0.268141
P4    P     P_3+3 0.606720 0.586180 0.679160 0.452057
O12   O     O_2   0.787080 0.560670 0.685800 -0.348855
O13   O     O_3   0.541120 0.553770 0.595290 -0.460086
O14   O     O_3   0.080800 0.396070 0.612520 -0.400892
O15   O     O_3   0.591639 0.699911 0.725470 -0.585048
P5    P     P_3+3 0.700700 0.234193 0.547096 0.446876
O16   O     O_3   0.164600 0.390590 0.443970 -0.402228
O17   O     O_3   0.682580 0.347920 0.567870 -0.377713
O18   O     O_2   0.860782 0.194328 0.500077 -0.403759
O19   O     O_3   0.737782 0.217068 0.632348 -0.511323
Ba2   Ba    Ba6+2 0.856270 0.460520 0.527840 1.508434
P6    P     P_3+3 0.091461 0.595303 0.291638 0.474121
C10   C     C_3   0.952243 0.752888 0.339042 0.474998
H22   H     H_    0.844789 0.730263 0.308096 0.033604
H23   H     H_    0.839703 0.887272 0.379788 0.223004
O20   O     O_3   0.025080 0.609480 0.556050 -0.441684
C11   C     C_3   0.016815 0.241439 0.260657 0.761961
H24   H     H_    0.908375 0.280289 0.295074 0.047575
C12   C     C_3   0.045947 0.271968 0.193716 -0.531721
H25   H     H_    0.156698 0.234042 0.159464 0.227427
H26   H     H_    0.071503 0.340543 0.217849 0.144852
P7    P     P_3+3 0.129172 0.278912 0.400718 0.415966
O21   O     O_2   0.948320 0.280590 0.426090 -0.368219
O22   O     O_3   0.155176 0.253409 0.302268 -0.680958
H27   H     H_    0.493342 0.671939 0.189716 0.250814
C13   C     C_3   0.602408 0.253962 0.682887 0.370532
H28   H     H_    0.549219 0.318004 0.680692 0.036384
H29   H     H_    0.510970 0.208542 0.668147 0.047193
C14   C     C_3   0.649864 0.271095 0.764940 -0.378245
H30   H     H_    0.765619 0.298566 0.774557 0.239948
H31   H     H_    0.557405 0.321448 0.803380 0.128465
P8    P     P_3+3 0.101271 0.410065 0.708859 0.423289
C15   C     C_3   0.159989 0.242764 0.646375 0.558988
H32   H     H_    0.276744 0.257011 0.629069 -0.035886
O23   O     O_2   0.943314 0.463703 0.751891 -0.375799
O24   O     O_3   0.094704 0.307260 0.715120 -0.536986
H33   H     H_    0.075669 0.238501 0.600556 0.161016
H34   H     H_    0.250848 0.104624 0.603909 0.234451
C16   C     C_3   0.186394 0.154403 0.655426 -1.075581
H35   H     H_    0.069213 0.133406 0.662534 0.282891
H36   H     H_    0.258125 0.158159 0.705467 0.258810
C17   C     C_R   0.514879 0.457795 0.040829 0.119353
C18   C     C_R   0.468216 0.402613 0.076913 -0.213026
C19   C     C_R   0.294654 0.431754 0.943919 0.215883
C20   C     C_R   0.443489 0.463394 0.972459 -0.027905
C21   C     C_R   0.246916 0.430358 0.872066 -0.218093
C22   C     C_R   0.332288 0.463608 0.827521 -0.059324
C23   C     C_R   0.469224 0.503639 0.857509 0.004257
C24   C     C_R   0.523178 0.505152 0.930423 0.004051
C25   C     C_R   0.280738 0.461112 0.754907 0.186405
C26   C     C_R   0.368175 0.498127 0.714082 -0.542039
C27   C     C_R   0.505006 0.536952 0.740747 0.290788
C28   C     C_R   0.551590 0.543222 0.814802 -0.022312
C29   C     C_R   0.645883 0.504307 0.072123 0.054238
C30   C     C_R   0.711731 0.502296 0.142579 -0.007711
C31   C     C_R   0.637641 0.457479 0.183332 -0.030811
C32   C     C_R   0.518213 0.407444 0.148282 -0.074775
H37   H     H_    0.322088 0.502113 0.662539 0.143697
H38   H     H_    0.135221 0.406152 0.852593 0.195763
H39   H     H_    0.467462 0.367143 0.173632 0.127412
C33   C     C_R   0.675391 0.590118 0.848329 -0.062226
C34   C     C_R   0.727645 0.592395 0.918326 -0.194175
C35   C     C_R   0.656157 0.549696 0.960923 0.100968
C36   C     C_R   0.713667 0.551185 0.032680 -0.011049
C37   C     C_R   0.841670 0.596627 0.065184 -0.309240
C38   C     C_R   0.849901 0.544878 0.171732 -0.217928
C39   C     C_R   0.912672 0.592096 0.130363 0.350667
C40   C     C_R   0.915742 0.538039 0.240228 0.119601
C41   C     C_R   0.840083 0.489217 0.276088 -0.194731
C42   C     C_R   0.693086 0.457628 0.254653 0.180827
H40   H     H_    0.734848 0.626500 0.821256 0.171769
H41   H     H_    0.396749 0.351878 0.049864 0.141706
H42   H     H_    0.827041 0.628609 0.936311 0.130796
H43   H     H_    0.896794 0.635573 0.039740 0.175745
C43   C     C_2   0.430212 0.227337 0.457356 -0.207906
C44   C     C_R   0.783870 0.756872 0.535227 -0.564403
C45   C     C_2   0.252015 0.114761 0.413793 -0.034484
C46   C     C_2   0.273803 0.199125 0.427492 0.192987
C47   C     C_2   0.529282 0.182768 0.492038 0.168448
C48   C     C_3   0.478749 0.100271 0.497337 -0.148459
C49   C     C_3   0.384705 0.054047 0.428931 0.104606
C50   C     C_2   0.613312 0.036062 0.505425 -0.120056
C51   C     C_2   0.578758 0.964277 0.516701 -0.157939
C52   C     C_R   0.849189 0.924212 0.556607 -0.009632
C53   C     C_R   0.702471 0.898665 0.527230 0.009854
C54   C     C_R   0.963822 0.866098 0.573283 -0.269836
C55   C     C_R   0.931528 0.781854 0.562555 0.375099
C56   C     C_R   0.671322 0.812504 0.514023 0.195998
H44   H     H_    0.074712 0.887914 0.596895 0.161684
H45   H     H_    0.753361 0.695072 0.533461 0.153931
H46   H     H_    0.737340 0.046219 0.500040 0.168614
H47   H     H_    0.453785 0.954414 0.519288 0.175116
C57   C     C_3   0.424553 0.900867 0.689395 -0.317262
C58   C     C_3   0.557871 0.958570 0.712143 -0.910745
H48   H     H_    0.551239 0.993453 0.774666 0.263808
H49   H     H_    0.677773 0.919262 0.694186 0.265222
H50   H     H_    0.542952 0.007684 0.684319 0.260858
H51   H     H_    0.424622 0.871619 0.626978 0.231918
H52   H     H_    0.307528 0.943009 0.709874 0.209047
N1    N     N_R   0.997669 0.148938 0.231928 0.226312
O25   O     O_R   0.106980 0.091630 0.185382 -0.426955
O26   O     O_R   0.870583 0.123231 0.252254 -0.455166
C59   C     C_3   0.905402 0.268982 0.141710 -0.352963
C60   C     C_3   0.910574 0.181679 0.075836 -0.754961
H53   H     H_    0.028275 0.164005 0.043228 0.251748
H54   H     H_    0.889123 0.128976 0.096623 0.296014
H55   H     H_    0.814735 0.187174 0.036899 0.219283
H56   H     H_    0.790434 0.284200 0.175168 0.223644
H57   H     H_    0.910227 0.320451 0.116994 0.203299
C61   C     C_3   0.656450 0.190890 0.788347 -0.299550
C62   C     C_3   0.805767 0.124911 0.755011 -0.804913
H58   H     H_    0.805219 0.097246 0.692117 0.279250
H59   H     H_    0.915314 0.156586 0.772939 0.260977
H60   H     H_    0.807999 0.070584 0.776621 0.234337
H61   H     H_    0.658143 0.213323 0.851314 0.192966
H62   H     H_    0.546657 0.158951 0.771749 0.190159
N2    N     N_R   0.052389 0.635180 0.149798 0.256628
O27   O     O_R   0.192929 0.589221 0.128582 -0.404448
O28   O     O_R   0.039379 0.718077 0.160720 -0.395388
C63   C     C_3   0.908415 0.480249 0.345163 -0.249830
C64   C     C_3   0.840165 0.563202 0.411012 -0.533065
H63   H     H_    0.826215 0.622732 0.396120 0.148012
H64   H     H_    0.732016 0.568243 0.444430 0.252643
H65   H     H_    0.925992 0.565839 0.451121 0.270872
H66   H     H_    0.893823 0.419372 0.353420 0.181035
H67   H     H_    0.041012 0.467566 0.338653 0.200001
C65   C     C_3   0.165824 0.410007 0.988848 -0.327625
C66   C     C_3   0.149020 0.312466 0.957740 -0.965966
H68   H     H_    0.094315 0.294419 0.901700 0.275050
H69   H     H_    0.267287 0.271541 0.950571 0.259301
H70   H     H_    0.069511 0.297659 0.997382 0.265570
H71   H     H_    0.179676 0.433622 0.050670 0.226293
H72   H     H_    0.048435 0.446093 0.983887 0.195766
C67   C     C_3   0.109448 0.072958 0.376492 -0.284582
C68   C     C_3   0.161973 0.996933 0.302193 -0.731458
H73   H     H_    0.245563 0.016300 0.267246 0.285143
H74   H     H_    0.224544 0.940279 0.313998 0.239146
H75   H     H_    0.055382 0.976460 0.269428 0.281844
H76   H     H_    0.050383 0.047621 0.415619 0.193719
H77   H     H_    0.018817 0.119867 0.364820 0.260790
C69   C     C_3   0.465314 0.312912 0.457435 -0.220448
C70   C     C_3   0.401475 0.381296 0.534120 -0.580906
H78   H     H_    0.407060 0.355528 0.580992 0.162859
H79   H     H_    0.478448 0.428871 0.540749 0.279921
H80   H     H_    0.286009 0.421255 0.544406 0.253200
H81   H     H_    0.595806 0.310025 0.445744 0.226760
H82   H     H_    0.420063 0.328835 0.409058 0.199382

loop_
_geom_bond_atom_site_label_1
_geom_bond_atom_site_label_2
_geom_bond_distance
_ccdc_geom_bond_type
C65   H71   1.102206 S    
C63   H67   1.105755 S    
O5    C6    1.414917 S    
C17   C18   1.406657 A    
C23   C24   1.444243 A    
Ba1   O20   2.909005 S    
C25   C26   1.395818 A    
C21   H38   1.080658 S    
C54   H44   1.081685 S    
C52   C53   1.405401 A    
C41   C42   1.405792 A    
C8    H18   1.110684 S    
C66   H68   1.110592 S    
C61   H62   1.110666 S    
C4    C5    1.536766 S    
P7    O22   1.757909 S    
C24   C35   1.424894 A    
C63   C64   1.528147 S    
C14   H31   1.107025 S    
P3    O11   1.754975 S    
C5    H10   1.112886 S    
C7    H15   1.110543 S    
C16   H36   1.110644 S    
C40   C41   1.423046 A    
C57   H51   1.102080 S    
C60   H54   1.108148 S    
N1    O25   1.301729 A    
C58   H50   1.109729 S    
P8    O23   1.545972 D    
C33   C34   1.383883 A    
C51   C53   1.475288 S    
C29   C36   1.412392 A    
C27   C28   1.425025 A    
P1    Ba1   3.388366 S    
C35   C36   1.433680 A    
C32   H39   1.072370 S    
O13   Ba2   2.925897 S    
P1    O1    1.540167 D    
O10   C8    1.397564 S    
C69   H81   1.108883 S    
O7    Ba1   2.910923 S    
C4    O15   1.397271 S    
C30   C31   1.429280 A    
C70   H80   1.078821 S    
C11   C12   1.546854 S    
H1    C10   1.110100 S    
C17   C20   1.454217 A    
C43   C47   1.365667 D    
C38   C39   1.424414 A    
C11   N1    1.459264 S    
P2    O10   1.750594 S    
C34   C35   1.417502 A    
Ba1   Ba2   4.594316 S    
C19   C21   1.409639 A    
P2    C55   1.840635 S    
C1    H2    1.110521 S    
Ba1   O16   2.880978 S    
O6    C10   1.405403 S    
N2    O28   1.301913 A    
C68   H75   1.109616 S    
C12   C59   1.534507 S    
C64   H64   1.080246 S    
P5    C47   1.888595 S    
C9    H20   1.107468 S    
N1    O26   1.300391 A    
C68   H74   1.110507 S    
C20   C24   1.432761 A    
C8    C9    1.522742 S    
C17   C29   1.429784 A    
C45   C46   1.361180 D    
C66   H69   1.109620 S    
C45   C67   1.508441 S    
P4    O13   1.604495 S    
C14   H30   1.112372 S    
P7    O21   1.584299 D    
C31   C32   1.396819 A    
C7    H16   1.104532 S    
C5    C57   1.532246 S    
C50   H46   1.085571 S    
C60   H55   1.110797 S    
C8    H17   1.107364 S    
C13   H29   1.107873 S    
C15   H32   1.110097 S    
O11   C2    1.404057 S    
P6    C40   1.929820 S    
C10   H22   1.109055 S    
Ba2   O21   2.911144 S    
P8    C25   1.883546 S    
C22   C25   1.427875 A    
C44   H45   1.073155 S    
P1    O5    1.774271 S    
C11   O22   1.401653 S    
P7    C46   1.887485 S    
O1    Ba1   2.860192 S    
P1    O2    1.604495 S    
C9    H21   1.110842 S    
C6    H13   1.107620 S    
C45   C49   1.505390 S    
C51   H47   1.085716 S    
C6    C7    1.524112 S    
C11   H24   1.102410 S    
O2    Ba2   2.874295 S    
C15   H33   1.109583 S    
H34   C16   1.108303 S    
P8    O24   1.753303 S    
C26   C27   1.394829 A    
C2    C3    1.520220 S    
C38   C40   1.444974 A    
C16   H35   1.106198 S    
O2    Ba1   2.925122 S    
C1    H3    1.108638 S    
O16   P7    1.796620 S    
C69   C70   1.527515 S    
P4    C27   1.891649 S    
P2    O7    1.521634 D    
Ba1   O13   2.873721 S    
P3    O8    1.754199 S    
P2    Ba1   3.421375 S    
C48   C49   1.527191 S    
C31   C42   1.426407 A    
C3    H7    1.110626 S    
C26   H37   1.069957 S    
C53   C56   1.414215 A    
C9    H19   1.110558 S    
C44   C55   1.399288 A    
P4    Ba2   3.388865 S    
C50   C51   1.342893 D    
C19   C20   1.447793 A    
C30   C38   1.441881 A    
C21   C22   1.393956 A    
C65   C66   1.532195 S    
C41   C63   1.475672 S    
N2    O27   1.299328 A    
C67   H76   1.111109 S    
O17   Ba2   2.797746 S    
C65   H72   1.110860 S    
C63   H66   1.093182 S    
C59   H57   1.111531 S    
P4    O12   1.540472 D    
C1    C10   1.517767 S    
C34   H42   1.073729 S    
C2    H5    1.111165 S    
C61   H61   1.112071 S    
Ba2   O20   2.880424 S    
P3    C56   1.864666 S    
C62   H60   1.109730 S    
C19   C65   1.523775 S    
C43   C69   1.480219 S    
C37   H43   1.073017 S    
C13   C14   1.536084 S    
C18   C32   1.391250 A    
C58   H48   1.110573 S    
C43   C46   1.494971 S    
O8    Ba1   2.797138 S    
C67   H77   1.099561 S    
C4    H9    1.106869 S    
O14   Ba2   2.830015 S    
C39   N2    1.430032 S    
P4    O15   1.756053 S    
C28   C33   1.392951 A    
C29   C30   1.453155 A    
O4    P6    1.547853 D    
C1    H23   1.109620 S    
C6    H12   1.100684 S    
P5    O18   1.542748 D    
C2    H4    1.105660 S    
C62   H59   1.110011 S    
O6    P6    1.748597 S    
C4    H8    1.104400 S    
C13   H28   1.112782 S    
C57   H52   1.111809 S    
C60   H53   1.111234 S    
C12   H25   1.111940 S    
P2    O20   1.624488 S    
C58   H49   1.108868 S    
C15   O24   1.407356 S    
C64   H63   1.109765 S    
C5    H11   1.106478 S    
C22   C23   1.417939 A    
C66   H70   1.109366 S    
O14   P8    1.761264 S    
C14   C61   1.535655 S    
P5    O19   1.753818 S    
C59   C60   1.527801 S    
C69   H82   1.094943 S    
C54   C55   1.395697 A    
C37   C39   1.392400 A    
C70   H79   1.053049 S    
O3    Ba1   2.830643 S    
C57   C58   1.525243 S    
P5    O17   1.765373 S    
C67   C68   1.529193 S    
C15   C16   1.520770 S    
C70   H78   1.109538 S    
C62   H58   1.109524 S    
C64   H65   1.042129 S    
C59   H56   1.101870 S    
P3    O9    1.547450 D    
C33   H40   1.078369 S    
C61   C62   1.524256 S    
C48   C50   1.500572 S    
C3    H6    1.110741 S    
O12   Ba2   2.860650 S    
C7    H14   1.106388 S    
P1    C42   1.932854 S    
C44   C56   1.398024 A    
C18   H41   1.071080 S    
C36   C37   1.405655 A    
C23   C28   1.427647 A    
C3    H27   1.109754 S    
O19   C13   1.405576 S    
C68   H73   1.109573 S    
O16   Ba2   2.908229 S    
O3    P6    1.771390 S    
C12   H26   1.109964 S    
C47   C48   1.513641 S    
C52   C54   1.393730 A    
