data_mof_unit_63360.cif
_audit_creation_date              2012-10-26T19:34:56-0400
_audit_creation_method            fapswitch 2.2
_symmetry_space_group_name_H-M    P1
_symmetry_Int_Tables_number       1
_space_group_crystal_system       triclinic
_cell_length_a                    13.880181
_cell_length_b                    18.390085
_cell_length_c                    19.431724
_cell_angle_alpha                 90.473001
_cell_angle_beta                  91.740218
_cell_angle_gamma                 84.831846
_cell_volume                      4937.57840454

loop_
_atom_site_label
_atom_site_type_symbol
_atom_type_description
_atom_site_fract_x
_atom_site_fract_y
_atom_site_fract_z
_atom_type_partial_charge
C1    C     C_R   0.498189 0.500547 0.632260 0.569897
C2    C     C_R   0.551202 0.550657 0.036276 0.096384
C3    C     C_R   0.492413 0.501799 0.927869 0.082575
C4    C     C_R   0.499437 0.501447 0.072078 0.082222
C5    C     C_R   0.529645 0.275857 0.557389 0.354921
C6    C     C_R   0.418636 0.727519 0.479380 0.363489
C7    C     C_R   0.518340 0.200821 0.559891 -0.062925
C8    C     C_R   0.414903 0.803721 0.486736 -0.098930
C9    C     C_R   0.498521 0.161440 0.499565 -0.056134
C10   C     C_R   0.499631 0.838450 0.499776 -0.081246
C11   C     C_R   0.480661 0.202806 0.439348 -0.107946
C12   C     C_R   0.501360 0.499553 0.367753 0.569602
C13   C     C_R   0.584513 0.792685 0.513109 -0.100499
C14   C     C_R   0.470657 0.279427 0.442124 0.367994
C15   C     C_R   0.581061 0.717112 0.520782 0.361537
C16   C     C_R   0.682886 0.488170 0.500145 0.545308
C17   C     C_R   0.317113 0.511836 0.499856 0.546318
C18   C     C_R   0.433462 0.041648 0.455712 0.125127
C19   C     C_R   0.555316 0.958569 0.548770 0.097098
C20   C     C_R   0.442343 0.964793 0.450473 0.134769
C21   C     C_R   0.562075 0.034635 0.543485 0.126138
C22   C     C_R   0.499317 0.921197 0.499575 0.003764
C23   C     C_R   0.542543 0.435749 0.256091 0.259178
C24   C     C_R   0.497762 0.078551 0.499449 0.026181
C25   C     C_1   0.213900 0.518982 0.499793 0.016338
C26   C     C_1   0.786098 0.481080 0.500220 0.015824
C27   C     C_2   0.023301 0.530230 0.499707 -0.111105
C28   C     C_2   0.976693 0.469931 0.500327 -0.119296
C29   C     C_1   0.872992 0.475509 0.500277 -0.030630
C30   C     C_1   0.127005 0.524620 0.499747 -0.030623
C31   C     C_R   0.466880 0.560791 0.255655 -0.189110
C32   C     C_R   0.530324 0.440613 0.745404 -0.185194
C33   C     C_R   0.466133 0.561294 0.184248 -0.133216
C34   C     C_R   0.453279 0.565183 0.742864 0.245413
C35   C     C_R   0.528909 0.440855 0.816756 -0.136422
C36   C     C_R   0.502778 0.499648 0.147741 0.068350
C37   C     C_R   0.490548 0.502675 0.852208 0.069002
C38   C     C_R   0.541765 0.436660 0.182986 0.096212
C39   C     C_R   0.451963 0.565073 0.815944 0.099162
C40   C     C_R   0.503797 0.498412 0.292038 0.040215
C41   C     C_R   0.493749 0.502316 0.707954 0.035157
C42   C     C_R   0.444211 0.452942 0.035634 -0.110002
C43   C     C_R   0.547356 0.550485 0.964302 -0.110542
C44   C     C_R   0.440445 0.452725 0.963660 0.096547
Cu1   Cu    Cu3+1 0.500030 0.426640 0.500000 1.005917
Cu2   Cu    Cu3+1 0.499970 0.573360 0.500000 1.015199
H1    H     H_    0.016124 0.416126 0.500865 0.139568
H2    H     H_    0.588000 0.587949 0.936703 0.120425
H3    H     H_    0.530362 0.173690 0.608885 0.166467
H4    H     H_    0.346130 0.835094 0.478510 0.139508
H5    H     H_    0.381605 0.354387 0.404529 0.346574
H6    H     H_    0.633705 0.645416 0.584774 0.354854
H7    H     H_    0.327624 0.127106 0.444083 0.234340
H8    H     H_    0.374997 0.091190 0.368599 0.246192
H9    H     H_    0.564186 0.880121 0.624218 0.251471
H10   H     H_    0.673463 0.902340 0.594344 0.231820
H11   H     H_    0.434023 0.885638 0.375466 0.235683
H12   H     H_    0.983878 0.584038 0.499169 0.154442
H13   H     H_    0.324570 0.923590 0.404669 0.246260
H14   H     H_    0.703904 0.040580 0.568357 0.247144
H15   H     H_    0.628328 0.057702 0.634629 0.258022
H16   H     H_    0.654985 0.364405 0.158048 0.239272
H17   H     H_    0.544511 0.330072 0.154140 0.228741
H18   H     H_    0.447576 0.672034 0.843742 0.224569
H19   H     H_    0.337533 0.637072 0.838912 0.241265
H20   H     H_    0.604007 0.335423 0.263195 0.326098
H21   H     H_    0.390367 0.664961 0.734140 0.323441
H22   H     H_    0.311353 0.413713 0.942653 0.236941
H23   H     H_    0.469316 0.176803 0.390256 0.137118
H24   H     H_    0.407368 0.350356 0.941419 0.231860
H25   H     H_    0.584638 0.652921 0.058594 0.230891
H26   H     H_    0.680491 0.589432 0.057132 0.236977
H27   H     H_    0.619861 0.339033 0.594046 0.351604
H28   H     H_    0.365438 0.661714 0.415821 0.344429
H29   H     H_    0.653154 0.815036 0.521306 0.138745
H30   H     H_    0.436976 0.609102 0.282547 0.134765
H31   H     H_    0.561868 0.392321 0.719548 0.184524
H32   H     H_    0.435931 0.609765 0.157170 0.140793
H33   H     H_    0.558986 0.392874 0.844641 0.143361
H34   H     H_    0.403710 0.415380 0.063226 0.122254
N1    N     N_R   0.500010 0.316380 0.499980 -0.236010
N2    N     N_3   0.609189 0.599624 0.072949 -0.625391
N3    N     N_R   0.499990 0.683620 0.500020 -0.230372
N4    N     N_3   0.353820 0.079738 0.418168 -0.606303
N5    N     N_3   0.603352 0.922053 0.607083 -0.642956
N6    N     N_3   0.394835 0.933384 0.392136 -0.604286
N7    N     N_3   0.637234 0.066737 0.582237 -0.629128
N8    N     N_3   0.581949 0.375394 0.143727 -0.645317
N9    N     N_3   0.410311 0.626623 0.854148 -0.644679
N10   N     N_3   0.382724 0.403603 0.926959 -0.622595
O1    O     O_R   0.500040 0.438020 0.599820 -0.497203
O2    O     O_3   0.659720 0.679339 0.552261 -0.682964
O3    O     O_3   0.582454 0.376365 0.293851 -0.649434
O4    O     O_3   0.414099 0.624072 0.704117 -0.679229
O5    O     O_3   0.575424 0.305567 0.612875 -0.704116
O6    O     O_3   0.339728 0.699555 0.448606 -0.680513
O7    O     O_R   0.499960 0.561980 0.400180 -0.544357
O8    O     O_R   0.500000 0.561930 0.599810 -0.461204
O9    O     O_R   0.500000 0.438070 0.400190 -0.420873
O10   O     O_R   0.637870 0.429290 0.499990 -0.512782
O11   O     O_R   0.362130 0.570710 0.500010 -0.460407
O12   O     O_R   0.637830 0.553200 0.499980 -0.476322
O13   O     O_R   0.362170 0.446800 0.500020 -0.529788
O14   O     O_3   0.427207 0.315056 0.386121 -0.656209

loop_
_geom_bond_atom_site_label_1
_geom_bond_atom_site_label_2
_ccdc_geom_bond_type
C21   N7    S    
C28   H1    S    
C42   H34   S    
H17   N8    S    
C31   C40   A    
H8    N4    S    
H10   N5    S    
Cu1   Cu2   S    
C10   C22   S    
H19   N9    S    
Cu2   O12   S    
C3    C43   A    
C32   H31   S    
H7    N4    S    
C18   C24   A    
C28   C29   S    
C35   C37   A    
C11   C14   A    
H9    N5    S    
C23   C40   A    
C33   C36   A    
H11   N6    S    
C17   O11   A    
C12   O9    A    
Cu1   O13   S    
C15   O2    S    
C13   H29   S    
C20   N6    S    
H21   O4    S    
H22   N10   S    
C32   C41   A    
C31   C33   A    
H15   N7    S    
C43   H2    S    
H25   N2    S    
Cu2   O8    S    
C1    O1    A    
C27   C30   S    
H24   N10   S    
C34   C41   A    
C42   C44   A    
H18   N9    S    
Cu1   O1    S    
C5    O5    S    
H14   N7    S    
C16   C26   S    
Cu2   O11   S    
C3    C44   A    
C34   C39   A    
C32   C35   A    
H28   O6    S    
C19   C22   A    
C4    C36   S    
C7    H3    S    
Cu1   O9    S    
C5    C7    A    
C16   O10   A    
C15   N3    A    
H5    O14   S    
H16   N8    S    
Cu1   O10   S    
C23   O3    S    
C38   N8    S    
C12   C40   S    
C2    C4    A    
C5    N1    A    
C14   O14   S    
C2    C43   A    
C9    C11   A    
C12   O7    A    
H20   O3    S    
C16   O12   A    
Cu2   O7    S    
C20   C22   A    
C6    O6    S    
C13   C15   A    
C2    N2    S    
H27   O5    S    
C8    H4    S    
C44   N10   S    
C1    C41   S    
C25   C30   T    
C7    C9    A    
C6    N3    A    
C19   C21   A    
Cu1   N1    S    
C34   O4    S    
C19   N5    S    
C10   C13   A    
C1    O8    A    
C6    C8    A    
C11   H23   S    
C9    C24   S    
C23   C38   A    
C17   C25   S    
C36   C38   A    
C17   O13   A    
H13   N6    S    
C18   N4    S    
C37   C39   A    
C31   H30   S    
C4    C42   A    
C27   H12   S    
C35   H33   S    
C18   C20   A    
C33   H32   S    
H6    O2    S    
Cu2   N3    S    
C3    C37   S    
C26   C29   T    
C8    C10   A    
C21   C24   A    
C27   C28   D    
C14   N1    A    
C39   N9    S    
H26   N2    S    
