data_mof_unit_53688.cif
_audit_creation_date              2013-03-05T15:44:39-0500
_audit_creation_method            fapswitch 2.2
_symmetry_space_group_name_H-M    P1
_symmetry_Int_Tables_number       1
_space_group_crystal_system       triclinic
_cell_length_a                    24.937546
_cell_length_b                    7.193144
_cell_length_c                    14.455846
_cell_angle_alpha                 90.118103
_cell_angle_beta                  103.178548
_cell_angle_gamma                 89.856952
_cell_volume                      2524.77905449

loop_
_atom_site_label
_atom_site_type_symbol
_atom_site_description
_atom_site_fract_x
_atom_site_fract_y
_atom_site_fract_z
_atom_type_partial_charge
O1    O     O_R   0.319150 0.364170 0.330530 -0.562747
O2    O     O_R   0.680850 0.635830 0.669470 -0.576603
O3    O     O_R   0.180850 0.864170 0.169470 -0.564576
O4    O     O_R   0.819150 0.135830 0.830530 -0.569103
O5    O     O_R   0.210330 0.696850 0.354180 -0.597620
O6    O     O_R   0.789670 0.303150 0.645820 -0.562079
O7    O     O_R   0.289670 0.196850 0.145820 -0.590236
O8    O     O_R   0.710330 0.803150 0.854180 -0.588847
C1    C     C_R   0.197219 0.525490 0.377897 1.087477
C2    C     C_R   0.801758 0.474355 0.620644 1.066761
C3    C     C_R   0.302114 0.024625 0.121166 1.080713
C4    C     C_R   0.697863 0.975431 0.878793 1.078663
O9    O     O_R   0.320550 0.694110 0.341970 -0.581333
O10   O     O_R   0.679450 0.305890 0.658030 -0.562342
O11   O     O_R   0.179450 0.194110 0.158030 -0.573413
O12   O     O_R   0.820550 0.805890 0.841970 -0.568527
O13   O     O_R   0.291860 0.861000 0.157170 -0.563646
O14   O     O_R   0.708140 0.139000 0.842830 -0.564809
O15   O     O_R   0.208140 0.361000 0.342830 -0.567600
O16   O     O_R   0.791860 0.639000 0.657170 -0.583477
C5    C     C_R   0.341955 0.525899 0.361782 0.987482
C6    C     C_R   0.658315 0.474382 0.637648 0.967415
C7    C     C_R   0.158202 0.025687 0.137873 0.978642
C8    C     C_R   0.841767 0.974409 0.862201 0.981136
O17   O     O_3   0.240460 0.529330 0.189380 -0.272525
O18   O     O_3   0.759540 0.470670 0.810620 -0.271757
O19   O     O_3   0.259540 0.029330 0.310620 -0.279997
O20   O     O_3   0.740460 0.970670 0.689380 -0.275477
V1    V     V_3+5 0.251770 0.805510 0.261240 1.312494
V2    V     V_3+5 0.748230 0.194490 0.738760 1.331712
V3    V     V_3+5 0.248230 0.305510 0.238760 1.321339
V4    V     V_3+5 0.751770 0.694490 0.761240 1.314182
C9    C     C_R   0.103032 0.016920 0.073403 -0.202122
C10   C     C_R   0.896871 0.983866 0.926810 -0.201732
C11   C     C_R   0.397298 0.519434 0.426040 -0.203289
C12   C     C_R   0.603269 0.482024 0.572987 -0.199758
C13   C     C_R   0.954187 0.013981 0.087070 0.408958
C14   C     C_R   0.045536 0.992358 0.913051 0.407668
C15   C     C_R   0.545416 0.470229 0.412493 0.411288
C16   C     C_R   0.455418 0.535421 0.586214 0.405467
C17   C     C_R   0.902170 0.002067 0.024526 -0.158364
C18   C     C_R   0.097620 0.001726 0.975514 -0.157094
C19   C     C_R   0.597465 0.461636 0.475214 -0.165574
C20   C     C_R   0.403580 0.548273 0.523387 -0.152957
C21   C     C_R   0.944130 0.978754 0.890223 -0.074572
C22   C     C_R   0.055805 0.023375 0.110139 -0.072547
C23   C     C_R   0.556532 0.509352 0.609424 -0.075086
C24   C     C_R   0.443979 0.488922 0.389664 -0.079399
C25   C     C_R   0.997307 0.994233 0.950168 -0.031204
C26   C     C_R   0.002536 0.009728 0.050211 -0.027926
C27   C     C_R   0.503199 0.510463 0.549387 -0.028961
C28   C     C_R   0.497461 0.490646 0.449474 -0.026996
H1    H     H_    0.061703 0.039313 0.185844 0.204987
H2    H     H_    0.938421 0.962155 0.814598 0.207563
H3    H     H_    0.437704 0.465796 0.314321 0.206473
H4    H     H_    0.562730 0.529836 0.684986 0.204232
H5    H     H_    0.134228 0.001478 0.947240 0.214024
H6    H     H_    0.865509 0.003595 0.052640 0.214460
H7    H     H_    0.367663 0.574993 0.551236 0.219671
H8    H     H_    0.633947 0.445723 0.447256 0.212682
C29   C     C_R   0.664659 0.987663 0.950453 -0.416532
C30   C     C_R   0.335277 0.012848 0.049417 -0.417684
C31   C     C_R   0.834535 0.479931 0.548215 -0.419018
C32   C     C_R   0.163953 0.518235 0.449567 -0.423097
C33   C     C_R   0.658147 0.010250 0.114515 -0.086751
C34   C     C_R   0.341677 0.992804 0.885195 -0.088904
C35   C     C_R   0.840955 0.472619 0.383674 -0.083410
C36   C     C_R   0.157236 0.530421 0.613670 -0.086031
C37   C     C_R   0.689806 0.023226 0.046482 0.292578
C38   C     C_R   0.310060 0.978769 0.953272 0.292027
C39   C     C_R   0.809767 0.447230 0.451639 0.293520
C40   C     C_R   0.189211 0.539395 0.546329 0.303633
C41   C     C_R   0.607219 0.959347 0.922605 0.273494
C42   C     C_R   0.392683 0.041811 0.077159 0.273495
C43   C     C_R   0.891082 0.523978 0.575816 0.279303
C44   C     C_R   0.106579 0.490536 0.420648 0.275039
C45   C     C_R   0.574095 0.982881 0.990145 -0.011775
C46   C     C_R   0.425771 0.018884 0.009531 -0.009715
C47   C     C_R   0.924453 0.512492 0.508097 -0.012431
C48   C     C_R   0.073164 0.505374 0.488512 -0.012181
C49   C     C_R   0.600938 0.982506 0.087877 -0.114950
C50   C     C_R   0.398910 0.020218 0.911838 -0.116176
C51   C     C_R   0.897593 0.511036 0.410415 -0.113669
C52   C     C_R   0.100011 0.504074 0.586480 -0.114303
C53   C     C_R   0.515446 0.004940 0.964298 0.034730
C54   C     C_R   0.484415 0.996973 0.035321 0.034890
C55   C     C_R   0.983368 0.502473 0.533884 0.035684
C56   C     C_R   0.014221 0.518768 0.462910 0.033995
C57   C     C_R   0.512526 0.955061 0.128990 -0.120160
C58   C     C_R   0.487348 0.047544 0.870686 -0.118862
C59   C     C_R   0.985326 0.558412 0.369466 -0.120287
C60   C     C_R   0.012043 0.463311 0.627451 -0.123512
C61   C     C_R   0.569904 0.955295 0.156907 0.401897
C62   C     C_R   0.429938 0.048458 0.842872 0.398848
C63   C     C_R   0.928083 0.547338 0.341539 0.397100
C64   C     C_R   0.069244 0.471478 0.655370 0.397964
H9    H     H_    0.678284 0.030851 0.188418 0.216763
H10   H     H_    0.321484 0.973389 0.811228 0.219591
H11   H     H_    0.820967 0.453326 0.309603 0.215945
H12   H     H_    0.177871 0.541820 0.687872 0.214953
H13   H     H_    0.490351 0.916865 0.181821 0.211157
H14   H     H_    0.509571 0.086066 0.817959 0.210470
H15   H     H_    0.006600 0.602830 0.316625 0.216910
H16   H     H_    0.990604 0.419684 0.680302 0.214575
N1    N     N_R   0.956509 0.030660 0.187091 0.263270
O21   O     O_R   0.919032 0.126295 0.215914 -0.306564
O22   O     O_R   0.988725 0.922973 0.247513 -0.387994
N2    N     N_R   0.042880 0.983579 0.812672 0.262767
O23   O     O_R   0.080295 0.892033 0.781567 -0.303665
O24   O     O_R   0.010576 0.095594 0.754835 -0.382705
N3    N     N_R   0.542658 0.465202 0.312034 0.266767
O25   O     O_R   0.578202 0.367056 0.279382 -0.308057
O26   O     O_R   0.513032 0.586972 0.256315 -0.377782
N4    N     N_R   0.458130 0.542140 0.686651 0.268248
O27   O     O_R   0.423358 0.644413 0.719041 -0.312543
O28   O     O_R   0.486344 0.417452 0.742409 -0.373884
N5    N     N_R   0.595715 0.915509 0.254580 0.257424
O29   O     O_R   0.636644 0.798717 0.274917 -0.318792
O30   O     O_R   0.572367 0.968517 0.322123 -0.327276
N6    N     N_R   0.404089 0.090998 0.745525 0.258067
O31   O     O_R   0.363225 0.208198 0.726182 -0.306756
O32   O     O_R   0.427404 0.040489 0.677527 -0.326456
N7    N     N_R   0.901695 0.584253 0.243856 0.254401
O33   O     O_R   0.859278 0.694847 0.223396 -0.322511
O34   O     O_R   0.925588 0.535297 0.176340 -0.328739
N8    N     N_R   0.095288 0.432406 0.752972 0.254471
O35   O     O_R   0.135371 0.312348 0.773096 -0.323111
O36   O     O_R   0.072344 0.487770 0.820605 -0.327110
N9    N     N_R   0.415408 0.124200 0.168322 0.213478
O37   O     O_R   0.406468 0.052212 0.245965 -0.411245
O38   O     O_R   0.446267 0.270983 0.173532 -0.368382
N10   N     N_R   0.584438 0.877830 0.831252 0.214042
O39   O     O_R   0.553734 0.730618 0.825714 -0.366365
O40   O     O_R   0.593432 0.950463 0.753790 -0.410463
N11   N     N_R   0.084562 0.416199 0.327346 0.215661
O41   O     O_R   0.055690 0.264217 0.317936 -0.372350
O42   O     O_R   0.092724 0.499611 0.251914 -0.405781
N12   N     N_R   0.912109 0.607934 0.667266 0.217251
O43   O     O_R   0.905670 0.528329 0.744801 -0.404488
O44   O     O_R   0.939850 0.762021 0.673012 -0.374919
N13   N     N_R   0.252217 0.937963 0.923078 0.230573
O45   O     O_R   0.228912 0.825430 0.972270 -0.400572
O46   O     O_R   0.224648 0.990251 0.839555 -0.305825
N14   N     N_R   0.747585 0.065147 0.076616 0.230408
O47   O     O_R   0.770746 0.177215 0.026991 -0.400705
O48   O     O_R   0.775081 0.015476 0.160636 -0.307515
N15   N     N_R   0.247991 0.548979 0.577928 0.236226
O49   O     O_R   0.278385 0.427515 0.546779 -0.400593
O50   O     O_R   0.270243 0.652033 0.650582 -0.326961
N16   N     N_R   0.752431 0.399683 0.420571 0.227834
O51   O     O_R   0.730900 0.273266 0.465058 -0.387351
O52   O     O_R   0.723855 0.461031 0.339561 -0.313735

loop_
_geom_bond_atom_site_label_1
_geom_bond_atom_site_label_2
_geom_bond_distance
_ccdc_geom_bond_type
O17   V3    1.754767 S    
C24   H3    1.077055 S    
C55   C56   1.421009 A    
O1    C5    1.328481 A    
N8    O35   1.301427 A    
C50   C62   1.409703 A    
O19   V1    1.752955 S    
C1    C32   1.468541 S    
O13   V1    2.027895 S    
O3    C7    1.326167 A    
N3    O25   1.301205 A    
O1    V3    1.999348 S    
C48   C52   1.421854 A    
C3    C30   1.468772 S    
O15   V3    2.025691 S    
C2    C31   1.468519 S    
C47   C55   1.432678 A    
N4    O27   1.301110 A    
N11   O41   1.300266 A    
C14   C25   1.424325 A    
C53   C54   1.420890 A    
C37   N14   1.439504 S    
O7    C3    1.343403 A    
N1    O22   1.299255 A    
O5    C1    1.341144 A    
C9    C18   1.394614 A    
O9    V1    2.007547 S    
N15   O50   1.301377 A    
C17   H6    1.081874 S    
C14   C18   1.404391 A    
N5    O30   1.301660 A    
O4    C8    1.325562 A    
N7    O34   1.301649 A    
C39   N16   1.439471 S    
C20   H7    1.079124 S    
C29   C37   1.410021 A    
C60   C64   1.392460 A    
N2    O23   1.301304 A    
C30   C38   1.409993 A    
C12   C23   1.397447 A    
O2    V4    1.999347 S    
C52   C64   1.409126 A    
O3    V1    1.998641 S    
C58   H14   1.076615 S    
C62   N6    1.441057 S    
C1    O15   1.337903 A    
C16   N4    1.438709 S    
N15   O49   1.300503 A    
C2    O16   1.340790 A    
N10   O39   1.299891 A    
C7    C9    1.476791 S    
O2    C6    1.326372 A    
O14   V2    2.027895 S    
C45   C49   1.418766 A    
C16   C20   1.403184 A    
C35   H11   1.081944 S    
C46   C54   1.432861 A    
O11   C7    1.328434 A    
C15   C28   1.424004 A    
C41   N10   1.437671 S    
C45   C53   1.433120 A    
O12   C8    1.328929 A    
C55   C60   1.407033 A    
C14   N2    1.438666 S    
C9    C22   1.398572 A    
C10   C17   1.394328 A    
C61   N5    1.440882 S    
O10   V2    2.007547 S    
C11   C24   1.399001 A    
C18   H5    1.081934 S    
C44   N11   1.437828 S    
N6    O32   1.301658 A    
C58   C62   1.396018 A    
O5    V1    2.031098 S    
O7    V3    2.026974 S    
C64   N8    1.440282 S    
C27   C28   1.425446 A    
C36   C52   1.404336 A    
N7    O33   1.301296 A    
N14   O48   1.301487 A    
C13   C26   1.425228 A    
O18   V4    1.754768 S    
C15   C19   1.404941 A    
C29   C41   1.411920 A    
C15   N3    1.438495 S    
C54   C57   1.408399 A    
C57   C61   1.395341 A    
C8    C10   1.476560 S    
C36   C40   1.393571 A    
O8    V4    2.026976 S    
C36   H12   1.081797 S    
C13   N1    1.438563 S    
C34   C50   1.405259 A    
C49   C61   1.409514 A    
C46   C50   1.418400 A    
C33   C49   1.405009 A    
C56   C59   1.407821 A    
C21   C25   1.413600 A    
O8    C4    1.343756 A    
C51   C63   1.408868 A    
C32   C44   1.410654 A    
O9    C5    1.326453 A    
N3    O26   1.300058 A    
C10   C21   1.397823 A    
C35   C51   1.404728 A    
C11   C20   1.395094 A    
N12   O44   1.300470 A    
C19   H8    1.082161 S    
O6    V2    2.031098 S    
C31   C39   1.411413 A    
C21   H2    1.076226 S    
N16   O52   1.301542 A    
C16   C27   1.422382 A    
N6    O31   1.301583 A    
N9    O37   1.301812 A    
O16   V4    2.025691 S    
C63   N7    1.440308 S    
N11   O42   1.301914 A    
N4    O28   1.300149 A    
C3    O13   1.336512 A    
C38   N13   1.439413 S    
N8    O36   1.301602 A    
C57   H13   1.076439 S    
C44   C48   1.428310 A    
C59   H15   1.074076 S    
N14   O47   1.300658 A    
C43   N12   1.438585 S    
O6    C2    1.339270 A    
C23   C27   1.412731 A    
C53   C58   1.408685 A    
O11   V3    2.009048 S    
C5    C11   1.478191 S    
O12   V4    2.009046 S    
C40   N15   1.434271 S    
C6    C12   1.475073 S    
N1    O21   1.301341 A    
C22   C26   1.414335 A    
O10   C6    1.327025 A    
N13   O46   1.301543 A    
C33   H9    1.081923 S    
C48   C56   1.434654 A    
N5    O29   1.301483 A    
C47   C51   1.418240 A    
C4    C29   1.468612 S    
C34   H10   1.081947 S    
C34   C38   1.398173 A    
C31   C43   1.411831 A    
C33   C37   1.397863 A    
C22   H1    1.076387 S    
O20   V2    1.752954 S    
N2    O24   1.299858 A    
C35   C39   1.397657 A    
C32   C40   1.405115 A    
C13   C17   1.404597 A    
N12   O43   1.301960 A    
C60   H16   1.075204 S    
C59   C63   1.394543 A    
C24   C28   1.414467 A    
N10   O40   1.301805 A    
C25   C26   1.426299 A    
C42   C46   1.424852 A    
C42   N9    1.437707 S    
C4    O14   1.336064 A    
C41   C45   1.424991 A    
N16   O51   1.300386 A    
C30   C42   1.411737 A    
C12   C19   1.395033 A    
N13   O45   1.300691 A    
C43   C47   1.424227 A    
O4    V2    1.998642 S    
C23   H4    1.077601 S    
N9    O38   1.299978 A    
