data_mof_unit_50255.cif
_audit_creation_date              2012-12-10T17:15:49-0500
_audit_creation_method            fapswitch 2.2
_symmetry_space_group_name_H-M    P1
_symmetry_Int_Tables_number       1
_space_group_crystal_system       triclinic
_cell_length_a                    10.141539
_cell_length_b                    10.779847
_cell_length_c                    10.94904
_cell_angle_alpha                 93.045364
_cell_angle_beta                  93.559444
_cell_angle_gamma                 83.33936
_cell_volume                      1185.34886331

loop_
_atom_site_label
_atom_site_type_symbol
_atom_type_description
_atom_site_fract_x
_atom_site_fract_y
_atom_site_fract_z
_atom_type_partial_charge
C1    C     C_R   0.445965 0.514698 0.267457 0.821012
C2    C     C_2   0.485004 0.586325 0.932525 0.098769
C3    C     C_2   0.077102 0.478932 0.496077 0.509986
C4    C     C_R   0.496859 0.259587 0.496544 0.928762
C5    C     C_2   0.929711 0.514365 0.501844 -0.233196
C6    C     C_R   0.553436 0.516508 0.728093 0.913045
C7    C     C_R   0.505754 0.739415 0.510821 0.858765
C8    C     C_R   0.659831 0.080596 0.333503 0.048219
C9    C     C_R   0.777832 0.008975 0.298542 0.012802
C10   C     C_R   0.828375 0.906012 0.367477 0.475333
C11   C     C_R   0.746215 0.860387 0.447927 -0.263612
C12   C     C_R   0.590072 0.045346 0.431708 0.017359
C13   C     C_R   0.619190 0.923744 0.469754 -0.008415
C14   C     C_3   0.207540 0.653905 0.129478 0.118458
C15   C     C_3   0.078026 0.671719 0.051201 -0.798841
C16   C     C_3   0.115785 0.353932 0.319751 0.124609
C17   C     C_3   0.227072 0.262764 0.268150 -0.744681
C18   C     C_3   0.048522 0.919553 0.413910 0.078584
C19   C     C_3   0.176401 0.901408 0.346633 -0.859341
C20   C     C_3   0.690330 0.406011 0.074870 0.129129
C21   C     C_3   0.835664 0.380420 0.115340 -0.860000
C22   C     C_R   0.491935 0.125657 0.493026 -0.100576
C23   C     C_R   0.405037 0.076146 0.568476 0.073497
C24   C     C_R   0.415235 0.948146 0.579331 -0.297688
C25   C     C_R   0.518404 0.871388 0.526121 -0.087043
C26   C     C_2   0.415045 0.542196 0.137224 0.143243
C27   C     C_2   0.513908 0.556406 0.061899 0.388156
C28   C     C_2   0.582026 0.555194 0.853905 -0.445601
H1    H     H_    0.894762 0.598042 0.554727 0.131304
H2    H     H_    0.179846 0.647152 0.224881 0.188458
H3    H     H_    0.022448 0.589712 0.056812 0.256989
H4    H     H_    0.015684 0.756591 0.085111 0.227939
H5    H     H_    0.097818 0.683091 0.954173 0.239691
H6    H     H_    0.113699 0.445555 0.276751 0.160127
H7    H     H_    0.024725 0.311249 0.291308 0.120523
H8    H     H_    0.231025 0.171534 0.311113 0.235957
H9    H     H_    0.208207 0.248252 0.167685 0.201156
H10   H     H_    0.324654 0.298354 0.284645 0.252846
H11   H     H_    0.684018 0.244558 0.272978 0.231155
H12   H     H_    0.876067 0.360690 0.415594 0.180096
H13   H     H_    0.589442 0.156617 0.175335 0.165206
H14   H     H_    0.785313 0.036265 0.118312 0.175447
H15   H     H_    0.932078 0.983946 0.182583 0.222294
H16   H     H_    0.070067 0.888934 0.509171 0.142723
H17   H     H_    0.015057 0.022125 0.418504 0.146344
H18   H     H_    0.155320 0.917157 0.247714 0.238126
H19   H     H_    0.244041 0.969164 0.383794 0.228762
H20   H     H_    0.226660 0.805890 0.358541 0.265941
H21   H     H_    0.297221 0.573866 0.856208 0.247595
H22   H     H_    0.362727 0.708510 0.827369 0.177119
H23   H     H_    0.115980 0.635807 0.588377 0.099576
H24   H     H_    0.679886 0.375260 0.976995 0.121175
H25   H     H_    0.629258 0.347255 0.119974 0.125031
H26   H     H_    0.852768 0.428737 0.205600 0.267921
H27   H     H_    0.864510 0.278387 0.120827 0.216141
H28   H     H_    0.897427 0.417043 0.048425 0.241810
H29   H     H_    0.786447 0.780285 0.498070 0.178753
H30   H     H_    0.341293 0.908727 0.628138 0.158670
H31   H     H_    0.686224 0.544195 0.884790 0.185767
H32   H     H_    0.319720 0.139117 0.725448 0.173312
H33   H     H_    0.212021 0.127028 0.602176 0.194301
H34   H     H_    0.260874 0.737842 0.122229 0.135942
N1    N     N_2   0.157290 0.551390 0.551110 -0.224528
N2    N     N_2   0.842740 0.448550 0.448960 -0.198320
N3    N     N_3   0.304733 0.154512 0.631868 -0.393441
N4    N     N_3   0.608231 0.186439 0.266493 -0.470761
N5    N     N_3   0.846889 0.045520 0.197636 -0.490766
N6    N     N_3   0.354741 0.642768 0.892688 -0.433012
O1    O     O_R   0.568950 0.489660 0.307530 -0.570181
O2    O     O_3   0.130085 0.362356 0.449260 -0.585743
O3    O     O_3   0.954925 0.846122 0.353187 -0.629861
O4    O     O_3   0.646677 0.533783 0.101279 -0.604110
O5    O     O_R   0.348880 0.522640 0.340350 -0.619868
O6    O     O_R   0.610060 0.300270 0.483590 -0.621729
O7    O     O_R   0.389990 0.333260 0.516410 -0.528446
O8    O     O_R   0.651120 0.477360 0.659650 -0.611877
O9    O     O_R   0.431050 0.510340 0.692470 -0.616138
O10   O     O_R   0.610010 0.666740 0.483590 -0.618246
O11   O     O_R   0.389940 0.699730 0.516410 -0.644295
O12   O     O_3   0.284339 0.542729 0.089949 -0.631338
Zn1   Zn    Zn3+2 0.646940 0.477980 0.478090 0.955030
Zn2   Zn    Zn3+2 0.353060 0.522020 0.521910 0.962695

loop_
_geom_bond_atom_site_label_1
_geom_bond_atom_site_label_2
_ccdc_geom_bond_type
C8    N4    S    
H21   N6    S    
C19   H18   S    
C15   H4    S    
C26   C27   D    
C2    N6    S    
C16   H7    S    
C21   H26   S    
C19   H19   S    
C14   H34   S    
C12   C22   A    
C18   C19   S    
C4    O7    A    
C16   H6    S    
C6    C28   S    
C16   C17   S    
C23   C24   A    
C2    C27   S    
C17   H8    S    
C14   O12   S    
C9    C10   A    
C4    O6    A    
C10   O3    S    
C13   C25   A    
C14   H2    S    
C5    H1    S    
N1    Zn2   S    
C3    O2    S    
H23   N1    S    
C24   C25   A    
C21   H27   S    
C19   H20   S    
C8    C9    A    
C6    O9    A    
C1    O1    A    
C5    N2    D    
C9    N5    S    
C18   H16   S    
C21   H28   S    
C4    C22   S    
C8    C12   A    
C16   O2    S    
C17   H9    S    
C12   C13   A    
C6    O8    A    
C7    O10   A    
C24   H30   S    
H32   N3    S    
C1    C26   S    
H11   N4    S    
O6    Zn1   S    
C18   H17   S    
O5    Zn2   S    
C7    O11   A    
C28   H31   S    
C18   O3    S    
C14   C15   S    
C20   H25   S    
C3    C5    S    
C7    C25   S    
O8    Zn1   S    
O11   Zn2   S    
O7    Zn2   S    
C15   H3    S    
H13   N4    S    
C3    N1    D    
H12   N2    S    
C1    O5    A    
C23   N3    S    
C20   H24   S    
C11   C13   A    
O10   Zn1   S    
H14   N5    S    
O9    Zn2   S    
C17   H10   S    
C26   O12   S    
N2    Zn1   S    
O1    Zn1   S    
C10   C11   A    
H33   N3    S    
C20   C21   S    
H15   N5    S    
C22   C23   A    
C20   O4    S    
C2    C28   D    
C11   H29   S    
H22   N6    S    
C15   H5    S    
C27   O4    S    
