data_mof_unit_46316.cif
_audit_creation_date              2012-12-10T19:00:45-0500
_audit_creation_method            fapswitch 2.2
_symmetry_space_group_name_H-M    P1
_symmetry_Int_Tables_number       1
_space_group_crystal_system       triclinic
_cell_length_a                    15.073103
_cell_length_b                    10.832063
_cell_length_c                    9.533264
_cell_angle_alpha                 90.444916
_cell_angle_beta                  90.001416
_cell_angle_gamma                 90.841991
_cell_volume                      1556.3077118

loop_
_atom_site_label
_atom_site_type_symbol
_atom_type_description
_atom_site_fract_x
_atom_site_fract_y
_atom_site_fract_z
_atom_type_partial_charge
C1    C     C_R   0.497416 0.262385 0.499320 0.799767
C2    C     C_R   0.907163 0.509040 0.372165 0.108956
C3    C     C_R   0.953310 0.454299 0.750747 -0.213510
C4    C     C_R   0.045823 0.457608 0.751350 -0.218966
C5    C     C_R   0.092715 0.476958 0.626223 0.112232
C6    C     C_R   0.046421 0.493159 0.499180 0.064830
C7    C     C_R   0.093022 0.512033 0.372555 0.109579
C8    C     C_R   0.046471 0.528617 0.246940 -0.217749
C9    C     C_R   0.953978 0.527367 0.246784 -0.214085
C10   C     C_R   0.185165 0.480259 0.625829 -0.250166
C11   C     C_R   0.231680 0.498373 0.499967 -0.071971
C12   C     C_R   0.328576 0.499761 0.500019 0.811899
C13   C     C_R   0.185444 0.514124 0.373788 -0.251725
C14   C     C_R   0.459861 0.064495 0.614364 0.079496
C15   C     C_R   0.487298 0.129465 0.495906 -0.089396
C16   C     C_R   0.501292 0.063672 0.370407 -0.219196
C17   C     C_R   0.502144 0.935101 0.371354 -0.213238
C18   C     C_R   0.489218 0.870967 0.497781 -0.122965
C19   C     C_R   0.460859 0.937258 0.615410 0.110311
C20   C     C_3   0.489284 0.935688 0.765923 -0.124173
C21   C     C_3   0.486861 0.076362 0.764542 -0.468066
C22   C     C_R   0.574639 0.533304 0.074249 0.204964
C23   C     C_R   0.498198 0.737840 0.500197 0.803873
C24   C     C_R   0.429427 0.454964 0.073935 -0.083628
C25   C     C_R   0.429357 0.455144 0.925156 -0.107857
C26   C     C_R   0.575216 0.532256 0.926551 0.242655
C27   C     C_3   0.622986 0.654023 0.922993 0.224887
C28   C     C_3   0.621666 0.654722 0.082438 -0.570015
C29   C     C_R   0.671390 0.497943 0.499900 0.826873
C30   C     C_R   0.814800 0.509708 0.373321 -0.254323
C31   C     C_R   0.768194 0.492972 0.499278 -0.083899
C32   C     C_R   0.814289 0.471160 0.624244 -0.220195
C33   C     C_R   0.906765 0.471331 0.625228 0.089232
C34   C     C_R   0.953423 0.490983 0.498832 0.059382
Cu1   Cu    Cu3+1 0.500000 0.499980 0.640670 0.944279
Cu2   Cu    Cu3+1 0.500000 0.500020 0.359330 0.940136
H1    H     H_    0.779405 0.524363 0.276179 0.155347
H2    H     H_    0.517991 0.887041 0.274870 0.153835
H3    H     H_    0.558328 0.903392 0.777327 0.128311
H4    H     H_    0.434396 0.118243 0.830519 0.192476
H5    H     H_    0.553579 0.120250 0.777274 0.185380
H6    H     H_    0.371779 0.419867 0.128942 0.139939
H7    H     H_    0.371671 0.420199 0.869534 0.141748
H8    H     H_    0.582181 0.725273 0.873416 0.078561
H9    H     H_    0.688321 0.647621 0.131002 0.205926
H10   H     H_    0.778392 0.455516 0.721133 0.197601
H11   H     H_    0.579613 0.728651 0.126841 0.171182
H12   H     H_    0.918163 0.439702 0.848544 0.149227
H13   H     H_    0.080677 0.445116 0.849546 0.136752
H14   H     H_    0.220767 0.467708 0.723402 0.144234
H15   H     H_    0.221256 0.528593 0.276489 0.150165
H16   H     H_    0.081574 0.543056 0.149067 0.138440
H17   H     H_    0.919083 0.541130 0.148838 0.144042
H18   H     H_    0.517068 0.110889 0.273607 0.164623
N1    N     N_R   0.500570 0.500930 0.147930 -0.179870
N2    N     N_R   0.500570 0.500890 0.852020 -0.220512
O1    O     O_R   0.500000 0.319640 0.618810 -0.580201
O2    O     O_R   0.500010 0.319680 0.381230 -0.584848
O3    O     O_R   0.370250 0.499950 0.618800 -0.594263
O4    O     O_R   0.370260 0.499990 0.381220 -0.593217
O5    O     O_R   0.499990 0.680320 0.618770 -0.590473
O6    O     O_R   0.500000 0.680360 0.381190 -0.579479
O7    O     O_R   0.629740 0.500010 0.618780 -0.559379
O8    O     O_R   0.629750 0.500050 0.381200 -0.585733
C35   C     C_3   0.423084 0.871798 0.867254 -0.360197
C36   C     C_3   0.324290 0.894193 0.836904 -0.308102
C37   C     C_3   0.265345 0.824523 0.940754 -0.861476
H19   H     H_    0.276785 0.723596 0.932558 0.252042
H20   H     H_    0.279560 0.856155 0.049696 0.255548
H21   H     H_    0.194535 0.842023 0.916990 0.243947
H22   H     H_    0.309524 0.994078 0.844735 0.211459
H23   H     H_    0.307306 0.861348 0.729352 0.220917
H24   H     H_    0.433990 0.770760 0.861811 0.210914
H25   H     H_    0.439059 0.902566 0.976012 0.188697
O9    O     O_3   0.709580 0.643182 0.868050 -0.562886
C38   C     C_3   0.747838 0.762546 0.855628 0.070664
H26   H     H_    0.745196 0.814083 0.957169 0.140401
H27   H     H_    0.712846 0.815854 0.773562 0.134063
C39   C     C_3   0.844746 0.752494 0.813379 -0.782942
H28   H     H_    0.849776 0.715175 0.705090 0.253936
H29   H     H_    0.876856 0.845399 0.816161 0.197706
H30   H     H_    0.880138 0.691256 0.886925 0.247268

loop_
_geom_bond_atom_site_label_1
_geom_bond_atom_site_label_2
_ccdc_geom_bond_type
C29   O7    A    
C28   H11   S    
C24   H6    S    
C19   C20   S    
C38   C39   S    
C25   H7    S    
C7    C8    A    
C24   N1    A    
C26   C27   S    
C14   C21   S    
C38   H27   S    
Cu2   O2    S    
C5    C6    A    
Cu2   O6    S    
C3    C33   A    
C15   C16   A    
C3    H12   S    
C35   H24   S    
Cu1   O3    S    
C18   C19   A    
C13   H15   S    
C12   O3    A    
C27   H8    S    
C23   O6    A    
C36   H23   S    
C31   C32   A    
C8    C9    A    
C25   N2    A    
C1    C15   S    
C8    H16   S    
C2    C34   A    
C36   C37   S    
C29   O8    A    
C22   C28   S    
C27   O9    S    
C33   C34   A    
C28   H9    S    
C37   H19   S    
C20   C35   S    
C38   H26   S    
C39   H29   S    
C20   H3    S    
C16   C17   A    
C35   H25   S    
C18   C23   S    
C30   H1    S    
C37   H20   S    
Cu1   Cu2   S    
O9    C38   S    
C1    O1    A    
C36   H22   S    
C7    C13   A    
C17   C18   A    
Cu1   O5    S    
C24   C25   A    
C6    C7    A    
C21   H5    S    
C9    H17   S    
C3    C4    A    
C10   H14   S    
Cu1   N2    S    
C32   H10   S    
C14   C19   A    
C4    C5    A    
Cu2   O4    S    
C26   N2    A    
C39   H30   S    
C11   C12   S    
C22   N1    A    
Cu1   O1    S    
C4    H13   S    
C2    C30   A    
C37   H21   S    
C32   C33   A    
C5    C10   A    
C29   C31   S    
Cu2   N1    S    
C1    O2    A    
C11   C13   A    
C30   C31   A    
C21   H4    S    
C17   H2    S    
C16   H18   S    
C10   C11   A    
C39   H28   S    
C12   O4    A    
C6    C34   A    
C23   O5    A    
C20   C21   S    
C35   C36   S    
C22   C26   A    
C27   C28   S    
C14   C15   A    
Cu1   O7    S    
Cu2   O8    S    
C2    C9    A    
