data_mof_unit_66327.cif
_audit_creation_date              2012-12-10T17:11:48-0500
_audit_creation_method            fapswitch 2.2
_symmetry_space_group_name_H-M    P1
_symmetry_Int_Tables_number       1
_space_group_crystal_system       triclinic
_cell_length_a                    19.195619
_cell_length_b                    10.721654
_cell_length_c                    10.061021
_cell_angle_alpha                 90.328122
_cell_angle_beta                  89.394734
_cell_angle_gamma                 90.119684
_cell_volume                      2070.49276091

loop_
_atom_site_label
_atom_site_type_symbol
_atom_type_description
_atom_site_fract_x
_atom_site_fract_y
_atom_site_fract_z
_atom_type_partial_charge
Br1   Br    Br    0.306997 0.265662 0.657531 -0.272825
Br2   Br    Br    0.529018 0.339717 0.905831 -0.203022
Br3   Br    Br    0.602852 0.688005 0.145369 -0.303381
Br4   Br    Br    0.296345 0.722824 0.345081 -0.360132
Br5   Br    Br    0.861209 0.374448 0.218225 -0.269436
C1    C     C_R   0.499457 0.262651 0.499269 0.956938
C2    C     C_R   0.855119 0.469665 0.491504 -0.197406
C3    C     C_2   0.480390 0.931944 0.390514 -0.183922
C4    C     C_R   0.366022 0.499323 0.500696 0.944466
C5    C     C_2   0.485218 0.867910 0.503196 -0.367417
C6    C     C_2   0.475212 0.066145 0.393786 0.711799
C7    C     C_2   0.501069 0.130383 0.496824 -0.426587
C8    C     C_2   0.516947 0.594816 0.927729 0.722299
C9    C     C_2   0.532970 0.580932 0.072483 0.301903
C10   C     C_R   0.496827 0.737099 0.500557 0.971073
C11   C     C_R   0.634483 0.498405 0.499151 0.954656
C12   C     C_R   0.290916 0.493816 0.502157 -0.262652
C13   C     C_R   0.256757 0.396259 0.569626 0.154679
C14   C     C_R   0.184421 0.389848 0.568503 0.662396
C15   C     C_R   0.146249 0.479823 0.499630 -0.175315
C16   C     C_R   0.180679 0.576436 0.432546 -0.223205
C17   C     C_R   0.252740 0.584224 0.433725 0.265357
C18   C     C_R   0.930494 0.467192 0.490985 0.387607
C19   C     C_R   0.070577 0.474009 0.496377 0.377886
C20   C     C_R   0.820733 0.508372 0.607683 -0.247695
C21   C     C_R   0.748841 0.519065 0.610498 0.626348
C22   C     C_R   0.710372 0.489720 0.496453 -0.392966
C23   C     C_R   0.745033 0.448333 0.380209 0.566772
C24   C     C_R   0.817235 0.438329 0.377354 0.229492
F1    F     F_    0.446189 0.123673 0.287541 -0.563363
F2    F     F_    0.522181 0.710214 0.873770 -0.615031
F3    F     F_    0.440547 0.457790 0.099790 -0.515732
F4    F     F_    0.151790 0.293532 0.630656 -0.580074
F5    F     F_    0.717431 0.560387 0.723972 -0.580909
F6    F     F_    0.708985 0.414423 0.270194 -0.568300
H1    H     H_    0.478313 0.910661 0.600431 0.198037
H2    H     H_    0.526277 0.086691 0.580415 0.147316
H3    H     H_    0.151543 0.647163 0.380567 0.222988
H4    H     H_    0.849865 0.533297 0.695657 0.223403
H5    H     H_    0.481127 0.886208 0.293838 0.234035
N1    N     N_R   0.035869 0.524376 0.393192 -0.139386
N2    N     N_R   0.966848 0.521208 0.390652 -0.100235
N3    N     N_R   0.964976 0.418019 0.594983 -0.123012
N4    N     N_R   0.034051 0.420960 0.597345 -0.059327
N5    N     N_2   0.500750 0.501330 0.852150 -0.042016
N6    N     N_2   0.500770 0.501360 0.147810 0.133351
O1    O     O_R   0.499990 0.319060 0.613040 -0.588192
O2    O     O_R   0.500010 0.319100 0.386900 -0.527200
O3    O     O_R   0.398130 0.499970 0.613110 -0.596012
O4    O     O_R   0.398150 0.500010 0.386970 -0.537778
O5    O     O_R   0.499990 0.680900 0.613100 -0.561858
O6    O     O_R   0.500010 0.680940 0.386960 -0.620335
O7    O     O_R   0.601850 0.499990 0.613030 -0.559176
O8    O     O_R   0.601870 0.500030 0.386890 -0.561323
Zn1   Zn    Zn3+2 0.499990 0.499970 0.650990 1.146025
Zn2   Zn    Zn3+2 0.500010 0.500030 0.349010 1.186395

loop_
_geom_bond_atom_site_label_1
_geom_bond_atom_site_label_2
_ccdc_geom_bond_type
C6    C7    D    
C2    C24   A    
C10   O5    A    
Br4   C17   S    
N1    N2    A    
O5    Zn1   S    
C12   C17   A    
C2    C20   A    
N3    N4    A    
C16   C17   A    
C11   C22   S    
C12   C13   A    
C21   C22   A    
C18   N3    A    
C9    N6    D    
O3    Zn1   S    
C10   O6    A    
C20   H4    S    
C8    N5    D    
C19   N1    A    
Br3   C9    S    
C4    C12   S    
Br1   C13   S    
C18   N2    A    
C1    O2    A    
C3    C6    S    
C2    C18   S    
O1    Zn1   S    
C23   C24   A    
C8    F2    S    
Br5   C24   S    
C5    C10   S    
O7    Zn1   S    
Br2   N5    S    
C1    C7    S    
C19   N4    A    
O8    Zn2   S    
C1    O1    A    
C4    O4    A    
O6    Zn2   S    
C7    H2    S    
C4    O3    A    
C15   C16   A    
N5    Zn1   S    
C3    C5    D    
C13   C14   A    
C14   F4    S    
C11   O8    A    
N6    Zn2   S    
C22   C23   A    
O2    Zn2   S    
C15   C19   S    
C11   O7    A    
C5    H1    S    
C3    H5    S    
C20   C21   A    
C8    C9    S    
C23   F6    S    
F3    N6    S    
C21   F5    S    
O4    Zn2   S    
C16   H3    S    
C14   C15   A    
C6    F1    S    
