data_mof_unit_21865.cif
_audit_creation_date              2012-12-11T15:34:27-0500
_audit_creation_method            fapswitch 2.2
_symmetry_space_group_name_H-M    P1
_symmetry_Int_Tables_number       1
_space_group_crystal_system       triclinic
_cell_length_a                    15.03834
_cell_length_b                    15.05164
_cell_length_c                    34.90351
_cell_angle_alpha                 90.524486
_cell_angle_beta                  89.864113
_cell_angle_gamma                 60.069026
_cell_volume                      6846.25374439

loop_
_atom_site_label
_atom_site_type_symbol
_atom_type_description
_atom_site_fract_x
_atom_site_fract_y
_atom_site_fract_z
_atom_type_partial_charge
Br1   Br    Br    0.852240 0.487731 0.582684 -0.407716
Br2   Br    Br    0.892766 0.108932 0.658670 -0.423734
Br3   Br    Br    0.838704 0.181516 0.567899 -0.349810
Br4   Br    Br    0.068163 0.513242 0.913940 -0.463021
Br5   Br    Br    0.388412 0.437059 0.713790 -0.543357
Br6   Br    Br    0.177289 0.844686 0.322682 -0.492272
Br7   Br    Br    0.226099 0.435711 0.326572 -0.452449
C1    C     C_R   0.302948 0.608070 0.555935 0.547360
C2    C     C_R   0.224102 0.717246 0.388250 -0.098156
C3    C     C_R   0.746663 0.174434 0.264273 -0.098993
C4    C     C_R   0.751946 0.166456 0.224464 -0.098173
C5    C     C_R   0.662119 0.215792 0.202507 0.029341
C6    C     C_R   0.709448 0.255736 0.346513 -0.118300
C7    C     C_R   0.697297 0.266982 0.386036 -0.131470
C8    C     C_R   0.563513 0.220622 0.383440 0.050130
C9    C     C_R   0.735080 0.593499 0.648814 -0.079618
C10   C     C_R   0.574574 0.212845 0.343424 -0.107041
C11   C     C_R   0.645131 0.233170 0.324865 -0.009868
C12   C     C_R   0.620611 0.255592 0.404895 -0.002399
C13   C     C_R   0.201547 0.723587 0.349326 0.136217
C14   C     C_R   0.087333 0.706028 0.093289 -0.032563
C15   C     C_R   0.093213 0.620704 0.111416 -0.133300
C16   C     C_R   0.134059 0.592971 0.148206 0.027794
C17   C     C_R   0.170345 0.652501 0.167029 -0.033086
C18   C     C_R   0.173031 0.733515 0.147451 0.023967
C19   C     C_R   0.130999 0.759124 0.110721 -0.124921
C20   C     C_R   0.276659 0.586207 0.225959 -0.003225
C21   C     C_2   0.516030 0.197516 0.831168 0.575230
C22   C     C_2   0.902315 0.060515 0.827026 0.581203
C23   C     C_2   0.169137 0.815659 0.917988 0.633346
C24   C     C_R   0.204519 0.639401 0.330201 0.027269
C25   C     C_2   0.227574 0.779189 0.837049 0.590882
C26   C     C_2   0.804901 0.498484 0.323014 0.577295
C27   C     C_2   0.484179 0.881748 0.163286 0.574235
C28   C     C_2   0.794001 0.520560 0.168533 0.583509
C29   C     C_2   0.492931 0.190706 0.401398 0.591515
C30   C     C_2   0.132379 0.505155 0.166993 0.589409
C31   C     C_2   0.213413 0.796950 0.165067 0.589788
C32   C     C_R   0.552336 0.711758 0.652758 -0.121922
C33   C     C_R   0.250517 0.627241 0.408393 -0.045286
C34   C     C_R   0.735990 0.025886 0.943423 0.549058
C35   C     C_R   0.745584 0.722499 0.945253 0.549255
C36   C     C_R   0.040508 0.732652 0.948600 0.566615
C37   C     C_R   0.722770 0.038909 0.052855 0.543435
C38   C     C_R   0.733280 0.734453 0.054758 0.547701
C39   C     C_R   0.647527 0.657737 0.670824 0.000939
C40   C     C_R   0.027819 0.744546 0.057839 0.553179
C41   C     C_R   0.543242 0.694778 0.614115 -0.153920
C42   C     C_R   0.664159 0.666683 0.790288 0.349280
C43   C     C_R   0.654403 0.663170 0.712761 0.347730
C44   C     C_R   0.756321 0.593447 0.851352 -0.106885
C45   C     C_R   0.775287 0.606376 0.889433 -0.105976
C46   C     C_R   0.623936 0.775343 0.890532 -0.116639
C47   C     C_R   0.604561 0.762112 0.852489 -0.100792
C48   C     C_R   0.673253 0.672928 0.832083 0.032150
C49   C     C_R   0.610841 0.588774 0.555217 0.566179
C50   C     C_R   0.284031 0.583101 0.265777 -0.048682
C51   C     C_R   0.712000 0.699351 0.908787 0.017492
C52   C     C_R   0.723390 0.075000 0.905961 -0.034767
C53   C     C_R   0.628382 0.120239 0.887614 -0.126433
C54   C     C_R   0.619655 0.147870 0.848983 0.032412
C55   C     C_R   0.709590 0.126125 0.828086 -0.032172
C56   C     C_R   0.804895 0.086184 0.847187 0.023745
C57   C     C_R   0.809790 0.063357 0.886174 -0.127959
C58   C     C_R   0.718571 0.212800 0.768815 -0.018444
C59   C     C_R   0.712608 0.222732 0.729091 -0.025991
C60   C     C_R   0.693561 0.156454 0.706512 0.063175
C61   C     C_R   0.195750 0.639798 0.288473 0.089756
C62   C     C_R   0.590937 0.299286 0.553329 0.570432
C63   C     C_R   0.680854 0.079983 0.723896 -0.082626
C64   C     C_R   0.687347 0.069682 0.763562 -0.049981
C65   C     C_R   0.705343 0.136577 0.786156 0.099700
C66   C     C_R   0.577823 0.207867 0.651455 -0.131602
C67   C     C_R   0.553306 0.241504 0.614094 -0.145434
C68   C     C_R   0.730019 0.198670 0.602118 0.183698
C69   C     C_R   0.754164 0.165845 0.640325 0.191599
C70   C     C_R   0.676463 0.174342 0.665251 -0.002693
C71   C     C_R   0.627155 0.241963 0.589491 -0.003987
C72   C     C_R   0.100121 0.698975 0.271327 -0.041737
C73   C     C_R   0.103545 0.690878 0.912804 -0.019784
C74   C     C_R   0.300863 0.609870 0.445856 0.549734
C75   C     C_R   0.149156 0.743996 0.895250 0.007260
C76   C     C_R   0.180807 0.724220 0.856360 0.036504
C77   C     C_R   0.169342 0.649547 0.835805 -0.050890
C78   C     C_R   0.138985 0.587802 0.854615 -0.105533
C79   C     C_R   0.107309 0.606477 0.892741 0.141016
C80   C     C_R   0.258859 0.556159 0.775851 -0.037021
C81   C     C_R   0.268173 0.551343 0.735931 0.181713
C82   C     C_R   0.193901 0.632527 0.713716 0.032622
C83   C     C_R   0.092791 0.702361 0.231599 -0.075158
C84   C     C_R   0.112294 0.717532 0.732062 -0.130241
C85   C     C_R   0.104589 0.722389 0.771840 -0.097195
C86   C     C_R   0.608061 0.589659 0.445240 0.545426
C87   C     C_R   0.178066 0.642067 0.793825 0.016704
C88   C     C_R   0.211339 0.714579 0.655021 -0.094937
C89   C     C_R   0.234849 0.710464 0.616198 -0.106515
C90   C     C_R   0.236747 0.548937 0.609907 -0.105894
C91   C     C_R   0.212447 0.553602 0.648749 -0.070713
C92   C     C_R   0.204404 0.634032 0.671828 0.049876
C93   C     C_R   0.252245 0.625340 0.593640 0.021629
C94   C     C_R   0.180944 0.646530 0.208856 0.085950
C95   C     C_R   0.691875 0.718782 0.090874 -0.034461
C96   C     C_R   0.605175 0.800161 0.108374 -0.132130
C97   C     C_R   0.577637 0.793027 0.146208 0.034229
C98   C     C_R   0.588307 0.302315 0.443660 0.562075
C99   C     C_R   0.640517 0.702658 0.167148 -0.031985
C100  C     C_R   0.723983 0.617454 0.148530 0.033532
C101  C     C_R   0.747044 0.626271 0.110394 -0.116422
C102  C     C_R   0.599554 0.633218 0.225214 -0.020331
C103  C     C_R   0.599787 0.623576 0.264934 -0.058364
C104  C     C_R   0.626218 0.682582 0.288603 0.057085
C105  C     C_R   0.223599 0.551950 0.350866 0.140465
C106  C     C_R   0.648405 0.754169 0.272489 -0.060208
C107  C     C_R   0.649326 0.763004 0.232778 -0.041676
C108  C     C_R   0.626848 0.701197 0.208968 0.104226
C109  C     C_R   0.555077 0.737198 0.353690 -0.129085
C110  C     C_R   0.629101 0.623328 0.592620 0.028584
C111  C     C_R   0.550268 0.716142 0.392167 -0.116900
C112  C     C_R   0.709167 0.554796 0.384807 -0.122030
C113  C     C_R   0.715162 0.574831 0.346015 0.052220
C114  C     C_R   0.634677 0.665728 0.330123 -0.009933
C115  C     C_R   0.625293 0.623087 0.407715 -0.006829
C116  C     C_R   0.245780 0.546558 0.389786 -0.099043
C117  C     C_R   0.697113 0.103765 0.087539 0.014267
C118  C     C_R   0.766609 0.131794 0.102231 -0.113600
C119  C     C_R   0.751198 0.176110 0.138679 -0.103205
C120  C     C_R   0.666632 0.192107 0.161116 0.022032
C121  C     C_R   0.593080 0.171545 0.145113 -0.105212
C122  C     C_R   0.726912 0.576462 0.609904 0.165137
C123  C     C_R   0.607942 0.128232 0.108604 -0.108510
C124  C     C_R   0.567388 0.277031 0.221130 -0.109537
C125  C     C_R   0.562060 0.283962 0.261014 -0.109772
C126  C     C_R   0.651461 0.230898 0.282805 0.023448
Cr1   Cr    Cr6+3 0.421670 0.426920 0.499620 1.068689
Cr2   Cr    Cr6+3 0.427030 0.651190 0.500980 1.042543
Cr3   Cr    Cr6+3 0.651280 0.421870 0.499380 1.119351
Cr4   Cr    Cr6+3 0.910810 0.908010 0.001130 1.063918
Cr5   Cr    Cr6+3 0.682800 0.909890 0.998370 1.047659
Cr6   Cr    Cr6+3 0.908370 0.682300 0.002180 1.093670
H1    H     H_    0.883579 0.028129 0.900277 0.196896
H2    H     H_    0.316251 0.494629 0.792945 0.163583
H3    H     H_    0.055200 0.780805 0.715516 0.144743
H4    H     H_    0.041581 0.789003 0.785584 0.154491
H5    H     H_    0.204077 0.777932 0.672390 0.139865
H6    H     H_    0.842907 0.545807 0.902930 0.182092
H7    H     H_    0.245909 0.770711 0.604526 0.147347
H8    H     H_    0.134634 0.527753 0.838813 0.166556
H9    H     H_    0.248951 0.482752 0.593190 0.140284
H10   H     H_    0.560693 0.870905 0.092907 0.172920
H11   H     H_    0.813656 0.562704 0.096852 0.180939
H12   H     H_    0.720382 0.283488 0.715973 0.152381
H13   H     H_    0.581891 0.568462 0.277241 0.106513
H14   H     H_    0.581915 0.585291 0.207115 0.118073
H15   H     H_    0.668571 0.800206 0.290574 0.119266
H16   H     H_    0.809918 0.554046 0.662044 0.169662
H17   H     H_    0.670717 0.815602 0.220502 0.109288
H18   H     H_    0.493462 0.806958 0.341727 0.152793
H19   H     H_    0.484726 0.770203 0.409149 0.150815
H20   H     H_    0.768104 0.483501 0.396816 0.180486
H21   H     H_    0.835327 0.115064 0.086367 0.145447
H22   H     H_    0.552783 0.107820 0.097998 0.160841
H23   H     H_    0.732179 0.264954 0.786074 0.127833
H24   H     H_    0.528944 0.189754 0.326531 0.167528
H25   H     H_    0.488073 0.329686 0.274909 0.139063
H26   H     H_    0.497165 0.317214 0.204918 0.125631
H27   H     H_    0.483617 0.762932 0.668880 0.155752
H28   H     H_    0.807948 0.193326 0.150027 0.143448
H29   H     H_    0.816424 0.132907 0.280663 0.134232
H30   H     H_    0.825829 0.117175 0.211065 0.123543
H31   H     H_    0.765386 0.270252 0.332633 0.160817
H32   H     H_    0.743586 0.291978 0.401404 0.162357
H33   H     H_    0.527640 0.181955 0.161758 0.139792
H34   H     H_    0.664743 0.029348 0.706770 0.120732
H35   H     H_    0.061693 0.577970 0.097489 0.176168
H36   H     H_    0.128992 0.823244 0.096077 0.189929
H37   H     H_    0.809469 0.522980 0.836548 0.155459
H38   H     H_    0.358317 0.537429 0.278957 0.107957
H39   H     H_    0.344951 0.542570 0.208510 0.123543
H40   H     H_    0.031769 0.742956 0.288713 0.138029
H41   H     H_    0.018570 0.748806 0.218468 0.112497
H42   H     H_    0.265573 0.476457 0.404786 0.183090
H43   H     H_    0.227312 0.780323 0.402050 0.175825
H44   H     H_    0.573190 0.847505 0.904854 0.150207
H45   H     H_    0.677175 0.010464 0.776775 0.116683
H46   H     H_    0.539205 0.824271 0.838503 0.156851
H47   H     H_    0.561079 0.131800 0.903309 0.179061
H48   H     H_    0.421246 0.290660 0.790381 0.358029
H49   H     H_    0.990324 0.006532 0.779317 0.358787
H50   H     H_    0.126534 0.962265 0.931319 0.349252
H51   H     H_    0.222531 0.913203 0.826604 0.354125
H52   H     H_    0.920842 0.352436 0.317416 0.358278
H53   H     H_    0.369476 0.933375 0.202427 0.353354
H54   H     H_    0.872131 0.451573 0.216357 0.370978
H55   H     H_    0.364003 0.181557 0.396724 0.356110
H56   H     H_    0.517926 0.213491 0.670374 0.172244
H57   H     H_    0.192766 0.392922 0.206290 0.365383
H58   H     H_    0.216786 0.929441 0.164483 0.362937
H59   H     H_    0.474288 0.273066 0.605276 0.160196
H60   H     H_    0.467191 0.732909 0.601814 0.146538
H61   H     H_    0.204570 0.492182 0.661179 0.153152
N1    N     N_R   0.744090 0.594392 0.769301 -0.221128
N2    N     N_R   0.739214 0.592495 0.731308 -0.217126
N3    N     N_R   0.574171 0.735211 0.733738 -0.211818
N4    N     N_R   0.579212 0.737354 0.771757 -0.204154
O1    O     O_R   0.502070 0.323090 0.541280 -0.513798
O2    O     O_R   0.831550 0.656950 0.958960 -0.480086
O3    O     O_R   0.998590 0.685540 0.963930 -0.447402
O4    O     O_R   0.338340 0.520690 0.539540 -0.501237
O5    O     O_R   0.008220 0.831200 0.045060 -0.506694
O6    O     O_R   0.813270 0.997930 0.038810 -0.500138
O7    O     O_R   0.657500 0.016560 0.039940 -0.511748
O8    O     O_R   0.685680 0.820940 0.038120 -0.499117
O9    O     O_R   0.822130 0.666070 0.043610 -0.508126
O10   O     O_R   0.989860 0.694000 0.042400 -0.497778
O11   O     O_3   0.833990 0.833400 0.000560 -0.261559
O12   O     O_R   0.520720 0.641670 0.461580 -0.500729
O13   O     O_R   0.324760 0.674070 0.543580 -0.512154
O14   O     O_R   0.522400 0.640310 0.540110 -0.515036
O15   O     O_R   0.675940 0.500630 0.542210 -0.438244
O16   O     O_R   0.641790 0.337020 0.538150 -0.450265
O17   O     O_R   0.500260 0.324550 0.456580 -0.471008
O18   O     O_R   0.336660 0.522040 0.461020 -0.500880
O19   O     O_R   0.322940 0.675540 0.458880 -0.508042
O20   O     O_2   0.448585 0.183953 0.844619 -0.500638
O21   O     O_R   0.494244 0.261829 0.799689 -0.675421
O22   O     O_2   0.968228 0.070261 0.843871 -0.443416
O23   O     O_R   0.674120 0.502090 0.457500 -0.507675
O24   O     O_R   0.920629 0.022276 0.789423 -0.701105
O25   O     O_2   0.239205 0.781764 0.941056 -0.497585
O26   O     O_R   0.105854 0.921439 0.913929 -0.619634
O27   O     O_2   0.303759 0.731395 0.816753 -0.488705
O28   O     O_R   0.183941 0.885224 0.841414 -0.620992
O29   O     O_2   0.830946 0.524089 0.293846 -0.472365
O30   O     O_R   0.861569 0.397048 0.335312 -0.715188
O31   O     O_2   0.451687 0.967732 0.150394 -0.522655
O32   O     O_R   0.431614 0.867165 0.193468 -0.666476
O33   O     O_2   0.828839 0.438605 0.151334 -0.502800
O34   O     O_R   0.640110 0.338380 0.459630 -0.505028
O35   O     O_R   0.823491 0.522586 0.206332 -0.645612
O36   O     O_2   0.512851 0.149414 0.432674 -0.485021
O37   O     O_R   0.405518 0.205961 0.381773 -0.667949
O38   O     O_2   0.071060 0.479073 0.156565 -0.486655
O39   O     O_R   0.201872 0.450680 0.195996 -0.690312
O40   O     O_2   0.273524 0.764487 0.191742 -0.484829
O41   O     O_R   0.184089 0.893920 0.150404 -0.690467
O42   O     O_3   0.499990 0.499990 0.499990 -0.269615
O43   O     O_R   0.017640 0.822070 0.960410 -0.491094
O44   O     O_R   0.822000 0.989470 0.960340 -0.496771
O45   O     O_R   0.666920 0.007430 0.955290 -0.507751
O46   O     O_R   0.694410 0.812480 0.959650 -0.503721

loop_
_geom_bond_atom_site_label_1
_geom_bond_atom_site_label_2
_ccdc_geom_bond_type
C29   O36   D    
C80   C81   A    
C22   C56   S    
C119  C120  A    
C30   O39   S    
C5    C124  A    
Cr3   O34   S    
C104  C114  S    
C62   O16   A    
N1    N2    A    
C88   C89   A    
C60   C70   S    
C20   H39   S    
C106  H15   S    
C14   C19   A    
Cr5   O45   S    
C27   O32   S    
C35   C51   S    
C49   O14   A    
C90   C91   A    
C118  H21   S    
Br2   C69   S    
C5    C120  S    
C46   C47   A    
H52   O30   S    
C8    C12   A    
C74   O18   A    
C52   C57   A    
C45   H6    S    
C6    C11   A    
C82   C92   S    
C49   C110  S    
C29   O37   S    
C19   H36   S    
C23   O25   D    
H55   O37   S    
Cr6   O9    S    
Br1   C122  S    
C46   H44   S    
C111  C115  A    
Cr4   O43   S    
C91   C92   A    
C88   C92   A    
C33   C74   S    
Br4   C79   S    
C99   C100  A    
Cr6   O10   S    
Cr2   O13   S    
C80   C87   A    
Cr5   O7    S    
Br7   C105  S    
C11   C126  S    
C17   C94   S    
C66   C67   A    
Cr5   O8    S    
C1    O4    A    
C85   H4    S    
C103  C104  A    
H54   O35   S    
C72   C83   A    
C73   C79   A    
C2    H43   S    
C10   H24   S    
Br5   C81   S    
C31   O40   D    
C121  H33   S    
C67   H59   S    
Cr6   O11   S    
C125  C126  A    
Cr1   O18   S    
C47   H46   S    
C28   O33   D    
C58   H23   S    
C38   O9    A    
C16   C17   A    
C3    C126  A    
C95   C101  A    
C63   C64   A    
C1    O13   A    
C82   C84   A    
C102  H14   S    
C44   C48   A    
C59   H12   S    
C84   H3    S    
C37   C117  S    
C21   C54   S    
C61   C72   A    
C59   C60   A    
C25   O27   D    
C99   C108  S    
C52   C53   A    
C6    C7    A    
Cr4   O11   S    
C86   O12   A    
Cr2   O42   S    
C62   C71   S    
C95   C96   A    
C22   O22   D    
C27   O31   D    
C7    C12   A    
C68   C71   A    
C107  H17   S    
C15   H35   S    
H53   O32   S    
C83   H41   S    
C69   C70   A    
C43   N2    A    
C24   C61   S    
C74   O19   A    
C42   N1    A    
Cr5   O11   S    
C38   O8    A    
C109  C114  A    
C41   H60   S    
C36   O3    A    
C44   C45   A    
C28   O35   S    
C17   C18   A    
C34   C52   S    
C105  C116  A    
C73   C75   A    
C119  H28   S    
C20   C50   A    
C9    C39   A    
C84   C85   A    
Cr3   O15   S    
Cr4   O44   S    
C102  C108  A    
Cr1   O1    S    
H57   O39   S    
Cr5   O46   S    
C18   C19   A    
C43   N3    A    
Cr2   O14   S    
C20   C94   A    
C2    C33   A    
C27   C97   S    
Cr4   O5    S    
C53   C54   A    
C23   C75   S    
C68   C69   A    
C125  H25   S    
C83   C94   A    
C55   C56   A    
Cr6   O2    S    
C16   C30   S    
C18   C31   S    
C37   O6    A    
C86   O23   A    
C2    C13   A    
Cr1   O4    S    
C76   C77   A    
C21   O20   D    
Cr1   O17   S    
C9    H16   S    
C85   C87   A    
C10   C11   A    
Cr3   O42   S    
C104  C106  A    
C77   C87   S    
C77   C78   A    
C112  C113  A    
C9    C122  A    
C36   O43   A    
C124  H26   S    
C78   C79   A    
C41   C110  A    
Cr6   O3    S    
Cr2   O12   S    
C101  H11   S    
C12   C98   S    
C123  H22   S    
C112  H20   S    
C6    H31   S    
Cr3   O23   S    
C4    H30   S    
N3    N4    A    
C44   H37   S    
C32   C39   A    
C34   O44   A    
C118  C119  A    
C90   H9    S    
C72   H40   S    
C111  H19   S    
C100  C101  A    
C124  C125  A    
C45   C51   A    
C8    C29   S    
C90   C93   A    
C26   O29   D    
C113  C114  A    
C106  C107  A    
C57   H1    S    
C112  C115  A    
C8    C10   A    
C25   C76   S    
C47   C48   A    
C53   H47   S    
C30   O38   D    
C64   H45   S    
C78   H8    S    
C7    H32   S    
H49   O24   S    
C121  C123  A    
C21   O21   S    
C25   O28   S    
C24   C105  A    
C46   C51   A    
C66   H56   S    
C107  C108  A    
C97   C99   A    
Cr3   O16   S    
C80   H2    S    
C58   C65   A    
Cr2   O19   S    
C89   H7    S    
C39   C43   S    
C62   O1    A    
C40   O10   A    
C91   H61   S    
Cr4   O6    S    
C55   C65   S    
C37   O7    A    
C3    C4    A    
C60   C63   A    
C32   H27   S    
C40   O5    A    
H50   O26   S    
Br3   C68   S    
C103  H13   S    
C109  H18   S    
C116  H42   S    
C42   C48   S    
C102  C103  A    
C117  C123  A    
C50   H38   S    
C31   O41   S    
C23   O26   S    
C98   O34   A    
Br6   C13   S    
C33   C116  A    
H48   O21   S    
C89   C93   A    
H58   O41   S    
C36   C73   S    
C109  C111  A    
C35   O2    A    
H51   O28   S    
C58   C59   A    
C1    C93   S    
C54   C55   A    
C63   H34   S    
C42   N4    A    
C28   C100  S    
C38   C95   S    
C96   H10   S    
C56   C57   A    
C98   O17   A    
C88   H5    S    
C64   C65   A    
C81   C82   A    
C35   O46   A    
C26   C113  S    
C3    H29   S    
C75   C76   A    
C67   C71   A    
C34   O45   A    
C96   C97   A    
C66   C70   A    
C15   C16   A    
C117  C118  A    
C50   C61   A    
C22   O24   S    
C14   C15   A    
C86   C115  S    
Cr1   O42   S    
C49   O15   A    
C26   O30   S    
C120  C121  A    
C4    C5    A    
C110  C122  A    
C32   C41   A    
C14   C40   S    
C13   C24   A    
