data_mof_unit_37529.cif
_audit_creation_date              2013-03-05T15:43:59-0500
_audit_creation_method            fapswitch 2.2
_symmetry_space_group_name_H-M    P1
_symmetry_Int_Tables_number       1
_space_group_crystal_system       triclinic
_cell_length_a                    11.530963
_cell_length_b                    11.026339
_cell_length_c                    10.38554
_cell_angle_alpha                 88.392911
_cell_angle_beta                  89.507266
_cell_angle_gamma                 94.243066
_cell_volume                      1316.24964422

loop_
_atom_site_label
_atom_site_type_symbol
_atom_site_description
_atom_site_fract_x
_atom_site_fract_y
_atom_site_fract_z
_atom_type_partial_charge
O1    O     O_R   0.499980 0.319060 0.613040 -0.649623
O2    O     O_R   0.500020 0.319100 0.386900 -0.608609
C1    C     C_R   0.511513 0.266795 0.501158 0.800422
O3    O     O_R   0.334430 0.499990 0.613070 -0.629218
O4    O     O_R   0.334470 0.500030 0.386930 -0.670598
C2    C     C_R   0.282987 0.499318 0.500432 0.876305
Zn1   Zn    Zn3+2 0.499980 0.499970 0.650990 0.938351
Zn2   Zn    Zn3+2 0.500020 0.500030 0.349010 0.992275
O5    O     O_R   0.499980 0.680900 0.613100 -0.628353
O6    O     O_R   0.500020 0.680940 0.386960 -0.595664
O7    O     O_R   0.665530 0.499970 0.613070 -0.642606
O8    O     O_R   0.665570 0.500010 0.386930 -0.570008
C3    C     C_R   0.508241 0.735407 0.499452 0.888782
C4    C     C_R   0.717028 0.500542 0.499507 0.871954
C5    C     C_1   0.162014 0.499103 0.500932 -0.182153
C6    C     C_1   0.059538 0.499328 0.500111 0.000047
C7    C     C_1   0.940454 0.499991 0.498803 0.008506
C8    C     C_1   0.837972 0.500323 0.498560 -0.159750
C9    C     C_2   0.514368 0.942287 0.412088 0.271951
C10   C     C_2   0.549113 0.863275 0.502670 0.212882
C11   C     C_2   0.554759 0.073808 0.404639 0.345667
C12   C     C_2   0.551135 0.145078 0.508963 0.227891
C13   C     C_2   0.581951 0.546039 0.925882 0.011811
N1    N     N_2   0.501210 0.501330 0.852150 0.031222
H1    H     H_    0.664857 0.576044 0.881036 0.104401
C14   C     C_2   0.567678 0.570229 0.067649 0.417565
N2    N     N_2   0.501250 0.501360 0.147810 -0.000748
O9    O     O_3   0.415692 0.907453 0.342348 -0.676962
C15   C     C_3   0.444077 0.879384 0.214514 0.220001
H2    H     H_    0.428295 0.779894 0.203317 0.152269
H3    H     H_    0.536907 0.901605 0.187329 0.174829
C16   C     C_3   0.361358 0.938934 0.122111 -0.339490
H4    H     H_    0.310551 0.867329 0.069625 0.182377
H5    H     H_    0.294812 0.985067 0.175833 0.249640
C17   C     C_3   0.426535 0.026950 0.025768 -0.926198
H6    H     H_    0.467610 0.107665 0.072085 0.310168
H7    H     H_    0.364377 0.058671 0.953774 0.243539
H8    H     H_    0.497411 0.982070 0.978165 0.266424
O10   O     O_3   0.623314 0.899588 0.601617 -0.658200
C18   C     C_3   0.571884 0.878682 0.727602 0.275924
H9    H     H_    0.617989 0.942542 0.793801 0.146708
H10   H     H_    0.594658 0.789617 0.768654 0.174904
C19   C     C_3   0.438654 0.897667 0.738652 -0.387734
H11   H     H_    0.428188 0.990510 0.771632 0.223714
H12   H     H_    0.390942 0.895416 0.646712 0.212904
C20   C     C_3   0.373980 0.802360 0.827952 -0.861857
H13   H     H_    0.356311 0.715365 0.778478 0.312071
H14   H     H_    0.288345 0.834444 0.854884 0.247318
H15   H     H_    0.425181 0.784197 0.915423 0.268317
O11   O     O_3   0.558823 0.128247 0.282884 -0.641375
C21   C     C_3   0.670936 0.121076 0.227439 0.029468
H16   H     H_    0.662254 0.067294 0.138869 0.177486
H17   H     H_    0.733899 0.075367 0.290194 0.123950
C22   C     C_3   0.721866 0.248948 0.188734 -0.277828
H18   H     H_    0.662376 0.291988 0.120593 0.255455
H19   H     H_    0.730440 0.305067 0.275589 0.232271
C23   C     C_3   0.841120 0.245821 0.124718 -0.989715
H20   H     H_    0.901989 0.203356 0.191600 0.276051
H21   H     H_    0.876479 0.340036 0.099694 0.273246
H22   H     H_    0.834260 0.193200 0.035051 0.267428
O12   O     O_3   0.590495 0.108588 0.627851 -0.651666
C24   C     C_3   0.700931 0.168137 0.655911 0.118404
H23   H     H_    0.726010 0.134282 0.752721 0.164739
H24   H     H_    0.696473 0.267686 0.664715 0.152649
C25   C     C_3   0.797240 0.142715 0.558612 -0.395536
H25   H     H_    0.791970 0.045117 0.534487 0.274539
H26   H     H_    0.786504 0.197913 0.469234 0.189734
C26   C     C_3   0.917663 0.176990 0.611317 -0.950216
H27   H     H_    0.924035 0.273419 0.639955 0.268544
H28   H     H_    0.984618 0.165248 0.536042 0.272617
H29   H     H_    0.934806 0.117588 0.696144 0.275942
O13   O     O_3   0.392267 0.493934 0.900690 -0.566561
C27   C     C_3   0.336235 0.384430 0.857061 0.277460
H30   H     H_    0.367224 0.306915 0.911517 0.124448
H31   H     H_    0.360840 0.359683 0.760644 0.192171
C28   C     C_3   0.204031 0.390356 0.863635 -0.399555
H32   H     H_    0.174910 0.401335 0.964112 0.222514
H33   H     H_    0.179027 0.470964 0.806664 0.246342
C29   C     C_3   0.140557 0.276458 0.810775 -0.985349
H34   H     H_    0.156640 0.272296 0.705424 0.272798
H35   H     H_    0.045888 0.279575 0.828974 0.279742
H36   H     H_    0.169654 0.192954 0.858736 0.262881
N3    N     N_R   0.633479 0.676800 0.112011 0.129712
O14   O     O_R   0.662053 0.766825 0.031451 -0.512108
O15   O     O_R   0.678275 0.679193 0.226025 -0.379402
O16   O     O_3   0.455908 0.393171 0.102433 -0.584365
C30   C     C_3   0.344759 0.368727 0.161830 0.257418
H37   H     H_    0.286008 0.441441 0.137866 0.136396
H38   H     H_    0.357341 0.361093 0.261636 0.238044
C31   C     C_3   0.284714 0.240877 0.149595 -0.504386
H39   H     H_    0.271230 0.211277 0.050892 0.239907
H40   H     H_    0.338076 0.176660 0.201783 0.281830
C32   C     C_3   0.164985 0.231672 0.215331 -0.967069
H41   H     H_    0.108258 0.297098 0.169343 0.275531
H42   H     H_    0.172996 0.251236 0.319413 0.264802
H43   H     H_    0.123404 0.138226 0.206191 0.277244

loop_
_geom_bond_atom_site_label_1
_geom_bond_atom_site_label_2
_geom_bond_distance
_ccdc_geom_bond_type
C30   H37   1.111669 S    
C32   H41   1.110076 S    
C27   H30   1.095272 S    
C4    C8    1.394732 S    
C17   H6    1.101530 S    
C28   C29   1.524423 S    
C31   H39   1.093393 S    
Zn1   O7    1.945831 S    
C20   H15   1.109252 S    
C14   N2    1.312996 D    
C24   H23   1.110756 S    
C14   N3    1.439870 S    
O9    C15   1.412823 S    
C9    C11   1.489674 S    
C28   H33   1.111101 S    
C15   C16   1.528051 S    
O4    C2    1.314822 A    
O7    C4    1.315543 A    
C23   H21   1.110560 S    
C5    C6    1.181934 T    
C13   C14   1.513386 S    
O5    C3    1.308888 A    
C24   H24   1.108942 S    
C2    C5    1.394725 S    
C20   H13   1.107323 S    
C18   C19   1.569402 S    
C9    C10   1.347848 D    
C26   H27   1.109479 S    
C25   H26   1.108523 S    
C13   N1    1.289075 D    
C24   C25   1.541307 S    
C18   H10   1.109860 S    
C32   H42   1.111467 S    
C11   C12   1.358319 D    
C27   H31   1.086052 S    
O3    Zn1   1.952480 S    
C11   O11   1.383362 S    
C7    C8    1.182015 T    
C20   H14   1.109478 S    
C22   H19   1.109104 S    
C21   H16   1.109602 S    
C16   C17   1.527259 S    
C17   H8    1.106271 S    
C28   H32   1.106074 S    
O3    C2    1.316110 A    
O10   C18   1.437467 S    
C29   H35   1.109471 S    
C10   O10   1.391361 S    
O16   C30   1.421892 S    
C6    C7    1.373897 S    
C23   H22   1.111259 S    
O1    C1    1.321432 A    
C16   H5    1.106877 S    
N2    O16   1.364551 S    
C19   H11   1.103236 S    
C15   H2    1.108170 S    
C29   H36   1.109639 S    
C31   H40   1.105627 S    
N3    O14   1.301620 A    
Zn2   O8    1.952479 S    
C25   C26   1.522391 S    
O11   C21   1.419146 S    
C9    O9    1.389928 S    
C19   H12   1.106061 S    
C26   H28   1.110892 S    
C18   H9    1.108677 S    
N3    O15   1.296095 A    
O8    C4    1.315633 A    
C32   H43   1.110725 S    
C30   H38   1.049775 S    
C27   C28   1.531684 S    
N1    O13   1.345558 S    
C31   C32   1.530233 S    
Zn1   O5    2.022579 S    
C22   H18   1.110984 S    
C3    C10   1.454545 S    
C17   H7    1.107595 S    
O1    Zn1   2.044154 S    
O2    Zn2   2.022578 S    
O13   C27   1.414544 S    
O6    C3    1.329437 A    
O4    Zn2   1.945831 S    
C21   C22   1.528417 S    
C16   H4    1.106758 S    
O2    C1    1.316774 A    
C15   H3    1.112498 S    
C12   O12   1.378839 S    
C23   H20   1.110463 S    
C26   H29   1.110846 S    
C13   H1    1.084980 S    
O12   C24   1.425156 S    
C19   C20   1.529084 S    
C29   H34   1.110940 S    
Zn2   O6    2.044155 S    
C25   H25   1.109176 S    
C30   C31   1.532960 S    
Zn2   N2    2.089130 S    
C1    C12   1.449760 S    
C21   H17   1.117936 S    
Zn1   N1    2.089791 S    
C22   C23   1.525368 S    
