data_mof_unit_58567.cif
_audit_creation_date              2012-12-10T19:06:27-0500
_audit_creation_method            fapswitch 2.2
_symmetry_space_group_name_H-M    P1
_symmetry_Int_Tables_number       1
_space_group_crystal_system       triclinic
_cell_length_a                    23.520287
_cell_length_b                    10.85784
_cell_length_c                    9.626146
_cell_angle_alpha                 91.203176
_cell_angle_beta                  89.443928
_cell_angle_gamma                 91.344909
_cell_volume                      2456.99703167

loop_
_atom_site_label
_atom_site_type_symbol
_atom_type_description
_atom_site_fract_x
_atom_site_fract_y
_atom_site_fract_z
_atom_type_partial_charge
C1    C     C_R   0.497418 0.262395 0.497892 0.794229
C2    C     C_R   0.968631 0.276601 0.494410 -0.160720
C3    C     C_R   0.027766 0.277012 0.488150 -0.169629
C4    C     C_R   0.058829 0.387517 0.468376 0.005312
C5    C     C_R   0.030010 0.498442 0.450453 -0.049447
C6    C     C_R   0.061002 0.611149 0.435841 -0.036242
C7    C     C_R   0.030555 0.720316 0.406663 0.138362
C8    C     C_R   0.970930 0.713549 0.398873 -0.189955
C9    C     C_R   0.118263 0.389269 0.466604 0.525919
C10   C     C_R   0.120812 0.608745 0.453848 0.522803
C11   C     C_R   0.243409 0.564819 0.377719 -0.103086
C12   C     C_R   0.391190 0.500148 0.499561 0.779490
C13   C     C_R   0.302475 0.567878 0.389362 -0.218453
C14   C     C_R   0.328867 0.502118 0.493939 -0.022541
C15   C     C_R   0.295424 0.430880 0.583468 -0.252995
C16   C     C_R   0.236266 0.432981 0.577261 -0.093086
C17   C     C_R   0.209538 0.499266 0.473351 0.341562
C18   C     C_R   0.755557 0.409406 0.382806 0.019701
C19   C     C_R   0.696434 0.409500 0.400578 -0.229088
C20   C     C_R   0.670935 0.496077 0.490063 -0.031897
C21   C     C_R   0.704878 0.586150 0.556526 -0.256755
C22   C     C_R   0.763860 0.581512 0.547233 -0.085986
C23   C     C_R   0.498330 0.737280 0.501053 0.810376
C24   C     C_R   0.790032 0.493336 0.460694 0.291718
C25   C     C_R   0.489958 0.066350 0.618808 0.034339
C26   C     C_R   0.489819 0.128548 0.493298 -0.139920
C27   C     C_R   0.480136 0.057300 0.368664 0.145750
C28   C     C_R   0.481226 0.928446 0.374960 -0.236663
C29   C     C_R   0.490627 0.869564 0.500954 -0.120278
C30   C     C_R   0.489033 0.939997 0.623237 0.110130
C31   C     C_3   0.525202 0.940647 0.749778 -0.510870
C32   C     C_3   0.525870 0.080604 0.745755 -0.203547
C33   C     C_R   0.544711 0.547588 0.074035 0.219703
C34   C     C_R   0.608757 0.500211 0.498394 0.805084
C35   C     C_R   0.459946 0.437096 0.076789 -0.089235
C36   C     C_R   0.458987 0.435974 0.928898 0.236947
C37   C     C_R   0.546777 0.541372 0.928080 0.159705
C38   C     C_3   0.577742 0.663870 0.927315 -0.113161
C39   C     C_3   0.569024 0.674188 0.084361 -0.471795
C40   C     C_R   0.880764 0.598481 0.417809 0.541504
C41   C     C_R   0.879647 0.387543 0.482461 0.546514
C42   C     C_R   0.939225 0.385642 0.474742 -0.002429
C43   C     C_R   0.969926 0.495907 0.448455 -0.020659
C44   C     C_R   0.940482 0.603437 0.421582 -0.044144
Cu1   Cu    Cu3+1 0.500000 0.499980 0.640670 0.942308
Cu2   Cu    Cu3+1 0.500000 0.500020 0.359330 0.932781
H1    H     H_    0.946068 0.190331 0.513126 0.187852
H2    H     H_    0.670047 0.343833 0.342312 0.144668
H3    H     H_    0.686020 0.663384 0.610123 0.150040
H4    H     H_    0.789331 0.649226 0.604555 0.161043
H5    H     H_    0.477197 0.874615 0.279352 0.161542
H6    H     H_    0.501454 0.904894 0.841420 0.185447
H7    H     H_    0.567007 0.898561 0.728001 0.191318
H8    H     H_    0.502932 0.125194 0.833842 0.142070
H9    H     H_    0.428008 0.386763 0.135526 0.148939
H10   H     H_    0.049074 0.190857 0.502382 0.181420
H11   H     H_    0.555127 0.732194 0.867097 0.186342
H12   H     H_    0.608357 0.679365 0.147599 0.207175
H13   H     H_    0.536587 0.742759 0.114776 0.182079
H14   H     H_    0.947938 0.795890 0.375782 0.188122
H15   H     H_    0.224012 0.613853 0.294325 0.149777
H16   H     H_    0.327618 0.620649 0.315691 0.152944
H17   H     H_    0.315145 0.369298 0.653126 0.156462
H18   H     H_    0.211346 0.380637 0.651588 0.160060
N1    N     N_R   0.851353 0.492347 0.451180 -0.466817
N2    N     N_R   0.148210 0.498926 0.463768 -0.460992
N3    N     N_R   0.500360 0.500930 0.147930 -0.201453
N4    N     N_R   0.500360 0.500890 0.852020 -0.212185
O1    O     O_R   0.500000 0.319640 0.618810 -0.596924
O2    O     O_2   0.850364 0.286014 0.523277 -0.528514
O3    O     O_2   0.145928 0.281764 0.467493 -0.553280
O4    O     O_2   0.151478 0.714573 0.466241 -0.555756
O5    O     O_R   0.500010 0.319680 0.381230 -0.576172
O6    O     O_R   0.417880 0.499940 0.618820 -0.581505
O7    O     O_R   0.417880 0.499980 0.381240 -0.589467
O8    O     O_R   0.499990 0.680320 0.618770 -0.578574
O9    O     O_R   0.500000 0.680360 0.381190 -0.584048
O10   O     O_R   0.582120 0.500020 0.618760 -0.577148
O11   O     O_R   0.582120 0.500060 0.381180 -0.576934
O12   O     O_2   0.852313 0.699204 0.381357 -0.539509
C45   C     C_3   0.471265 0.110956 0.226637 -0.378482
C46   C     C_3   0.528007 0.137711 0.153012 -0.769064
H19   H     H_    0.520881 0.195601 0.061574 0.219313
H20   H     H_    0.558582 0.187298 0.222557 0.266741
H21   H     H_    0.547254 0.049963 0.117259 0.235783
H22   H     H_    0.446312 0.044987 0.159967 0.178292
H23   H     H_    0.444514 0.193366 0.233823 0.206211
C47   C     C_1   0.583011 0.134007 0.718702 0.307756
N5    N     N_1   0.627824 0.176133 0.697409 -0.274803
C48   C     C_3   0.412212 0.354206 0.868503 -0.368603
C49   C     C_3   0.353517 0.405521 0.904548 -0.858079
H24   H     H_    0.346843 0.492022 0.848105 0.274211
H25   H     H_    0.319932 0.335940 0.877484 0.237211
H26   H     H_    0.348392 0.425834 0.017271 0.242095
H27   H     H_    0.416206 0.334519 0.756939 0.246465
H28   H     H_    0.414925 0.261989 0.915960 0.158944
C50   C     C_3   0.641025 0.649492 0.890397 -0.360125
C51   C     C_3   0.671865 0.774047 0.878402 -0.815771
H29   H     H_    0.654872 0.825787 0.790492 0.240818
H30   H     H_    0.666922 0.829190 0.976079 0.268527
H31   H     H_    0.717869 0.759608 0.859014 0.250797
H32   H     H_    0.662906 0.594428 0.969229 0.213964
H33   H     H_    0.644518 0.596378 0.792742 0.228556
C52   C     C_3   0.058510 0.844724 0.376214 -0.340159
C53   C     C_3   0.087674 0.844201 0.233603 -0.739128
H34   H     H_    0.120572 0.772869 0.225220 0.263185
H35   H     H_    0.055686 0.825972 0.151084 0.238588
H36   H     H_    0.108308 0.935626 0.215872 0.245693
H37   H     H_    0.026320 0.918136 0.375419 0.175572
H38   H     H_    0.088040 0.875085 0.459734 0.250505
C54   C     C_1   0.779669 0.326461 0.280266 0.294947
N6    N     N_1   0.798988 0.259997 0.197964 -0.249641

loop_
_geom_bond_atom_site_label_1
_geom_bond_atom_site_label_2
_ccdc_geom_bond_type
Cu2   O11   S    
C12   O6    A    
C41   C42   A    
C19   C20   A    
C23   O8    A    
C21   H3    S    
C45   C46   S    
C7    C8    A    
Cu1   Cu2   S    
C53   H35   S    
C17   N2    S    
C29   C30   A    
Cu1   O8    S    
C18   C24   A    
C5    C6    A    
C23   C29   S    
C28   C29   A    
C52   H37   S    
C28   H5    S    
C15   C16   A    
C32   C47   S    
C37   N4    A    
C9    O3    S    
C18   C19   A    
C9    N2    A    
Cu2   O7    S    
C13   H16   S    
C35   C36   A    
C16   C17   A    
C40   O12   S    
Cu1   O10   S    
C31   H6    S    
C50   H32   S    
C22   H4    S    
C20   C34   S    
C47   N5    T    
C23   O9    A    
C25   C32   S    
C5    C43   A    
C21   C22   A    
C38   C50   S    
C32   H8    S    
C52   C53   S    
C50   C51   S    
C10   N2    A    
C38   C39   S    
C53   H36   S    
C50   H33   S    
Cu1   O1    S    
C8    C44   A    
C27   C45   S    
C18   C54   S    
C49   H24   S    
C19   H2    S    
C41   N1    A    
C25   C26   A    
C39   H12   S    
C35   H9    S    
C1    O1    A    
Cu1   O6    S    
C43   C44   A    
C37   C38   S    
C34   O11   A    
C49   H25   S    
C38   H11   S    
C3    H10   S    
C31   C32   S    
C35   N3    A    
C39   H13   S    
Cu1   N4    S    
C26   C27   A    
C33   C39   S    
C31   H7    S    
C45   H23   S    
C24   N1    S    
C12   C14   S    
C51   H29   S    
C51   H30   S    
C40   N1    A    
C1    C26   S    
C22   C24   A    
C42   C43   A    
C3    C4    A    
C51   H31   S    
C33   N3    A    
C36   C48   S    
C25   C30   A    
C11   C17   A    
C54   N6    T    
C45   H22   S    
C4    C5    A    
C11   H15   S    
C48   H27   S    
C6    C10   A    
Cu2   O9    S    
C36   N4    A    
C48   H28   S    
C6    C7    A    
C2    H1    S    
C46   H21   S    
C53   H34   S    
C46   H20   S    
C7    C52   S    
C1    O5    A    
C2    C3    A    
Cu2   N3    S    
C34   O10   A    
C49   H26   S    
C52   H38   S    
C11   C13   A    
C48   C49   S    
C30   C31   S    
C2    C42   A    
C33   C37   A    
C40   C44   A    
C20   C21   A    
C46   H19   S    
C12   O7    A    
C27   C28   A    
C15   H17   S    
C14   C15   A    
C16   H18   S    
C4    C9    A    
C13   C14   A    
Cu2   O5    S    
C8    H14   S    
C41   O2    S    
C10   O4    S    
