data_mof_unit_9353.cif
_audit_creation_date              2013-03-05T15:52:30-0500
_audit_creation_method            fapswitch 2.2
_symmetry_space_group_name_H-M    P1
_symmetry_Int_Tables_number       1
_space_group_crystal_system       triclinic
_cell_length_a                    27.812216
_cell_length_b                    10.884308
_cell_length_c                    9.574674
_cell_angle_alpha                 92.266958
_cell_angle_beta                  90.332163
_cell_angle_gamma                 92.879518
_cell_volume                      2892.40084665

loop_
_atom_site_label
_atom_site_type_symbol
_atom_site_description
_atom_site_fract_x
_atom_site_fract_y
_atom_site_fract_z
_atom_type_partial_charge
O1    O     O_R   0.500000 0.319640 0.618810 -0.583125
O2    O     O_R   0.500000 0.319660 0.381240 -0.563060
C1    C     C_R   0.501209 0.262739 0.497411 0.790498
O3    O     O_R   0.430260 0.500010 0.618770 -0.583571
O4    O     O_R   0.430270 0.500030 0.381200 -0.582387
C2    C     C_R   0.407499 0.498209 0.499476 0.807178
Cu1   Cu    Cu3+1 0.500000 0.499990 0.640660 0.923303
Cu2   Cu    Cu3+1 0.500000 0.500010 0.359340 0.939012
O5    O     O_R   0.500000 0.680340 0.618760 -0.609915
O6    O     O_R   0.500000 0.680360 0.381190 -0.597233
O7    O     O_R   0.569730 0.499970 0.618800 -0.606154
O8    O     O_R   0.569740 0.499990 0.381230 -0.597565
C3    C     C_R   0.499269 0.738041 0.503623 0.796454
C4    C     C_R   0.592487 0.500062 0.500448 0.772663
C5    C     C_R   0.175651 0.371719 0.517605 0.500837
O9    O     O_2   0.198384 0.266255 0.532264 -0.551836
N1    N     N_R   0.201885 0.479391 0.499203 -0.466392
C6    C     C_R   0.180057 0.588236 0.486619 0.545274
C7    C     C_R   0.278621 0.492242 0.368813 0.041826
C8    C     C_R   0.329077 0.499584 0.371578 -0.278470
C9    C     C_R   0.328942 0.477966 0.622673 -0.221897
C10   C     C_R   0.278861 0.471109 0.621138 -0.127400
C11   C     C_R   0.253435 0.478767 0.495484 0.330195
C12   C     C_R   0.101799 0.481012 0.505659 -0.047232
C13   C     C_R   0.125166 0.370314 0.519624 -0.016603
C14   C     C_R   0.097775 0.260530 0.532668 -0.155797
C15   C     C_R   0.129686 0.591074 0.489658 -0.022719
C16   C     C_R   0.354503 0.492649 0.498044 -0.050318
H1    H     H_    0.347593 0.471735 0.721567 0.156599
H2    H     H_    0.259625 0.461138 0.718278 0.141935
H3    H     H_    0.114836 0.173650 0.540000 0.184427
C17   C     C_R   0.645398 0.498913 0.501733 -0.036150
C18   C     C_R   0.971961 0.372321 0.534474 -0.010661
C19   C     C_R   0.976611 0.592563 0.483757 0.054481
C20   C     C_R   0.948873 0.482100 0.508880 0.066264
C21   C     C_R   0.943350 0.267555 0.569134 -0.189004
C22   C     C_R   0.892762 0.264027 0.567874 0.137595
C23   C     C_R   0.869206 0.373649 0.537149 -0.083529
C24   C     C_R   0.897658 0.482005 0.508643 -0.060894
C25   C     C_R   0.874862 0.591283 0.479033 -0.003865
C26   C     C_R   0.824659 0.592452 0.478176 0.528793
N2    N     N_R   0.797611 0.488660 0.505661 -0.459408
C27   C     C_R   0.818164 0.380978 0.534765 0.521992
C28   C     C_R   0.721296 0.500292 0.377559 -0.107994
C29   C     C_R   0.671227 0.503191 0.376075 -0.223235
C30   C     C_R   0.670594 0.492421 0.628783 -0.230034
C31   C     C_R   0.720637 0.489339 0.629903 -0.104921
C32   C     C_R   0.746125 0.492932 0.504363 0.371547
O10   O     O_2   0.788767 0.282458 0.560471 -0.570082
C33   C     C_R   0.023087 0.370315 0.526527 0.052730
C34   C     C_R   0.050671 0.481648 0.507501 0.071049
C35   C     C_R   0.027723 0.593535 0.489631 0.041860
C36   C     C_R   0.047846 0.260016 0.534540 -0.215235
H4    H     H_    0.652818 0.508412 0.276671 0.165419
H5    H     H_    0.740850 0.503058 0.280170 0.138541
H6    H     H_    0.960417 0.187673 0.601987 0.157035
H7    H     H_    0.029861 0.170314 0.538562 0.133754
O11   O     O_2   0.207075 0.693355 0.471682 -0.541346
C37   C     C_R   0.106847 0.701454 0.477830 -0.148640
H8    H     H_    0.348423 0.509563 0.274398 0.158215
H9    H     H_    0.127492 0.787753 0.468034 0.186808
C38   C     C_R   0.952132 0.698623 0.451856 -0.209243
C39   C     C_R   0.902402 0.697782 0.449942 -0.160049
O12   O     O_2   0.802824 0.697081 0.451060 -0.548788
C40   C     C_R   0.056963 0.703052 0.478500 -0.209494
H10   H     H_    0.970226 0.783997 0.424657 0.135560
H11   H     H_    0.651697 0.489077 0.727254 0.165277
H12   H     H_    0.885554 0.781862 0.424795 0.185626
H13   H     H_    0.739684 0.484029 0.728272 0.137966
H14   H     H_    0.042588 0.792685 0.472463 0.135835
C41   C     C_R   0.558535 0.141154 0.700237 -0.129026
H15   H     H_    0.573277 0.232238 0.678572 0.153217
C42   C     C_R   0.570722 0.092850 0.827229 -0.133650
H16   H     H_    0.593015 0.147158 0.902069 0.141096
C43   C     C_R   0.551882 0.977406 0.860581 -0.173395
H17   H     H_    0.558016 0.943686 0.963619 0.153887
C44   C     C_R   0.525416 0.904912 0.761032 -0.189200
H18   H     H_    0.509191 0.820328 0.796239 0.176374
C45   C     C_R   0.516873 0.947690 0.625910 0.094921
C46   C     C_R   0.527146 0.073515 0.604872 0.078816
C47   C     C_R   0.503968 0.129186 0.493325 -0.162182
C48   C     C_R   0.478893 0.055177 0.389164 -0.019511
H19   H     H_    0.462262 0.871377 0.310985 0.169335
C49   C     C_R   0.479424 0.928000 0.394756 -0.237944
C50   C     C_R   0.497752 0.872682 0.511570 -0.130430
H20   H     H_    0.441120 0.374000 0.123336 0.163966
C51   C     C_R   0.568034 0.654400 0.151514 -0.148334
H21   H     H_    0.569051 0.669774 0.261640 0.199603
C52   C     C_R   0.603398 0.722503 0.082524 -0.231752
H22   H     H_    0.629638 0.780742 0.141422 0.163793
C53   C     C_R   0.603945 0.719936 0.938568 -0.212892
H23   H     H_    0.630352 0.776922 0.884809 0.169357
C54   C     C_R   0.568585 0.651078 0.863215 -0.175868
H24   H     H_    0.568445 0.666968 0.754493 0.204250
C55   C     C_R   0.533833 0.574178 0.928889 0.192855
C56   C     C_R   0.533701 0.574858 0.078566 0.215595
N3    N     N_R   0.500460 0.501210 0.147910 -0.202516
C57   C     C_R   0.467684 0.429975 0.070329 -0.066849
H25   H     H_    0.441255 0.371738 0.863998 0.137253
C58   C     C_R   0.467723 0.429563 0.922276 -0.053238
N4    N     N_R   0.500480 0.501290 0.852040 -0.201144
C59   C     C_R   0.253048 0.499363 0.233282 0.105894
C60   C     C_R   0.262728 0.599734 0.148002 -0.109445
C61   C     C_R   0.238690 0.606652 0.020033 -0.139122
C62   C     C_R   0.204974 0.513432 0.975995 -0.113299
C63   C     C_R   0.195540 0.412620 0.059309 -0.124473
C64   C     C_R   0.219571 0.405196 0.187167 -0.160938
H26   H     H_    0.288554 0.673047 0.181168 0.140443
H27   H     H_    0.246166 0.684374 0.955039 0.144497
H28   H     H_    0.186356 0.518972 0.876979 0.132294
H29   H     H_    0.169747 0.339894 0.024520 0.142603
H30   H     H_    0.212495 0.325359 0.249094 0.159835
C65   C     C_R   0.448174 0.104636 0.279684 0.138209
C66   C     C_R   0.457673 0.079555 0.137703 -0.138216
C67   C     C_R   0.425430 0.112519 0.034707 -0.149321
C68   C     C_R   0.383266 0.169696 0.072761 -0.159558
C69   C     C_R   0.373700 0.195799 0.213785 -0.142698
C70   C     C_R   0.406007 0.163516 0.317040 -0.110552
H31   H     H_    0.489613 0.032644 0.107273 0.129232
H32   H     H_    0.432959 0.092887 0.925499 0.147969
H33   H     H_    0.358252 0.194799 0.992983 0.139092
H34   H     H_    0.341103 0.240312 0.243096 0.147834
H35   H     H_    0.397596 0.181509 0.426040 0.112912
C71   C     C_3   0.864392 0.143676 0.598716 -0.301940
C72   C     C_3   0.893206 0.030384 0.625474 -0.901545
H36   H     H_    0.916122 0.007830 0.534252 0.247394
H37   H     H_    0.915580 0.045515 0.721675 0.255026
H38   H     H_    0.867906 0.949951 0.641202 0.270570
H39   H     H_    0.842009 0.159577 0.692844 0.240091
H40   H     H_    0.840687 0.117469 0.507435 0.248521

loop_
_geom_bond_atom_site_label_1
_geom_bond_atom_site_label_2
_geom_bond_distance
_ccdc_geom_bond_type
C28   C32   1.400303 A    
C51   H21   1.061049 S    
C26   N2    1.360813 A    
C54   H24   1.061990 S    
C55   C56   1.432865 A    
C17   C29   1.405993 A    
C20   C24   1.424343 A    
C7    C8    1.401603 A    
C12   C15   1.408069 A    
C45   C50   1.423647 A    
C69   H34   1.082464 S    
C66   C67   1.398377 A    
Cu1   Cu2   2.693556 S    
C44   H18   1.072106 S    
Cu1   O7    1.951823 S    
N1    C11   1.434704 S    
C25   C39   1.395264 A    
C21   C22   1.405525 A    
C62   H28   1.082830 S    
O4    C2    1.301056 A    
O7    C4    1.301170 A    
C5    C13   1.403679 A    
C63   C64   1.398434 A    
C67   C68   1.398412 A    
C19   C38   1.412038 A    
C18   C21   1.409066 A    
C68   C69   1.398609 A    
N1    C6    1.367220 A    
C19   C20   1.424921 A    
C64   H30   1.081818 S    
O5    C3    1.290702 A    
C61   C62   1.397344 A    
C19   C35   1.421816 A    
C18   C20   1.413688 A    
C39   H12   1.083633 S    
C6    O11   1.349811 S    
C2    C16   1.472110 S    
C31   C32   1.399873 A    
C1    C47   1.458494 S    
C72   H38   1.110858 S    
C60   H26   1.083161 S    
C8    H8    1.083974 S    
C66   H31   1.082367 S    
C12   C34   1.422547 A    
C14   H3    1.083626 S    
C54   C55   1.413349 A    
C9    C10   1.391074 A    
C51   C56   1.417931 A    
C42   C43   1.386696 A    
O3    Cu1   1.949721 S    
C41   C46   1.418037 A    
N3    C57   1.363621 A    
C63   H29   1.082347 S    
C44   C45   1.415002 A    
C42   H16   1.082515 S    
C23   C24   1.423311 A    
C37   H9    1.083597 S    
C33   C36   1.418116 A    
C68   H33   1.082374 S    
C38   H10   1.076221 S    
C34   C35   1.418813 A    
C12   C13   1.407956 A    
O3    C2    1.301666 A    
C24   C25   1.413283 A    
C41   C42   1.390476 A    
C36   H7    1.076593 S    
C27   O10   1.346856 S    
C8    C16   1.405215 A    
C18   C33   1.425615 A    
C9    H1    1.083124 S    
C47   C48   1.414844 A    
C65   C70   1.405792 A    
C30   H11   1.083053 S    
O1    C1    1.296676 A    
C40   H14   1.076263 S    
C7    C11   1.413066 A    
C43   H17   1.081695 S    
C22   C23   1.429489 A    
C21   H6    1.068450 S    
C53   C54   1.387209 A    
C22   C71   1.534665 S    
H19   C49   1.085307 S    
Cu2   O8    1.949716 S    
C56   N3    1.383072 A    
C38   C39   1.382657 A    
C33   C34   1.419797 A    
C71   H40   1.111120 S    
C59   C64   1.405683 A    
N2    C32   1.435037 S    
C49   C50   1.396721 A    
C43   C44   1.395312 A    
C25   C26   1.396953 A    
C9    C16   1.402977 A    
O8    C4    1.301810 A    
C29   H4    1.082944 S    
C48   C49   1.388197 A    
C51   C52   1.387864 A    
C72   H36   1.111103 S    
C52   C53   1.377699 A    
N2    C27   1.367252 A    
C14   C36   1.388589 A    
C53   H23   1.083021 S    
C28   C29   1.394485 A    
C65   C66   1.405134 A    
C5    N1    1.367022 A    
C30   C31   1.393890 A    
C10   H2    1.082108 S    
O1    Cu1   1.965856 S    
C17   C30   1.406315 A    
O2    Cu2   1.982383 S    
C6    C15   1.403285 A    
C48   C65   1.482909 S    
C4    C17   1.472235 S    
C46   C47   1.416286 A    
O6    C3    1.308471 A    
O4    Cu2   1.951826 S    
C62   C63   1.397111 A    
C57   C58   1.417393 A    
C31   H13   1.082885 S    
H25   C58   1.081795 S    
O2    C1    1.295508 A    
C13   C14   1.394727 A    
C23   C27   1.425942 A    
C15   C37   1.395094 A    
C69   C70   1.398964 A    
C37   C40   1.388416 A    
C28   H5    1.082872 S    
C61   H27   1.082407 S    
Cu2   N3    2.025042 S    
C5    O9    1.349725 S    
C58   N4    1.367083 A    
C7    C59   1.482759 S    
C71   H39   1.111182 S    
C70   H35   1.083289 S    
C59   C60   1.405793 A    
H20   C57   1.076190 S    
C45   C46   1.407470 A    
Cu1   O5    1.982382 S    
C41   H15   1.081856 S    
Cu2   O6    1.965856 S    
C67   H32   1.082685 S    
Cu1   N4    2.023347 S    
C3    C50   1.467179 S    
C60   C61   1.398842 A    
C72   H37   1.110772 S    
C10   C11   1.399449 A    
C26   O12   1.350604 S    
C52   H22   1.083015 S    
C35   C40   1.416784 A    
C55   N4    1.379576 A    
C71   C72   1.533066 S    
