data_mof_unit_57276.cif
_audit_creation_date              2013-03-05T15:44:21-0500
_audit_creation_method            fapswitch 2.2
_symmetry_space_group_name_H-M    P1
_symmetry_Int_Tables_number       1
_space_group_crystal_system       triclinic
_cell_length_a                    18.909131
_cell_length_b                    19.261438
_cell_length_c                    20.371193
_cell_angle_alpha                 107.663198
_cell_angle_beta                  106.079493
_cell_angle_gamma                 111.667194
_cell_volume                      5902.36392344

loop_
_atom_site_label
_atom_site_type_symbol
_atom_site_description
_atom_site_fract_x
_atom_site_fract_y
_atom_site_fract_z
_atom_type_partial_charge
C1    C     C_R   0.086910 0.085667 0.353456 0.315119
N1    N     N_R   0.052580 0.056040 0.395500 -0.090040
C2    C     C_R   0.762336 0.926043 0.507157 -0.131557
H1    H     H_    0.722368 0.860963 0.491397 0.099390
N2    N     N_R   0.834730 0.954500 0.499860 -0.051461
C3    C     C_R   0.838954 0.815521 0.281093 -0.053740
H2    H     H_    0.860150 0.812340 0.236843 0.094347
N3    N     N_R   0.890210 0.849400 0.355780 -0.036678
C4    C     C_R   0.951443 0.197083 0.522613 0.339137
N4    N     N_R   0.997110 0.161140 0.539580 -0.094142
C5    C     C_R   0.760574 0.809562 0.345824 -0.094227
H3    H     H_    0.709082 0.800201 0.361683 0.099530
N5    N     N_R   0.841950 0.845400 0.395490 -0.045613
C6    C     C_R   0.026646 0.200149 0.455269 -0.140981
H4    H     H_    0.057623 0.216211 0.420713 0.184484
N6    N     N_R   0.045360 0.165140 0.499870 -0.053120
C7    C     C_R   0.832619 0.064571 0.572112 -0.083468
H5    H     H_    0.859543 0.125490 0.618645 0.155120
N7    N     N_R   0.877490 0.041510 0.539580 -0.062381
C8    C     C_R   0.014873 0.946919 0.288922 -0.170519
H6    H     H_    0.999556 0.884215 0.252627 0.167714
N8    N     N_R   0.009820 0.969030 0.355780 -0.065852
C9    C     C_R   0.063264 0.018509 0.285433 -0.080747
C10   C     C_R   0.759966 0.993993 0.553484 0.061312
C11   C     C_R   0.756543 0.791194 0.272788 0.029754
C12   C     C_R   0.967894 0.220842 0.468485 -0.125488
C13   C     C_R   0.229685 0.228915 0.645098 -0.097518
H7    H     H_    0.271365 0.254587 0.621319 0.142591
N9    N     N_R   0.158050 0.154600 0.604510 -0.042811
C14   C     C_R   0.929467 0.762906 0.504267 -0.121739
H8    H     H_    0.882742 0.737681 0.523778 0.120932
N10   N     N_R   0.954640 0.834860 0.500130 -0.054873
C15   C     C_R   0.179296 0.932556 0.463941 0.272589
N11   N     N_R   0.122510 0.958490 0.460420 -0.083225
C16   C     C_R   0.034193 0.053711 0.718393 -0.122421
H9    H     H_    0.077161 0.117558 0.762246 0.103971
N12   N     N_R   0.990180 0.030970 0.644220 -0.046411
C17   C     C_R   0.964752 0.913680 0.654434 -0.128629
H10   H     H_    0.941598 0.848360 0.640079 0.106947
N13   N     N_R   0.947420 0.943960 0.604500 -0.046913
C18   C     C_R   0.247253 0.071944 0.538083 -0.133623
H11   H     H_    0.294151 0.136288 0.578117 0.132548
N14   N     N_R   0.165270 0.045500 0.500140 -0.058458
C19   C     C_R   0.151939 0.222844 0.709082 -0.114152
H12   H     H_    0.123101 0.241939 0.744803 0.115760
N15   N     N_R   0.109790 0.150600 0.644220 -0.050206
C20   C     C_R   0.009263 0.769733 0.441050 -0.083185
H13   H     H_    0.036889 0.750544 0.404419 0.177315
N16   N     N_R   0.002890 0.838860 0.460420 -0.055322
Ni1   Ni    Ni4+2 0.104370 0.104380 0.500010 0.284787
Ni2   Ni    Ni4+2 0.895630 0.895620 0.499990 0.216502
Ni3   Ni    Ni4+2 0.006300 0.904810 0.408930 0.283521
Ni4   Ni    Ni4+2 0.993700 0.095190 0.591070 0.245361
C21   C     C_R   0.227479 0.274219 0.711057 0.029253
C22   C     C_R   0.964135 0.722628 0.468575 0.103856
C23   C     C_R   0.258273 0.002001 0.519203 -0.051558
C24   C     C_R   0.021315 0.981321 0.726318 0.071322
C25   C     C_R   0.008000 0.650350 0.530860 -0.235627
C26   C     C_R   0.957668 0.645951 0.464232 -0.025137
C27   C     C_R   0.906219 0.571682 0.395603 0.312915
C28   C     C_R   0.906815 0.498898 0.394374 -0.025005
C29   C     C_R   0.959777 0.503608 0.462145 0.018311
C30   C     C_R   0.010253 0.579900 0.530364 0.088321
C31   C     C_R   0.857297 0.422403 0.327310 -0.206580
C32   C     C_R   0.860078 0.350700 0.325938 0.319025
C33   C     C_R   0.911991 0.355236 0.393775 -0.030787
C34   C     C_R   0.962720 0.432538 0.462038 0.022650
C35   C     C_R   0.016559 0.438744 0.530483 -0.042851
C36   C     C_R   0.065865 0.515204 0.598631 0.337293
C37   C     C_R   0.062743 0.585564 0.597407 -0.241415
C38   C     C_R   0.912784 0.284183 0.396390 -0.107491
C39   C     C_R   0.966489 0.292052 0.463477 0.115871
C40   C     C_R   0.020439 0.368274 0.528608 -0.086114
H14   H     H_    0.047014 0.709706 0.582825 0.154214
H15   H     H_    0.817422 0.417737 0.274719 0.220553
H16   H     H_    0.871577 0.222605 0.347820 0.174387
H17   H     H_    0.063977 0.370836 0.577999 0.168673
H18   H     H_    0.100237 0.644598 0.649481 0.201484
C41   C     C_R   0.335269 0.926705 0.550088 -0.156306
C42   C     C_R   0.336552 0.002022 0.557462 0.118153
C43   C     C_R   0.413462 0.077839 0.601129 -0.163591
C44   C     C_R   0.489898 0.077841 0.626136 0.003625
C45   C     C_R   0.488056 0.999918 0.603900 -0.002326
C46   C     C_R   0.410642 0.924276 0.568543 0.140752
C47   C     C_R   0.568148 0.153125 0.665456 0.338785
C48   C     C_R   0.642142 0.149874 0.672939 -0.220681
C49   C     C_R   0.638432 0.072604 0.640323 0.064693
C50   C     C_R   0.562314 0.997271 0.609362 0.045612
C51   C     C_R   0.558465 0.919366 0.575880 0.146119
C52   C     C_R   0.482866 0.844711 0.547509 -0.185600
C53   C     C_R   0.409353 0.847241 0.544940 -0.148863
C54   C     C_R   0.707127 0.069933 0.630416 -0.179242
C55   C     C_R   0.699007 0.993270 0.585505 0.096860
C56   C     C_R   0.627307 0.917782 0.564006 -0.231691
H19   H     H_    0.275629 0.868893 0.523451 0.136921
H20   H     H_    0.414417 0.136397 0.610481 0.167373
H21   H     H_    0.701471 0.207949 0.698912 0.188360
H22   H     H_    0.763022 0.128956 0.650853 0.144054
H23   H     H_    0.621614 0.858056 0.532326 0.123816
H24   H     H_    0.479389 0.784443 0.523145 0.144436
H25   H     H_    0.350341 0.788818 0.518667 0.147192
C57   C     C_R   0.281661 0.365514 0.759913 0.103971
C58   C     C_R   0.252112 0.412425 0.800185 -0.135590
C59   C     C_R   0.305289 0.497918 0.849109 -0.078332
C60   C     C_R   0.388880 0.537676 0.858624 0.181497
C61   C     C_R   0.416276 0.492418 0.814189 -0.147498
C62   C     C_R   0.363348 0.406884 0.765595 -0.132914
C63   C     C_R   0.613148 0.699333 0.062573 -0.134410
C64   C     C_R   0.684511 0.732784 0.130460 -0.151159
C65   C     C_R   0.605603 0.753644 0.202778 -0.148574
C66   C     C_R   0.533860 0.719738 0.134588 -0.144512
C67   C     C_R   0.536586 0.691375 0.063831 0.202365
C68   C     C_2   0.453204 0.620887 0.922844 -0.174144
C69   C     C_2   0.456098 0.639891 0.993017 -0.190514
C70   C     C_R   0.681282 0.758921 0.201281 0.131071
H26   H     H_    0.188459 0.383388 0.794961 0.151524
H27   H     H_    0.741087 0.734939 0.126599 0.124377
H28   H     H_    0.600908 0.774238 0.256242 0.122977
H29   H     H_    0.400355 0.604805 0.999092 0.137909
H30   H     H_    0.480700 0.522004 0.820966 0.133418
H31   H     H_    0.617478 0.675176 0.009393 0.120620
H32   H     H_    0.387696 0.372653 0.734868 0.139414
H33   H     H_    0.508537 0.656307 0.916516 0.137927
H34   H     H_    0.282058 0.532155 0.881442 0.147395
H35   H     H_    0.475260 0.713016 0.136929 0.136499
C71   C     C_R   0.101225 0.017227 0.231601 0.123220
C72   C     C_R   0.048381 0.965545 0.153433 -0.144951
C73   C     C_R   0.082234 0.961512 0.100923 -0.186529
C74   C     C_R   0.170147 0.008671 0.125615 0.064670
C75   C     C_R   0.223802 0.058828 0.204630 0.333111
C76   C     C_R   0.189265 0.061801 0.257252 -0.128234
C77   C     C_R   0.143819 0.040505 0.933193 -0.171127
C78   C     C_R   0.104754 0.045555 0.867587 -0.151915
C79   C     C_R   0.075434 0.906458 0.789409 -0.282132
C80   C     C_R   0.115429 0.900620 0.855178 0.343848
C81   C     C_R   0.146901 0.967170 0.928291 0.023592
C82   C     C_2   0.202373 0.015181 0.068192 -0.125866
C83   C     C_2   0.161733 0.952245 0.996747 -0.089448
C84   C     C_R   0.067493 0.977560 0.795337 0.089435
H36   H     H_    0.980428 0.929645 0.132862 0.136918
H37   H     H_    0.099989 0.101310 0.874017 0.128241
H38   H     H_    0.050684 0.855271 0.733509 0.161626
H39   H     H_    0.121819 0.889147 0.987162 0.161987
H40   H     H_    0.165259 0.092010 0.987810 0.145308
H41   H     H_    0.231245 0.098632 0.317985 0.180972
H42   H     H_    0.247995 0.077297 0.080186 0.170978
H43   H     H_    0.038627 0.924367 0.040588 0.142647
N17   N     N_R   0.155622 0.168956 0.384612 0.214162
O1    O     O_R   0.202091 0.212774 0.458332 -0.421735
O2    O     O_R   0.167709 0.203837 0.340200 -0.379350
N18   N     N_R   0.165965 0.863666 0.399222 0.222856
O3    O     O_R   0.230045 0.857582 0.392259 -0.380218
O4    O     O_R   0.094268 0.822528 0.337938 -0.411229
Br1   Br    Br    0.836409 0.572096 0.306139 -0.508753
N19   N     N_R   0.811493 0.274799 0.254806 0.239916
O5    O     O_R   0.848181 0.235246 0.228696 -0.376583
O6    O     O_R   0.735426 0.254015 0.209663 -0.337436
N20   N     N_R   0.117232 0.522132 0.669746 0.237086
O7    O     O_R   0.083597 0.472413 0.696891 -0.342360
O8    O     O_R   0.192217 0.587480 0.714080 -0.366360
Br2   Br    Br    0.577722 0.262033 0.705112 -0.497929
N21   N     N_R   0.920325 0.232937 0.572103 0.221474
O9    O     O_R   0.857650 0.245165 0.544611 -0.366939
O10   O     O_R   0.963134 0.265615 0.646038 -0.404224
Br3   Br    Br    0.344240 0.123899 0.243078 -0.438173
N22   N     N_R   0.122081 0.826560 0.846867 0.236584
O11   O     O_R   0.185048 0.830876 0.897890 -0.349279
O12   O     O_R   0.070516 0.756378 0.784336 -0.384421

loop_
_geom_bond_atom_site_label_1
_geom_bond_atom_site_label_2
_geom_bond_distance
_ccdc_geom_bond_type
C77   H40   1.081552 S    
N20   O8    1.301289 A    
C49   C50   1.405156 A    
C55   C56   1.404666 A    
C22   C26   1.409026 S    
C37   H18   1.084903 S    
C47   Br2   1.922493 S    
C18   H11   1.077945 S    
C14   C22   1.362905 A    
C16   H9    1.078889 S    
C63   H31   1.080831 S    
C32   C33   1.411707 A    
C73   C74   1.409277 A    
C65   H28   1.081126 S    
C67   C69   1.477138 S    
C43   C44   1.393053 A    
C13   C21   1.383866 A    
C64   H27   1.080818 S    
C80   C81   1.415185 A    
C18   C23   1.394118 A    
C47   C48   1.391822 A    
N3    N5    1.374009 A    
C29   C34   1.389791 A    
C71   C72   1.395433 A    
C71   C76   1.404285 A    
C60   C68   1.471856 S    
C16   N12   1.341704 A    
N17   O2    1.300829 A    
C68   C69   1.343444 D    
N12   N13   1.389701 A    
C83   H39   1.087126 S    
C11   C70   1.477330 S    
C17   H10   1.076661 S    
C42   C43   1.402036 A    
C3    C11   1.393992 A    
N19   O6    1.301347 A    
C61   C62   1.392765 A    
C5    C11   1.393724 A    
C12   C39   1.415195 S    
C63   C64   1.390000 A    
C24   C84   1.474093 S    
C1    N1    1.345969 A    
C51   C56   1.397596 A    
N4    Ni4   1.871781 S    
C48   H21   1.084048 S    
C65   C66   1.395654 A    
N1    Ni1   1.824116 S    
N5    Ni2   1.823770 S    
C80   N22   1.441220 S    
C66   C67   1.401025 A    
C35   C36   1.412037 A    
N1    N8    1.389704 A    
N18   O3    1.300779 A    
C30   C37   1.393205 A    
C76   H41   1.082402 S    
C46   C53   1.402626 A    
C14   N10   1.326830 A    
C4    N4    1.328822 A    
N3    Ni3   1.839090 S    
C69   H29   1.086311 S    
C66   H35   1.083495 S    
N12   Ni4   1.870481 S    
C50   C51   1.411709 A    
N7    Ni4   1.839920 S    
C15   C23   1.402349 A    
C33   C34   1.421551 A    
C26   C27   1.397374 A    
C49   C54   1.385270 A    
N22   O12   1.301719 A    
C18   N14   1.332050 A    
C27   Br1   1.935983 S    
C2    C10   1.386639 A    
C57   C58   1.406625 A    
C53   H25   1.083677 S    
C52   H24   1.083588 S    
C59   C60   1.403136 A    
C19   N15   1.341399 A    
C4    C12   1.383145 A    
C7    H5    1.072928 S    
N21   O10   1.301155 A    
N9    Ni1   1.823770 S    
C7    C10   1.377845 A    
C54   H22   1.079181 S    
C34   C35   1.420392 A    
C20   H13   1.075873 S    
C82   H42   1.085846 S    
N17   O1    1.300761 A    
C81   C83   1.480592 S    
C15   N18   1.438654 S    
C79   C84   1.405083 A    
C43   H20   1.077721 S    
C48   C49   1.399455 A    
C77   C78   1.387936 A    
C3    N3    1.339268 A    
C35   C40   1.375820 A    
C63   C67   1.406801 A    
C27   C28   1.398806 A    
C28   C31   1.401855 A    
C33   C38   1.391053 A    
C41   H19   1.083163 S    
C29   C30   1.411361 A    
C79   H38   1.081936 S    
C17   C24   1.389764 A    
C45   C46   1.410168 A    
C68   H33   1.085248 S    
C8    C9    1.381154 A    
C14   H8    1.081393 S    
C77   C81   1.409628 A    
N16   Ni3   1.871781 S    
C15   N11   1.335225 A    
C57   C62   1.403681 A    
C73   H43   1.082491 S    
C6    C12   1.375907 A    
C3    H2    1.077824 S    
C4    N21   1.430310 S    
C9    C71   1.466671 S    
N2    N7    1.389701 A    
C8    N8    1.340006 A    
C78   C84   1.397259 A    
N20   O7    1.301467 A    
C6    N6    1.332407 A    
C72   H36   1.083787 S    
C72   C73   1.387683 A    
N13   Ni2   1.824116 S    
C38   H16   1.082235 S    
C58   C59   1.393648 A    
C19   H12   1.080583 S    
C25   H14   1.087239 S    
C20   C22   1.366688 A    
C74   C75   1.407670 A    
C82   C83   1.341728 D    
N10   Ni2   1.891905 S    
C25   C30   1.370348 A    
C61   H30   1.083652 S    
C78   H37   1.082241 S    
C21   C57   1.474855 S    
N11   N14   1.389703 A    
N6    Ni1   1.891905 S    
C39   C40   1.385179 A    
C2    N2    1.343343 A    
C5    H3    1.079270 S    
N14   Ni1   1.891257 S    
C1    C9    1.391166 A    
C79   C80   1.404489 A    
C59   H34   1.082723 S    
N21   O9    1.300826 A    
C44   C47   1.409932 A    
C60   C61   1.400720 A    
N11   Ni3   1.839923 S    
C23   C42   1.469234 S    
N9    N15   1.374011 A    
C16   C24   1.391825 A    
C31   C32   1.393550 A    
C75   C76   1.398944 A    
C25   C26   1.382154 A    
C38   C39   1.383400 A    
C32   N19   1.437461 S    
N4    N6    1.373858 A    
C20   N16   1.330066 A    
C17   N13   1.341194 A    
C5    N5    1.340654 A    
C75   Br3   1.918135 S    
C52   C53   1.395947 A    
C41   C46   1.392082 A    
N22   O11   1.301482 A    
C13   N9    1.340531 A    
C56   H23   1.082139 S    
C58   H26   1.081061 S    
N15   Ni4   1.839090 S    
C54   C55   1.405698 A    
C7    N7    1.329493 A    
C31   H15   1.080945 S    
C36   N20   1.437869 S    
C45   C50   1.398722 A    
N8    Ni3   1.870480 S    
N18   O4    1.301279 A    
C28   C29   1.417110 A    
C36   C37   1.385474 A    
N10   N16   1.373856 A    
C64   C70   1.403332 A    
C41   C42   1.402684 A    
C19   C21   1.386128 A    
C74   C82   1.477439 S    
C8    H6    1.081863 S    
C44   C45   1.413926 A    
N19   O5    1.301296 A    
C40   H17   1.083303 S    
C6    H4    1.077555 S    
N2    Ni2   1.891258 S    
C1    N17   1.432063 S    
C62   H32   1.082528 S    
C51   C52   1.401922 A    
C10   C55   1.471249 S    
C65   C70   1.406323 A    
C2    H1    1.080456 S    
C13   H7    1.081376 S    
