data_mof_unit_33521.cif
_audit_creation_date              2012-12-11T16:11:17-0500
_audit_creation_method            fapswitch 2.2
_symmetry_space_group_name_H-M    P1
_symmetry_Int_Tables_number       1
_space_group_crystal_system       triclinic
_cell_length_a                    12.84775
_cell_length_b                    13.289248
_cell_length_c                    26.965909
_cell_angle_alpha                 97.385893
_cell_angle_beta                  90.06437
_cell_angle_gamma                 118.924073
_cell_volume                      3985.69490755

loop_
_atom_site_label
_atom_site_type_symbol
_atom_type_description
_atom_site_fract_x
_atom_site_fract_y
_atom_site_fract_z
_atom_type_partial_charge
C1    C     C_R   0.627979 0.894555 0.424362 0.537886
C2    C     C_1   0.138911 0.823630 0.179632 -0.019319
C3    C     C_1   0.159161 0.836438 0.231961 0.016767
C4    C     C_R   0.602071 0.223903 0.443344 0.537121
C5    C     C_1   0.173843 0.843455 0.276609 0.012517
C6    C     C_1   0.194260 0.850539 0.328573 -0.030008
C7    C     C_1   0.220600 0.859060 0.372326 0.003065
C8    C     C_1   0.689972 0.799019 0.136360 -0.008107
C9    C     C_1   0.674006 0.808842 0.180239 -0.052434
C10   C     C_1   0.662777 0.817643 0.232302 -0.020446
C11   C     C_1   0.656625 0.826260 0.277000 -0.025379
C12   C     C_R   0.605613 0.370404 0.233722 0.261924
C13   C     C_1   0.650563 0.841171 0.329321 -0.065554
C14   C     C_1   0.643207 0.860976 0.373568 -0.022616
C15   C     C_1   0.693904 0.383907 0.874935 -0.011457
C16   C     C_R   0.268391 0.875541 0.422454 0.544418
C17   C     C_1   0.685248 0.356761 0.830229 -0.036796
C18   C     C_1   0.676900 0.335242 0.777533 0.019906
C19   C     C_1   0.668093 0.319781 0.732462 0.016108
C20   C     C_1   0.653193 0.298954 0.679781 -0.033689
C21   C     C_1   0.634348 0.272914 0.635038 -0.008845
C22   C     C_1   0.218602 0.863831 0.609497 0.049426
C23   C     C_R   0.600225 0.363576 0.285079 0.251556
C24   C     C_R   0.218592 0.777069 0.726512 0.017149
C25   C     C_R   0.218295 0.778005 0.778947 0.024964
C26   C     C_R   0.137515 0.913117 0.786299 0.014046
C27   C     C_R   0.136568 0.911147 0.733752 0.020826
C28   C     C_R   0.630974 0.898114 0.563312 0.541944
C29   C     C_R   0.176067 0.842347 0.704202 -0.058945
C30   C     C_R   0.176274 0.844793 0.808335 -0.051844
C31   C     C_1   0.149919 0.824997 0.859229 0.043943
C32   C     C_1   0.192328 0.853035 0.651895 0.034879
C33   C     C_1   0.116071 0.801475 0.899733 0.051546
C34   C     C_R   0.680900 0.339910 0.309572 -0.034709
C35   C     C_1   0.652747 0.862300 0.607524 0.010740
C36   C     C_R   0.705963 0.911708 0.736341 -0.105138
C37   C     C_R   0.705174 0.893736 0.786180 0.257021
C38   C     C_R   0.639467 0.688506 0.758103 0.247739
C39   C     C_R   0.642365 0.707762 0.708046 0.277157
C40   C     C_R   0.602604 0.226488 0.583104 0.532991
C41   C     C_R   0.674816 0.819471 0.697658 -0.021295
C42   C     C_R   0.676765 0.783138 0.796815 0.022926
C43   C     C_1   0.693237 0.769198 0.847261 0.035291
C44   C     C_1   0.665560 0.839368 0.647670 0.001729
C45   C     C_R   0.696746 0.362187 0.207642 -0.081896
C46   C     C_1   0.713692 0.761139 0.889370 0.022513
C47   C     C_R   0.065130 0.771828 0.084257 0.547323
C48   C     C_R   0.715970 0.438790 0.066720 0.540494
C49   C     C_R   0.720271 0.782362 0.086142 0.555990
C50   C     C_R   0.060589 0.765441 0.944598 0.538437
C51   C     C_R   0.709520 0.432072 0.926646 0.535632
C52   C     C_R   0.268288 0.879483 0.562160 0.544426
C53   C     C_R   0.744087 0.753488 0.938730 0.550568
C54   C     C_1   0.638400 0.277973 0.399473 -0.002743
C55   C     C_R   0.771490 0.329925 0.283658 0.207488
C56   C     C_1   0.699744 0.373729 0.155245 0.039823
C57   C     C_R   0.785475 0.349391 0.233071 0.006496
C58   C     C_3   0.804094 0.187290 0.305940 0.029232
C59   C     C_3   0.894665 0.163848 0.331059 -0.328001
C60   C     C_3   0.644541 0.010696 0.830811 -0.005414
C61   C     C_3   0.674164 0.100132 0.877375 -0.346655
C62   C     C_3   0.478871 0.523288 0.773804 0.013042
C63   C     C_3   0.435717 0.401176 0.785823 -0.333470
C64   C     C_3   0.703780 0.603554 0.654754 0.009076
C65   C     C_3   0.674088 0.533333 0.602602 -0.360682
C66   C     C_2   0.892757 0.357935 0.207759 0.609104
C67   C     C_1   0.661484 0.311609 0.359589 0.005315
C68   C     C_3   0.544730 0.489917 0.205642 0.002837
C69   C     C_3   0.451299 0.491152 0.171420 -0.341544
C70   C     C_3   0.552843 0.476107 0.341663 -0.012033
C71   C     C_3   0.451534 0.502228 0.352668 -0.348223
C72   C     C_2   0.268139 0.711696 0.695131 0.612714
C73   C     C_2   0.256739 0.705389 0.803223 0.602044
C74   C     C_2   0.092993 0.982321 0.818255 0.601489
C75   C     C_2   0.098214 0.983544 0.709450 0.616524
C76   C     C_1   0.704406 0.395076 0.113113 0.040032
C77   C     C_1   0.112767 0.805386 0.135293 0.012978
Cr1   Cr    Cr6+3 0.416010 0.828400 0.490230 1.052307
Cr2   Cr    Cr6+3 0.676380 0.087280 0.505260 1.043528
Cr3   Cr    Cr6+3 0.407590 0.084280 0.504540 1.047125
Cr4   Cr    Cr6+3 0.914090 0.832340 0.018020 1.061311
Cr5   Cr    Cr6+3 0.923310 0.576840 0.003860 1.060994
Cr6   Cr    Cr6+3 0.654200 0.573160 0.004700 1.038330
H1    H     H_    0.729939 0.997549 0.727872 0.140432
H2    H     H_    0.600317 0.120546 0.882641 0.113937
H3    H     H_    0.686313 0.065334 0.910922 0.176091
H4    H     H_    0.429931 0.516270 0.738241 0.192790
H5    H     H_    0.456659 0.572132 0.804834 0.144410
H6    H     H_    0.481948 0.405026 0.821406 0.166733
H7    H     H_    0.338213 0.358149 0.790035 0.158912
H8    H     H_    0.453754 0.349035 0.754995 0.176105
H9    H     H_    0.723419 0.556502 0.681374 0.176345
H10   H     H_    0.785399 0.688742 0.653097 0.156915
H11   H     H_    0.661873 0.582695 0.575000 0.157265
H12   H     H_    0.785382 0.144223 0.266208 0.162746
H13   H     H_    0.747757 0.515679 0.591822 0.107728
H14   H     H_    0.590456 0.449582 0.601960 0.183646
H15   H     H_    0.027851 0.320770 0.205118 0.338305
H16   H     H_    0.633297 0.538649 0.190325 0.120048
H17   H     H_    0.545891 0.535295 0.243360 0.143908
H18   H     H_    0.361609 0.442561 0.185528 0.173173
H19   H     H_    0.471281 0.581871 0.170347 0.110356
H20   H     H_    0.451012 0.450088 0.132810 0.177189
H21   H     H_    0.623402 0.550275 0.324984 0.104070
H22   H     H_    0.590375 0.471114 0.377810 0.139863
H23   H     H_    0.720330 0.147190 0.325447 0.122484
H24   H     H_    0.380961 0.431823 0.370769 0.172632
H25   H     H_    0.485686 0.585782 0.378287 0.108189
H26   H     H_    0.412588 0.509079 0.317302 0.165398
H27   H     H_    0.401512 0.673689 0.685722 0.351675
H28   H     H_    0.350682 0.694909 0.860457 0.334366
H29   H     H_    0.967484 0.030948 0.828191 0.374962
H30   H     H_    0.997917 0.991497 0.654042 0.343458
H31   H     H_    0.911528 0.201882 0.371323 0.165638
H32   H     H_    0.860232 0.068802 0.328066 0.107549
H33   H     H_    0.979767 0.202974 0.312534 0.191167
H34   H     H_    0.559646 0.931422 0.835875 0.178463
H35   H     H_    0.631670 0.047556 0.797994 0.137105
H36   H     H_    0.757503 0.181200 0.873316 0.171399
O1    O     O_R   0.294740 0.800910 0.434410 -0.502226
O2    O     O_R   0.635480 0.460400 0.052590 -0.513712
O3    O     O_R   0.662650 0.681410 0.060750 -0.494860
O4    O     O_R   0.526010 0.837250 0.440870 -0.498921
O5    O     O_R   0.814500 0.852290 0.965490 -0.486578
O6    O     O_R   0.013160 0.821640 0.966980 -0.501664
O7    O     O_R   0.038850 0.666600 0.954370 -0.498844
O8    O     O_R   0.813260 0.476410 0.948680 -0.494025
O9    O     O_R   0.630060 0.454430 0.944230 -0.505714
O10   O     O_R   0.657630 0.675880 0.960300 -0.493183
O11   O     O_3   0.830530 0.660780 0.008860 -0.283944
O12   O     O_R   0.664100 0.185180 0.560770 -0.486477
O13   O     O_R   0.704290 0.994500 0.446090 -0.508688
O14   O     O_R   0.662870 0.181760 0.460430 -0.495230
O15   O     O_R   0.498970 0.199080 0.457120 -0.501460
O16   O     O_R   0.309350 0.975930 0.448180 -0.492089
O17   O     O_R   0.296060 0.804610 0.542650 -0.484855
O18   O     O_R   0.527240 0.840670 0.541200 -0.488541
O19   O     O_R   0.705610 0.998200 0.554330 -0.503948
O20   O     O_3   0.851061 0.308846 0.309069 -0.509725
O21   O     O_3   0.739132 0.985598 0.824624 -0.553331
O22   O     O_3   0.603138 0.577881 0.768949 -0.559999
O23   O     O_R   0.500290 0.202770 0.565360 -0.506468
O24   O     O_3   0.604663 0.616013 0.669408 -0.550840
O25   O     O_2   0.927291 0.411543 0.172185 -0.520991
O26   O     O_R   0.956828 0.307742 0.225196 -0.668307
O27   O     O_3   0.514047 0.373321 0.207934 -0.515203
O28   O     O_3   0.507699 0.368753 0.309488 -0.516782
O29   O     O_2   0.212839 0.648303 0.656449 -0.490399
O30   O     O_R   0.378084 0.723008 0.709922 -0.704006
O31   O     O_2   0.223398 0.604782 0.784595 -0.492227
O32   O     O_R   0.330142 0.752194 0.847741 -0.717189
O33   O     O_2   0.148676 0.041129 0.857672 -0.503829
O34   O     O_R   0.310570 0.979360 0.548520 -0.495211
O35   O     O_R   0.987276 0.979572 0.803451 -0.663374
O36   O     O_2   0.137575 0.086216 0.726270 -0.487806
O37   O     O_R   0.017707 0.934011 0.667049 -0.710146
O38   O     O_3   0.499990 0.999990 0.500010 -0.258006
O39   O     O_R   0.819910 0.858260 0.073860 -0.492490
O40   O     O_R   0.018180 0.827180 0.067430 -0.494691
O41   O     O_R   0.044260 0.672570 0.062730 -0.488311
O42   O     O_R   0.818270 0.481940 0.049130 -0.476681

loop_
_geom_bond_atom_site_label_1
_geom_bond_atom_site_label_2
_ccdc_geom_bond_type
C58   O20   S    
Cr4   O40   S    
C71   H24   S    
C73   O31   D    
C61   H36   S    
C48   C76   S    
C19   C20   S    
C57   C66   S    
C1    O13   A    
C70   O28   S    
C68   H17   S    
Cr3   O38   S    
Cr3   O15   S    
Cr3   O34   S    
C39   C41   A    
C47   O40   A    
C69   H19   S    
C12   C23   A    
C45   C57   A    
C26   C27   A    
Cr3   O16   S    
C22   C32   T    
C56   C76   T    
C51   O9    A    
C22   C52   S    
C36   C37   A    
C64   H10   S    
C38   C42   A    
C29   C32   S    
C40   O23   A    
C16   O1    A    
C30   C31   S    
C70   H21   S    
C66   O25   D    
C49   O3    A    
C59   H33   S    
C55   O20   S    
C27   C29   A    
C74   O35   S    
C18   C19   T    
C12   O27   S    
C37   C42   A    
C24   C29   A    
Cr5   O7    S    
C66   O26   S    
C33   C50   S    
C26   C74   S    
C75   O37   S    
C65   H13   S    
C45   C56   S    
C8    C9    T    
C37   O21   S    
C31   C33   T    
C60   H35   S    
C70   C71   S    
C50   O7    A    
C15   C51   S    
Cr5   O11   S    
H15   O26   S    
C9    C10   S    
Cr6   O9    S    
Cr4   O6    S    
H27   O30   S    
C34   C55   A    
H29   O35   S    
C13   C14   T    
C73   O32   S    
C74   O33   D    
C36   C41   A    
C27   C75   S    
C47   O41   A    
C69   H20   S    
C38   C39   A    
Cr2   O14   S    
Cr4   O5    S    
C28   O19   A    
C24   C25   A    
C28   C35   S    
Cr6   O11   S    
C10   C11   T    
C48   O2    A    
C68   C69   S    
C48   O42   A    
C58   C59   S    
C72   O29   D    
C23   O28   S    
C70   H22   S    
C60   C61   S    
C58   H23   S    
Cr1   O1    S    
C58   H12   S    
C1    O4    A    
C62   C63   S    
Cr1   O4    S    
Cr5   O41   S    
Cr1   O38   S    
C23   C34   A    
Cr2   O12   S    
C63   H6    S    
C46   C53   S    
C17   C18   S    
C60   H34   S    
C50   O6    A    
Cr6   O2    S    
C35   C44   T    
C61   H2    S    
C60   O21   S    
C7    C16   S    
C64   O24   S    
C40   O12   A    
C39   O24   S    
C26   C30   A    
Cr3   O23   S    
C55   C57   A    
C52   O17   A    
C41   C44   S    
C49   O39   A    
C53   O10   A    
C42   C43   S    
C47   C77   S    
C62   O22   S    
Cr1   O18   S    
C68   O27   S    
C24   C72   S    
C4    O15   A    
C25   C30   A    
C15   C17   T    
C65   H11   S    
Cr4   O39   S    
C4    C54   S    
C28   O18   A    
C12   C45   A    
C3    C5    T    
C53   O5    A    
H28   O32   S    
C34   C67   S    
Cr2   O38   S    
Cr6   O10   S    
C6    C7    T    
C54   C67   T    
Cr5   O42   S    
C69   H18   S    
C62   H4    S    
C51   O8    A    
C64   C65   S    
C2    C3    S    
C52   O34   A    
C68   H16   S    
C65   H14   S    
C2    C77   T    
C11   C13   S    
Cr4   O11   S    
C5    C6    S    
C21   C40   S    
C62   H5    S    
C36   H1    S    
C59   H31   S    
Cr2   O13   S    
C71   H26   S    
C63   H7    S    
C38   O22   S    
C25   C73   S    
Cr6   O3    S    
C43   C46   T    
Cr5   O8    S    
C61   H3    S    
C75   O36   D    
Cr2   O19   S    
C20   C21   T    
C59   H32   S    
C72   O30   S    
C63   H8    S    
C64   H9    S    
C1    C14   S    
H30   O37   S    
C71   H25   S    
C16   O16   A    
Cr1   O17   S    
C8    C49   S    
C4    O14   A    
