data_mof_unit_22631.cif
_audit_creation_date              2012-12-11T18:45:00-0500
_audit_creation_method            fapswitch 2.2
_symmetry_space_group_name_H-M    P1
_symmetry_Int_Tables_number       1
_space_group_crystal_system       triclinic
_cell_length_a                    8.164164
_cell_length_b                    14.368512
_cell_length_c                    18.740007
_cell_angle_alpha                 97.035422
_cell_angle_beta                  91.230014
_cell_angle_gamma                 92.208973
_cell_volume                      2179.39834487

loop_
_atom_site_label
_atom_site_type_symbol
_atom_type_description
_atom_site_fract_x
_atom_site_fract_y
_atom_site_fract_z
_atom_type_partial_charge
Ba1   Ba    Ba6+2 0.843240 0.541620 0.463500 1.657139
Ba2   Ba    Ba6+2 0.346570 0.458460 0.536510 1.679078
C1    C     C_3   0.659309 0.877428 0.270709 0.381929
C2    C     C_R   0.912027 0.405557 0.096829 0.033448
C3    C     C_R   0.759247 0.362629 0.074285 -0.078672
C4    C     C_3   0.091533 0.718626 0.253191 0.325804
C5    C     C_R   0.693954 0.369910 0.005817 -0.054821
C6    C     C_R   0.783297 0.416989 0.957138 0.053015
C7    C     C_R   0.939004 0.458255 0.978041 -0.001138
C8    C     C_R   0.722131 0.419206 0.886961 -0.047258
C9    C     C_R   0.817581 0.458053 0.835294 -0.035849
C10   C     C_R   0.972568 0.502263 0.856426 -0.005731
C11   C     C_R   0.032033 0.502543 0.928257 -0.013843
C12   C     C_3   0.614703 0.781367 0.293886 0.341146
C13   C     C_R   0.764893 0.451526 0.762574 -0.009101
C14   C     C_R   0.866524 0.487548 0.712217 -0.291771
C15   C     C_R   0.014538 0.536965 0.732372 0.052126
C16   C     C_3   0.047492 0.728413 0.175128 -0.267633
C17   C     C_R   0.068632 0.545530 0.805956 -0.033451
C18   C     C_R   0.156922 0.495816 0.070171 -0.008436
C19   C     C_R   0.217224 0.494693 0.141731 -0.002109
C20   C     C_R   0.121988 0.449939 0.191786 -0.040591
C21   C     C_R   0.974324 0.401654 0.166922 -0.045714
C22   C     C_R   0.216853 0.593947 0.830726 -0.031769
C23   C     C_3   0.542224 0.314097 0.319461 0.367473
C24   C     C_R   0.278884 0.590604 0.900882 0.030032
C25   C     C_R   0.186767 0.544469 0.949825 0.009622
C26   C     C_R   0.249364 0.540945 0.020593 0.008521
C27   C     C_R   0.433737 0.631530 0.922556 -0.079756
C28   C     C_3   0.183921 0.749556 0.611685 0.240673
C29   C     C_R   0.496509 0.627020 0.992007 -0.063555
C30   C     C_R   0.404735 0.582609 0.041588 0.026014
C31   C     C_R   0.371485 0.539706 0.163182 -0.050366
C32   C     C_R   0.465353 0.580717 0.111952 -0.075816
C33   C     C_R   0.424958 0.544398 0.235757 -0.007888
C34   C     C_3   0.571691 0.289342 0.240038 -0.342346
C35   C     C_R   0.325038 0.506013 0.285366 -0.287056
C36   C     C_R   0.176721 0.456997 0.265146 -0.001503
C37   C     C_R   0.700749 0.937927 0.534662 -0.033147
C38   C     C_R   0.512542 0.800037 0.495073 0.044636
C39   C     C_R   0.368592 0.765155 0.457764 -0.269622
C40   C     C_3   0.225765 0.854954 0.627857 -0.271416
C41   C     C_R   0.272388 0.822427 0.420433 -0.058850
C42   C     C_R   0.330566 0.912912 0.411233 -0.114991
C43   C     C_R   0.470130 0.952456 0.452210 -0.011644
C44   C     C_R   0.562209 0.896184 0.494616 -0.038978
C45   C     C_3   0.073063 0.227645 0.742955 0.334573
C46   C     C_R   0.649870 0.089768 0.494680 -0.048824
C47   C     C_R   0.747657 0.032916 0.533341 0.007827
C48   C     C_R   0.692087 0.186628 0.497103 -0.000170
C49   C     C_R   0.832448 0.224152 0.535555 -0.222764
C50   C     C_R   0.934546 0.167348 0.570366 0.030215
C51   C     C_R   0.891615 0.072069 0.570039 -0.106152
C52   C     C_3   0.119150 0.228828 0.333927 0.244004
C53   C     C_R   0.513392 0.048526 0.454515 -0.018605
C54   C     C_3   0.157609 0.197435 0.255411 -0.441325
C55   C     C_3   0.691713 0.679938 0.675828 0.302418
C56   C     C_3   0.153158 0.242397 0.818510 -0.184591
C57   C     C_3   0.709108 0.713864 0.755866 -0.369548
C58   C     C_2   0.103959 0.903186 0.677032 0.583889
C59   C     C_2   0.054645 0.146665 0.368229 0.499825
C60   C     C_2   0.033114 0.248416 0.878270 0.448096
C61   C     C_2   0.627395 0.101877 0.788930 0.602994
C62   C     C_2   0.250649 0.961110 0.354994 0.546119
C63   C     C_3   0.600974 0.217000 0.699298 0.349355
C64   C     C_3   0.566183 0.116282 0.715360 -0.270069
C65   C     C_R   0.002418 0.453730 0.048525 0.003563
H1    H     H_    0.672061 0.779250 0.347869 0.020378
H2    H     H_    0.614484 0.933228 0.310712 -0.003233
H3    H     H_    0.803512 0.772105 0.765354 0.153259
H4    H     H_    0.746096 0.655958 0.785947 0.041813
H5    H     H_    0.590119 0.739293 0.776338 0.133368
H6    H     H_    0.479947 0.773639 0.297826 -0.058072
H7    H     H_    0.418910 0.341563 0.326295 -0.105769
H8    H     H_    0.630245 0.371189 0.340116 0.098600
H9    H     H_    0.485154 0.232373 0.215927 0.136859
H10   H     H_    0.554602 0.352504 0.212543 0.042756
H11   H     H_    0.697948 0.264756 0.232521 0.127674
H12   H     H_    0.351045 0.865983 0.652704 0.126690
H13   H     H_    0.793986 0.888458 0.269005 0.047200
H14   H     H_    0.134175 0.689739 0.138919 0.064674
H15   H     H_    0.016210 0.294157 0.732652 -0.037172
H16   H     H_    0.978608 0.169353 0.739353 0.071985
H17   H     H_    0.230608 0.308334 0.824299 0.078898
H18   H     H_    0.234045 0.183445 0.825267 0.097752
H19   H     H_    0.735342 0.231985 0.700367 -0.118093
H20   H     H_    0.551271 0.221018 0.644169 0.070859
H21   H     H_    0.625522 0.067152 0.674374 0.057889
H22   H     H_    0.432561 0.099019 0.711325 0.131434
H23   H     H_    0.225054 0.886882 0.576832 -0.002124
H24   H     H_    0.050807 0.647081 0.263781 0.062706
H25   H     H_    0.689939 0.322799 0.109245 0.074516
H26   H     H_    0.575055 0.336532 0.990297 0.070257
H27   H     H_    0.826537 0.480422 0.656359 0.067891
H28   H     H_    0.602383 0.386703 0.872573 0.090277
H29   H     H_    0.904570 0.362728 0.202281 0.088984
H30   H     H_    0.288378 0.632640 0.795582 0.098931
H31   H     H_    0.507176 0.666469 0.885578 0.071964
H32   H     H_    0.616630 0.658992 0.007122 0.108998
H33   H     H_    0.585192 0.612945 0.126305 0.125572
H34   H     H_    0.228627 0.258720 0.364777 0.085902
H35   H     H_    0.226342 0.727321 0.260753 -0.003370
H36   H     H_    0.365747 0.512451 0.341137 0.071786
H37   H     H_    0.327021 0.693306 0.460440 0.071560
H38   H     H_    0.971945 0.028715 0.596859 0.046249
H39   H     H_    0.866533 0.297679 0.535500 0.067169
H40   H     H_    0.773380 0.897728 0.567530 0.089403
H41   H     H_    0.436963 0.092126 0.426385 0.154058
H42   H     H_    0.921615 0.699161 0.161112 0.153011
H43   H     H_    0.053984 0.803391 0.166139 0.166362
H44   H     H_    0.290469 0.714574 0.586907 0.012790
H45   H     H_    0.200559 0.258525 0.229027 0.073587
H46   H     H_    0.077703 0.738440 0.573471 0.061983
H47   H     H_    0.973772 0.893767 0.664158 -0.013749
H48   H     H_    0.954037 0.102200 0.342687 -0.011676
H49   H     H_    0.336658 0.864812 0.130882 0.359611
H50   H     H_    0.078219 0.266209 0.933322 0.011706
H51   H     H_    0.577985 0.141639 0.836042 0.050405
H52   H     H_    0.119042 0.954837 0.346077 0.021452
H53   H     H_    0.046157 0.165427 0.225541 0.136490
H54   H     H_    0.254686 0.145388 0.251986 0.181010
H55   H     H_    0.812941 0.659862 0.655425 0.001449
H56   H     H_    0.604369 0.618195 0.668067 0.065251
O1    O     O_2   0.887710 0.436190 0.327560 -0.447970
O2    O     O_2   0.271787 0.175145 0.561376 -0.438550
O3    O     O_3   0.195639 0.202063 0.694061 -0.596423
O4    O     O_3   0.135370 0.443490 0.416520 -0.471348
O5    O     O_3   0.551980 0.615210 0.532020 -0.485942
O6    O     O_2   0.394410 0.269100 0.474240 -0.438005
O7    O     O_3   0.558852 0.233844 0.354391 -0.627618
O8    O     O_2   0.419711 0.451821 0.757135 -0.488503
O9    O     O_3   0.524743 0.281115 0.749628 -0.594564
O10   O     O_3   0.634420 0.609440 0.364670 -0.486314
O11   O     O_2   0.765207 0.539382 0.243191 -0.495468
O12   O     O_3   0.633979 0.753145 0.640765 -0.636216
O13   O     O_3   0.993913 0.291784 0.337059 -0.630544
O14   O     O_3   0.673562 0.710252 0.244019 -0.581105
O15   O     O_2   0.795290 0.730930 0.525800 -0.478193
O16   O     O_3   0.044470 0.660110 0.398750 -0.476851
O17   O     O_2   0.932001 0.827543 0.432962 -0.501162
O18   O     O_2   0.150232 0.952520 0.731994 -0.556340
O19   O     O_2   0.110680 0.130673 0.426065 -0.619261
O20   O     O_2   0.599358 0.990346 0.170169 -0.262079
O21   O     O_2   0.657953 0.827030 0.127474 -0.300091
O22   O     O_3   0.372348 0.861553 0.181332 -0.527153
O23   O     O_3   0.013529 0.787677 0.298380 -0.609780
O24   O     O_2   0.886491 0.233034 0.866506 -0.585855
O25   O     O_2   0.731433 0.044801 0.796406 -0.539915
O26   O     O_2   0.331938 0.004995 0.315543 -0.568976
O27   O     O_2   0.301980 0.563840 0.672490 -0.466344
O28   O     O_3   0.054330 0.556590 0.583490 -0.495269
O29   O     O_3   0.555270 0.390630 0.635330 -0.480896
O30   O     O_3   0.147036 0.713244 0.675609 -0.639948
O31   O     O_3   0.637720 0.384870 0.467990 -0.482384
O32   O     O_3   0.145220 0.339960 0.601250 -0.461130
P1    P     P_3+3 0.061800 0.409390 0.339760 0.984668
P2    P     P_3+3 0.622760 0.718740 0.547830 0.968052
P3    P     P_3+3 0.066289 0.777056 0.387906 0.925902
P4    P     P_3+3 0.127890 0.590690 0.660240 0.978654
P5    P     P_3+3 0.133225 0.219271 0.607159 1.015471
P6    P     P_3+3 0.623221 0.600450 0.271107 0.945543
P7    P     P_3+3 0.575324 0.266815 0.447483 0.968900
P8    P     P_3+3 0.566157 0.395000 0.728151 0.962324
S1    S     S_3+6 0.573930 0.890066 0.184071 -0.036139

loop_
_geom_bond_atom_site_label_1
_geom_bond_atom_site_label_2
_ccdc_geom_bond_type
C50   P5    S    
C46   C53   A    
C56   C60   S    
Ba2   O32   S    
O12   P2    S    
C48   P7    S    
C54   H53   S    
C61   O25   D    
C18   C65   A    
C58   H47   S    
Ba1   O5    S    
C36   P1    S    
C41   P3    S    
C16   H14   S    
O2    P5    D    
C63   H19   S    
C43   C44   A    
C42   C62   S    
C37   H40   S    
C24   C25   A    
C33   P6    S    
C62   H52   S    
Ba2   O27   S    
C57   H3    S    
C13   P8    S    
C1    H2    S    
C22   C24   A    
C23   H7    S    
C34   H10   S    
C64   H21   S    
H49   O22   S    
O13   P1    S    
C55   C57   S    
C19   C31   A    
C23   O7    S    
C4    H24   S    
C20   C36   A    
Ba2   O6    S    
C21   H29   S    
Ba1   Ba2   S    
C45   H15   S    
C7    C11   A    
C60   H50   S    
C34   H9    S    
O17   P3    D    
C55   H55   S    
C9    C13   A    
C28   O30   S    
O16   P3    S    
C14   C15   A    
C59   H48   S    
C32   H33   S    
C16   H42   S    
C45   H16   S    
Ba1   O16   S    
C57   H5    S    
C5    H26   S    
Ba2   O4    S    
O7    P7    S    
C46   C48   A    
C61   C64   S    
C40   H12   S    
Ba2   O31   S    
C19   C20   A    
O21   S1    D    
C39   C41   A    
C62   O26   D    
Ba1   O10   S    
C1    H13   S    
O5    P2    S    
C63   H20   S    
C64   H22   S    
Ba2   O29   S    
C4    C16   S    
C52   C54   S    
O27   P4    D    
C22   H30   S    
C3    H25   S    
C12   H6    S    
C16   H43   S    
C38   P2    S    
C26   C30   A    
C40   C58   S    
C3    C5    A    
C61   H51   S    
Ba2   P4    S    
C18   C26   A    
C4    O23   S    
C49   C50   A    
C40   H23   S    
C30   C32   A    
O30   P4    S    
Ba1   P1    S    
C38   C44   A    
C41   C42   A    
C7    C65   A    
C35   C36   A    
C56   H17   S    
C58   O18   D    
C55   H56   S    
C29   C30   A    
C12   O14   S    
O8    P8    D    
C52   O13   S    
C48   C49   A    
C6    C7    A    
C18   C19   A    
C1    C12   S    
C52   H34   S    
C1    S1    S    
C37   C44   A    
C27   H31   S    
C46   C47   A    
C37   C47   A    
C29   H32   S    
C60   O24   D    
O1    P1    D    
C15   C17   A    
C56   H18   S    
O20   S1    D    
C63   O9    S    
C50   C51   A    
C45   O3    S    
C35   H36   S    
Ba2   O28   S    
C2    C21   A    
C38   C39   A    
C33   C35   A    
O32   P5    S    
O31   P7    S    
C28   C40   S    
C42   C43   A    
Ba1   O4    S    
C2    C3    A    
C52   C59   S    
O10   P6    S    
O4    P1    S    
C2    C65   A    
C9    C10   A    
O11   P6    D    
O23   P3    S    
O22   S1    S    
O3    P5    S    
C28   H44   S    
C14   H27   S    
C39   H37   S    
C53   H41   S    
C54   H54   S    
Ba1   P2    S    
C17   C22   A    
Ba1   O1    S    
C55   O12   S    
C27   C29   A    
C34   H11   S    
C45   C56   S    
O14   P6    S    
O15   P2    D    
C8    H28   S    
C49   H39   S    
C47   C51   A    
C10   C17   A    
C31   C33   A    
C31   C32   A    
O6    P7    D    
Ba1   O28   S    
C4    H35   S    
Ba1   O31   S    
C15   P4    S    
O9    P8    S    
O29   P8    S    
C5    C6    A    
C8    C9    A    
C23   C34   S    
C51   H38   S    
C59   O19   D    
C10   C11   A    
C43   C53   A    
C24   C27   A    
C6    C8    A    
C63   C64   S    
C57   H4    S    
C25   C26   A    
C12   H1    S    
C20   C21   A    
C11   C25   A    
C23   H8    S    
C54   H45   S    
Ba1   O15   S    
C13   C14   A    
O28   P4    S    
C28   H46   S    
Ba2   O5    S    
