data_mof_unit_65375.cif
_audit_creation_date              2012-12-10T20:31:47-0500
_audit_creation_method            fapswitch 2.2
_symmetry_space_group_name_H-M    P1
_symmetry_Int_Tables_number       1
_space_group_crystal_system       triclinic
_cell_length_a                    28.268372
_cell_length_b                    28.26235
_cell_length_c                    27.585691
_cell_angle_alpha                 90.143519
_cell_angle_beta                  89.89682
_cell_angle_gamma                 89.871654
_cell_volume                      22038.8929125

loop_
_atom_site_label
_atom_site_type_symbol
_atom_type_description
_atom_site_fract_x
_atom_site_fract_y
_atom_site_fract_z
_atom_type_partial_charge
C1    C     C_R   0.797717 0.697533 0.753024 0.056412
C2    C     C_R   0.195040 0.296398 0.255409 0.054789
C3    C     C_R   0.688194 0.211797 0.771394 0.055906
C4    C     C_R   0.300183 0.800032 0.252929 0.057569
C5    C     C_R   0.199917 0.301527 0.755010 0.057249
C6    C     C_R   0.803886 0.703619 0.259734 0.054675
C7    C     C_R   0.291785 0.808221 0.746002 0.055666
C8    C     C_R   0.703016 0.196752 0.251034 0.057724
C9    C     C_R   0.804935 0.296389 0.252375 0.057411
C10   C     C_R   0.192978 0.706058 0.746608 0.055762
C11   C     C_R   0.703730 0.804934 0.258765 0.052852
C12   C     C_R   0.301670 0.201667 0.755948 0.056174
C13   C     C_R   0.200514 0.698757 0.252758 0.058569
C14   C     C_R   0.791122 0.311071 0.768377 0.056874
C15   C     C_R   0.295628 0.195360 0.257703 0.055055
C16   C     C_R   0.697956 0.799349 0.752081 0.057198
C17   C     C_R   0.877362 0.673889 0.771991 0.152248
C18   C     C_R   0.124059 0.329982 0.219983 0.166409
C19   C     C_R   0.667946 0.129187 0.784207 0.163912
C20   C     C_R   0.324759 0.878572 0.230394 0.153999
C21   C     C_R   0.123287 0.330153 0.780860 0.164665
C22   C     C_R   0.875920 0.672537 0.224588 0.162295
C23   C     C_R   0.328824 0.876999 0.781717 0.168113
C24   C     C_R   0.675327 0.119350 0.228798 0.157534
C25   C     C_R   0.882562 0.324004 0.230361 0.158362
C26   C     C_R   0.122649 0.671116 0.780921 0.167235
C27   C     C_R   0.672470 0.877563 0.224934 0.165599
C28   C     C_R   0.326221 0.122034 0.774051 0.154078
C29   C     C_R   0.121790 0.674804 0.230545 0.151892
C30   C     C_R   0.873885 0.331006 0.781755 0.167816
C31   C     C_R   0.327674 0.123267 0.223377 0.164027
C32   C     C_R   0.673717 0.879190 0.771755 0.160871
C33   C     C_R   0.374514 0.170023 0.280263 0.159916
C34   C     C_R   0.618280 0.824186 0.732784 0.156405
C35   C     C_R   0.174498 0.619994 0.271898 0.156864
C36   C     C_R   0.827767 0.376371 0.723143 0.167091
C37   C     C_R   0.625152 0.830614 0.280322 0.165013
C38   C     C_R   0.377825 0.174395 0.728020 0.155904
C39   C     C_R   0.827578 0.376140 0.272791 0.157674
C40   C     C_R   0.170405 0.627326 0.722167 0.160912
C41   C     C_R   0.369390 0.831315 0.718910 0.161566
C42   C     C_R   0.624087 0.173056 0.273421 0.155995
C43   C     C_R   0.172697 0.377601 0.726590 0.157530
C44   C     C_R   0.830361 0.625037 0.281983 0.161340
C45   C     C_R   0.620759 0.176442 0.729217 0.163138
C46   C     C_R   0.378195 0.826402 0.273712 0.157565
C47   C     C_R   0.823795 0.618920 0.731109 0.153809
C48   C     C_R   0.167970 0.373375 0.281706 0.164110
C49   C     C_R   0.870023 0.627871 0.751025 -0.150740
C50   C     C_R   0.127919 0.370852 0.250294 -0.157252
C51   C     C_R   0.626777 0.132072 0.753820 -0.154712
C52   C     C_R   0.370640 0.871379 0.251196 -0.151361
C53   C     C_R   0.129111 0.372185 0.752388 -0.157469
C54   C     C_R   0.871608 0.629421 0.251835 -0.157409
C55   C     C_R   0.369381 0.872125 0.750327 -0.156834
C56   C     C_R   0.630169 0.127802 0.250865 -0.151787
C57   C     C_R   0.873096 0.369600 0.251155 -0.151195
C58   C     C_R   0.128249 0.629606 0.751203 -0.156479
C59   C     C_R   0.629514 0.872195 0.251449 -0.157468
C60   C     C_R   0.370953 0.129058 0.750379 -0.151429
C61   C     C_R   0.129070 0.628600 0.250581 -0.150729
C62   C     C_R   0.870577 0.371666 0.750802 -0.155447
C63   C     C_R   0.370533 0.128284 0.250916 -0.157710
C64   C     C_R   0.627730 0.870663 0.751455 -0.154520
C65   C     C_1   0.762372 0.733097 0.752798 0.002068
C66   C     C_1   0.229601 0.260014 0.257241 0.004011
C67   C     C_1   0.722992 0.248320 0.773785 0.000678
C68   C     C_1   0.265329 0.764188 0.253548 0.001027
C69   C     C_1   0.235669 0.266326 0.756213 0.003716
C70   C     C_1   0.769112 0.739726 0.261135 0.003272
C71   C     C_1   0.255594 0.773669 0.746442 0.002241
C72   C     C_1   0.739669 0.231021 0.251498 0.000494
C73   C     C_1   0.769951 0.260425 0.251912 0.001282
C74   C     C_1   0.226512 0.743190 0.746448 0.002502
C75   C     C_1   0.739602 0.769908 0.260640 0.004498
C76   C     C_1   0.265912 0.236840 0.756560 0.001612
C77   C     C_1   0.235918 0.734049 0.253610 0.001282
C78   C     C_1   0.753483 0.277689 0.772808 0.002341
C79   C     C_1   0.259507 0.230203 0.258193 0.002697
C80   C     C_1   0.732930 0.763374 0.752516 0.004055
C81   C     C_R   0.493139 0.908802 0.549137 -0.100498
C82   C     C_R   0.511113 0.095495 0.451586 -0.114988
C83   C     C_R   0.903231 0.519189 0.548666 -0.127917
C84   C     C_R   0.094028 0.497489 0.452567 -0.112624
C85   C     C_R   0.490148 0.097180 0.548484 -0.134180
C86   C     C_R   0.511063 0.906408 0.451968 -0.117172
C87   C     C_R   0.090777 0.513305 0.549786 -0.097423
C88   C     C_R   0.905549 0.484469 0.453082 -0.106628
C89   C     C_R   0.994138 0.408214 0.047128 -0.096404
C90   C     C_R   0.984137 0.598195 0.950433 -0.120015
C91   C     C_R   0.403588 0.987941 0.048659 -0.116250
C92   C     C_R   0.592352 0.004903 0.950481 -0.095056
C93   C     C_R   0.006106 0.598341 0.049140 -0.121434
C94   C     C_R   0.981935 0.410436 0.950609 -0.090679
C95   C     C_R   0.593572 0.992432 0.047320 -0.105917
C96   C     C_R   0.403020 0.013905 0.951101 -0.119109
C97   C     C_R   0.511960 0.866333 0.529271 0.117823
C98   C     C_R   0.499728 0.139843 0.474408 0.118468
C99   C     C_R   0.860341 0.519833 0.520949 0.103286
C100  C     C_R   0.135005 0.486351 0.480216 0.102455
C101  C     C_R   0.486369 0.140312 0.521774 0.101184
C102  C     C_R   0.524887 0.866295 0.479717 0.100485
C103  C     C_R   0.134145 0.497586 0.529263 0.121109
C104  C     C_R   0.860933 0.497740 0.474802 0.129462
C105  C     C_R   0.006921 0.366140 0.020239 0.114478
C106  C     C_R   0.989745 0.642028 0.975375 0.114227
C107  C     C_R   0.359604 0.994728 0.024311 0.111608
C108  C     C_R   0.634490 0.984803 0.971486 0.114336
C109  C     C_R   0.001791 0.642113 0.023782 0.105998
C110  C     C_R   0.997599 0.366578 0.971982 0.121080
C111  C     C_R   0.634376 0.976080 0.020346 0.110862
C112  C     C_R   0.359343 0.008437 0.976392 0.111394
C113  C     C_R   0.499645 0.001856 0.890313 0.794093
C114  C     C_R   0.499819 0.998817 0.109558 0.793479
C115  C     C_R   0.997133 0.500633 0.890272 0.793656
C116  C     C_R   0.999728 0.500429 0.109539 0.794003
C117  C     C_R   0.999850 0.498819 0.390532 0.789897
C118  C     C_R   0.999625 0.502490 0.609798 0.794834
C119  C     C_R   0.501436 0.000214 0.390361 0.792873
C120  C     C_R   0.498694 0.000383 0.609621 0.793338
C121  C     C_R   0.988991 0.457551 0.973351 -0.001427
C122  C     C_R   0.998114 0.549378 0.026562 0.025014
C123  C     C_R   0.451901 0.005431 0.973395 0.022509
C124  C     C_R   0.544923 0.997657 0.025763 0.004327
C125  C     C_R   0.990951 0.549504 0.973246 0.024240
C126  C     C_R   0.993255 0.456815 0.025675 -0.000945
C127  C     C_R   0.544391 0.002297 0.973303 0.001889
C128  C     C_R   0.452203 0.996807 0.026309 0.021105
C129  C     C_R   0.503908 0.955231 0.473663 0.011271
C130  C     C_R   0.497067 0.048226 0.526539 0.026176
C131  C     C_R   0.953092 0.496818 0.474599 0.014396
C132  C     C_R   0.043841 0.506642 0.526680 -0.001259
C133  C     C_R   0.503777 0.047482 0.473756 0.016590
C134  C     C_R   0.498263 0.956197 0.526159 -0.000602
C135  C     C_R   0.045029 0.501160 0.474169 0.010521
C136  C     C_R   0.952073 0.507608 0.527068 0.027701
C137  C     C_R   0.409006 0.908629 0.750495 0.817325
C138  C     C_R   0.591340 0.090811 0.250281 0.815973
C139  C     C_R   0.908792 0.590875 0.750178 0.810279
C140  C     C_R   0.090971 0.409185 0.249768 0.820883
C141  C     C_R   0.591154 0.091314 0.750057 0.814136
C142  C     C_R   0.408765 0.909113 0.250310 0.814871
C143  C     C_R   0.091133 0.409386 0.750539 0.817768
C144  C     C_R   0.908884 0.590935 0.250025 0.816604
C145  C     C_R   0.409135 0.091160 0.249819 0.818097
C146  C     C_R   0.590630 0.908841 0.750390 0.819525
C147  C     C_R   0.909390 0.408680 0.250283 0.816170
C148  C     C_R   0.091383 0.590735 0.750745 0.818044
C149  C     C_R   0.590921 0.909044 0.249959 0.820222
C150  C     C_R   0.408736 0.090886 0.749778 0.810654
C151  C     C_R   0.090996 0.591022 0.250115 0.815938
C152  C     C_R   0.909582 0.408421 0.749140 0.817105
C153  C     C_R   0.990759 0.502902 0.946311 -0.145722
C154  C     C_R   0.997047 0.502363 0.053267 -0.139337
C155  C     C_R   0.498468 0.005013 0.946464 -0.144760
C156  C     C_R   0.498938 0.997613 0.053209 -0.141088
C157  C     C_R   0.503468 0.000992 0.446563 -0.141826
C158  C     C_R   0.496849 0.001856 0.553366 -0.143627
C159  C     C_R   0.999326 0.498191 0.447064 -0.141666
C160  C     C_R   0.998238 0.507000 0.553832 -0.144827
C161  C     C_R   0.839820 0.705739 0.777049 -0.175093
C162  C     C_R   0.157413 0.293261 0.223031 -0.179399
C163  C     C_R   0.695668 0.169394 0.795504 -0.183024
C164  C     C_R   0.292211 0.841384 0.227463 -0.175345
C165  C     C_R   0.158589 0.295459 0.781677 -0.181470
C166  C     C_R   0.842616 0.708976 0.229631 -0.175876
C167  C     C_R   0.291100 0.844966 0.779273 -0.175492
C168  C     C_R   0.709137 0.155040 0.225407 -0.178313
C169  C     C_R   0.847213 0.289721 0.227683 -0.179741
C170  C     C_R   0.154932 0.708416 0.778157 -0.177122
C171  C     C_R   0.708770 0.843859 0.228444 -0.177115
C172  C     C_R   0.294677 0.159685 0.780584 -0.176501
C173  C     C_R   0.159111 0.707065 0.227498 -0.174911
C174  C     C_R   0.833739 0.303021 0.792400 -0.184781
C175  C     C_R   0.290895 0.156351 0.227748 -0.177562
C176  C     C_R   0.707959 0.843476 0.772364 -0.177623
C177  C     C_R   0.337081 0.202510 0.283632 -0.178393
C178  C     C_R   0.653658 0.789660 0.732093 -0.175667
C179  C     C_R   0.207391 0.656422 0.277034 -0.178673
C180  C     C_R   0.788519 0.346470 0.732955 -0.177814
C181  C     C_R   0.662363 0.798237 0.284650 -0.175515
C182  C     C_R   0.341831 0.208290 0.728051 -0.173208
C183  C     C_R   0.795857 0.338506 0.276588 -0.178058
C184  C     C_R   0.200847 0.665996 0.718574 -0.180895
C185  C     C_R   0.330109 0.801754 0.715477 -0.180121
C186  C     C_R   0.661524 0.205177 0.276432 -0.176747
C187  C     C_R   0.207110 0.342139 0.727643 -0.178917
C188  C     C_R   0.797319 0.661971 0.285419 -0.179440
C189  C     C_R   0.651818 0.214988 0.737629 -0.173746
C190  C     C_R   0.341890 0.793442 0.278012 -0.177348
C191  C     C_R   0.790428 0.655445 0.728213 -0.172693
C192  C     C_R   0.200627 0.336182 0.284278 -0.177744
H1    H     H_    0.845280 0.739288 0.795808 0.176679
H2    H     H_    0.153799 0.262163 0.200012 0.176129
H3    H     H_    0.726904 0.165709 0.818411 0.174610
H4    H     H_    0.258668 0.846529 0.208825 0.175689
H5    H     H_    0.153574 0.263499 0.803135 0.175713
H6    H     H_    0.846816 0.741695 0.209139 0.176223
H7    H     H_    0.261180 0.848618 0.804057 0.176724
H8    H     H_    0.742291 0.148510 0.206249 0.175269
H9    H     H_    0.854106 0.256337 0.209068 0.175480
H10   H     H_    0.150469 0.739363 0.801444 0.176824
H11   H     H_    0.741096 0.848284 0.207506 0.176900
H12   H     H_    0.261917 0.154239 0.800704 0.176745
H13   H     H_    0.153976 0.740746 0.209083 0.175520
H14   H     H_    0.837398 0.271973 0.815615 0.174957
H15   H     H_    0.258480 0.151792 0.206824 0.175884
H16   H     H_    0.742745 0.850495 0.788224 0.175810
H17   H     H_    0.341320 0.234578 0.305134 0.176346
H18   H     H_    0.645863 0.754496 0.717338 0.175573
H19   H     H_    0.240350 0.650080 0.296428 0.175184
H20   H     H_    0.756382 0.350107 0.711417 0.174943
H21   H     H_    0.658135 0.766637 0.306766 0.177861
H22   H     H_    0.346394 0.241241 0.708207 0.177013
H23   H     H_    0.762360 0.343400 0.295494 0.175732
H24   H     H_    0.232889 0.663373 0.696571 0.175115
H25   H     H_    0.331094 0.770720 0.691779 0.174620
H26   H     H_    0.657112 0.238285 0.296179 0.175690
H27   H     H_    0.240267 0.346990 0.707951 0.175240
H28   H     H_    0.765559 0.657407 0.307292 0.176452
H29   H     H_    0.647901 0.247532 0.716919 0.175494
H30   H     H_    0.347666 0.760629 0.297790 0.175436
H31   H     H_    0.756991 0.649423 0.709622 0.177369
H32   H     H_    0.231219 0.339002 0.308110 0.176670
O1    O     O_3   0.500000 1.000000 0.750000 -0.519340
O2    O     O_3   0.500000 0.000000 0.250000 -0.519036
O3    O     O_3   1.000000 0.500000 0.750000 -0.521323
O4    O     O_3   0.000000 0.500000 0.250000 -0.520222
O5    O     O_R   0.539320 0.000000 0.865670 -0.642024
O6    O     O_R   0.460680 1.000000 0.134330 -0.650431
O7    O     O_R   0.000000 0.460680 0.865670 -0.632939
O8    O     O_R   1.000000 0.539320 0.134330 -0.656922
O9    O     O_R   0.460680 0.000000 0.865670 -0.652374
O10   O     O_R   0.539320 1.000000 0.134330 -0.647487
O11   O     O_R   1.000000 0.539320 0.865670 -0.653879
O12   O     O_R   1.000000 0.460680 0.134330 -0.640186
O13   O     O_R   0.039320 0.500000 0.365670 -0.649504
O14   O     O_R   0.960680 0.500000 0.634330 -0.655207
O15   O     O_R   0.500000 0.960680 0.365670 -0.651898
O16   O     O_R   0.500000 0.039320 0.634330 -0.660823
O17   O     O_R   0.960680 0.500000 0.365670 -0.641262
O18   O     O_R   0.039320 0.500000 0.634330 -0.637599
O19   O     O_R   0.500000 0.039320 0.365670 -0.649165
O20   O     O_R   0.500000 0.960680 0.634330 -0.639499
O21   O     O_R   0.405620 0.944810 0.780240 -0.607999
O22   O     O_R   0.594380 0.055190 0.219760 -0.611534
O23   O     O_R   0.944810 0.594380 0.780240 -0.618069
O24   O     O_R   0.055190 0.405620 0.219760 -0.605933
O25   O     O_R   0.594380 0.055190 0.780240 -0.608390
O26   O     O_R   0.405620 0.944810 0.219760 -0.614806
O27   O     O_R   0.055190 0.405620 0.780240 -0.606032
O28   O     O_R   0.944810 0.594380 0.219760 -0.610045
O29   O     O_R   0.405620 0.055190 0.219760 -0.607803
O30   O     O_R   0.594380 0.944810 0.780240 -0.606413
O31   O     O_R   0.944810 0.405620 0.219760 -0.611983
O32   O     O_R   0.055190 0.594380 0.780240 -0.608687
O33   O     O_R   0.594380 0.944810 0.219760 -0.607625
O34   O     O_R   0.405620 0.055190 0.780240 -0.618458
O35   O     O_R   0.055190 0.594380 0.219760 -0.616361
O36   O     O_R   0.944810 0.405620 0.780240 -0.607945
O37   O     O_R   0.905620 0.444810 0.280240 -0.608217
O38   O     O_R   0.094380 0.555190 0.719760 -0.606746
O39   O     O_R   0.444810 0.094380 0.280240 -0.607464
O40   O     O_R   0.555190 0.905620 0.719760 -0.607465
O41   O     O_R   0.094380 0.555190 0.280240 -0.611962
O42   O     O_R   0.905620 0.444810 0.719760 -0.608344
O43   O     O_R   0.555190 0.905620 0.280240 -0.610485
O44   O     O_R   0.444810 0.094380 0.719760 -0.616820
O45   O     O_R   0.905620 0.555190 0.719760 -0.620491
O46   O     O_R   0.094380 0.444810 0.280240 -0.608441
O47   O     O_R   0.444810 0.905620 0.719760 -0.605828
O48   O     O_R   0.555190 0.094380 0.280240 -0.611471
O49   O     O_R   0.094380 0.444810 0.719760 -0.605514
O50   O     O_R   0.905620 0.555190 0.280240 -0.606500
O51   O     O_R   0.555190 0.094380 0.719760 -0.610870
O52   O     O_R   0.444810 0.905620 0.280240 -0.610901
Zn1   Zn    Zn3+2 0.500000 0.943960 0.706520 1.025022
Zn2   Zn    Zn3+2 0.500000 0.056040 0.293480 1.015718
Zn3   Zn    Zn3+2 0.943960 0.500000 0.706520 1.005022
Zn4   Zn    Zn3+2 0.056040 0.500000 0.293480 1.014272
Zn5   Zn    Zn3+2 0.500000 0.056040 0.706520 1.003428
Zn6   Zn    Zn3+2 0.500000 0.943960 0.293480 1.012009
Zn7   Zn    Zn3+2 0.056040 0.500000 0.706520 1.025243
Zn8   Zn    Zn3+2 0.943960 0.500000 0.293480 1.020038
Zn9   Zn    Zn3+2 0.000000 0.443960 0.206520 1.019831
Zn10  Zn    Zn3+2 0.000000 0.556040 0.793480 1.006969
Zn11  Zn    Zn3+2 0.443960 0.000000 0.206520 1.013481
Zn12  Zn    Zn3+2 0.556040 0.000000 0.793480 1.020840
Zn13  Zn    Zn3+2 0.000000 0.556040 0.206520 1.008610
Zn14  Zn    Zn3+2 0.000000 0.443960 0.793480 1.025248
Zn15  Zn    Zn3+2 0.556040 0.000000 0.206520 1.015464
Zn16  Zn    Zn3+2 0.443960 0.000000 0.793480 1.008332
I1    I     I_    0.470710 0.211476 0.555959 -0.181502
I2    I     I_    0.544810 0.797126 0.444775 -0.195205
I3    I     I_    0.202937 0.503222 0.568777 -0.166926
I4    I     I_    0.790432 0.484374 0.438572 -0.166499
I5    I     I_    0.510106 0.797518 0.570655 -0.168423
I6    I     I_    0.505713 0.210593 0.437780 -0.169568
I7    I     I_    0.789294 0.541792 0.553619 -0.193000
I8    I     I_    0.205276 0.471882 0.446039 -0.184521
I9    I     I_    0.011319 0.713623 0.059232 -0.177291
I10   I     I_    0.992116 0.297305 0.933766 -0.172291
I11   I     I_    0.704219 0.961467 0.054265 -0.185025
I12   I     I_    0.287905 0.017351 0.941192 -0.180976
I13   I     I_    0.015668 0.295601 0.054382 -0.175046
I14   I     I_    0.982525 0.713147 0.939249 -0.178164
I15   I     I_    0.288476 0.985937 0.060476 -0.175244
I16   I     I_    0.703376 0.981157 0.931268 -0.175186
I17   I     I_    0.944497 0.710452 0.783312 -0.243003
I18   I     I_    0.070824 0.317992 0.166298 -0.206606
I19   I     I_    0.709137 0.067014 0.794262 -0.223802
I20   I     I_    0.289768 0.946176 0.215883 -0.235774
I21   I     I_    0.064381 0.312961 0.826566 -0.194950
I22   I     I_    0.928355 0.690763 0.169580 -0.226829
I23   I     I_    0.317236 0.927517 0.841485 -0.226366
I24   I     I_    0.707436 0.053434 0.213657 -0.244800
I25   I     I_    0.949598 0.294075 0.212978 -0.239490
I26   I     I_    0.071071 0.684370 0.838987 -0.223684
I27   I     I_    0.688738 0.933821 0.176894 -0.209542
I28   I     I_    0.289278 0.054765 0.784730 -0.241999
I29   I     I_    0.054028 0.710516 0.217057 -0.238561
I30   I     I_    0.938654 0.293721 0.795134 -0.217634
I31   I     I_    0.310905 0.070121 0.168647 -0.218742
I32   I     I_    0.697962 0.943612 0.803510 -0.196696
I33   I     I_    0.435896 0.195016 0.316864 -0.209510
I34   I     I_    0.551223 0.797423 0.709363 -0.205654
I35   I     I_    0.207004 0.553174 0.284873 -0.238337
I36   I     I_    0.819286 0.419606 0.656385 -0.235830
I37   I     I_    0.563456 0.806807 0.314623 -0.214463
I38   I     I_    0.440374 0.204082 0.698899 -0.241875
I39   I     I_    0.795423 0.441724 0.291477 -0.225156
I40   I     I_    0.204034 0.566011 0.695588 -0.219223
I41   I     I_    0.427101 0.795401 0.687690 -0.221359
I42   I     I_    0.560127 0.204440 0.296589 -0.228929
I43   I     I_    0.195501 0.438594 0.687801 -0.198444
I44   I     I_    0.807876 0.564282 0.322333 -0.204869
I45   I     I_    0.571743 0.192959 0.672947 -0.241200
I46   I     I_    0.442301 0.794410 0.292089 -0.240038
I47   I     I_    0.790420 0.551236 0.715050 -0.249365
I48   I     I_    0.187647 0.431993 0.325452 -0.212658
C193  C     C_1   0.463898 0.895814 0.590763 0.296730
N1    N     N_1   0.445703 0.883107 0.626766 -0.100519
C194  C     C_1   0.530929 0.109332 0.404066 0.308158
N2    N     N_1   0.542915 0.123427 0.365443 -0.075127
C195  C     C_1   0.885253 0.522452 0.600109 0.324459
N3    N     N_1   0.870137 0.522363 0.640715 -0.047326
C196  C     C_1   0.113040 0.516535 0.406326 0.316746
N4    N     N_1   0.129664 0.528243 0.368734 -0.071439
C197  C     C_1   0.492641 0.114594 0.599204 0.335748
N5    N     N_1   0.495108 0.128845 0.639779 -0.037458
C198  C     C_1   0.492929 0.885927 0.406211 0.321554
N6    N     N_1   0.481798 0.868619 0.368844 -0.063782
C199  C     C_1   0.102204 0.541816 0.592408 0.293264
N7    N     N_1   0.114417 0.560037 0.628596 -0.108332
C200  C     C_1   0.893167 0.459181 0.406841 0.295949
N8    N     N_1   0.879184 0.443666 0.368994 -0.096083
C201  C     C_1   0.967998 0.391609 0.092585 0.298212
N9    N     N_1   0.952080 0.375931 0.129852 -0.090961
C202  C     C_1   0.973407 0.614117 0.900133 0.312163
N10   N     N_1   0.968656 0.628269 0.859831 -0.056689
C203  C     C_1   0.387693 0.972263 0.097617 0.313020
N11   N     N_1   0.373159 0.963728 0.137134 -0.065921
C204  C     C_1   0.607652 0.034374 0.906827 0.289000
N12   N     N_1   0.622926 0.051709 0.870112 -0.099749
C205  C     C_1   0.018215 0.615108 0.099158 0.322686
N13   N     N_1   0.024779 0.629480 0.139277 -0.054463
C206  C     C_1   0.952182 0.398769 0.906232 0.281483
N14   N     N_1   0.933962 0.385223 0.869357 -0.117172
C207  C     C_1   0.612688 0.017056 0.092707 0.308072
N15   N     N_1   0.629273 0.031997 0.130046 -0.075778
C208  C     C_1   0.386460 0.025661 0.901005 0.313911
N16   N     N_1   0.372205 0.031099 0.860739 -0.057844

loop_
_geom_bond_atom_site_label_1
_geom_bond_atom_site_label_2
_ccdc_geom_bond_type
C95   C124  A    
C105  C110  A    
C11   C171  A    
C201  N9    T    
C117  C159  S    
O3    Zn14  S    
C141  O25   A    
C107  C112  A    
C9    C169  A    
C11   C181  A    
C175  H15   S    
C139  O23   A    
C81   C134  A    
C12   C172  A    
C138  O48   A    
C13   C173  A    
C66   C79   T    
C139  O45   A    
C62   C152  S    
C29   I29   S    
C28   I28   S    
C2    C192  A    
C3    C189  A    
C50   C140  S    
O35   Zn13  S    
C6    C188  A    
C10   C184  A    
C144  O50   A    
O28   Zn13  S    
O2    Zn2   S    
C19   I19   S    
C8    C168  A    
C118  C160  S    
C125  C153  A    
C116  C154  S    
C48   C50   A    
C117  O13   A    
C115  C153  S    
C120  C158  S    
C82   C98   A    
C113  C155  S    
C36   C62   A    
C114  C156  S    
C59   C149  S    
C183  H23   S    
O36   Zn14  S    
C40   C58   A    
C84   C100  A    
C91   C107  A    
C114  O10   A    
C25   I25   S    
C152  O42   A    
C81   C193  S    
C16   C80   S    
O2    Zn6   S    
C138  O22   A    
C31   C63   A    
O37   Zn8   S    
C200  N8    T    
C43   C187  A    
O1    Zn16  S    
C37   C181  A    
O9    Zn16  S    
O10   Zn15  S    
C27   I27   S    
C124  C127  A    
C23   C167  A    
C126  C154  A    
C57   C147  S    
C10   C170  A    
C149  O43   A    
C43   I43   S    
C191  H31   S    
C68   C77   T    
O48   Zn2   S    
C64   C146  S    
C72   C73   T    
C143  O27   A    
C23   C55   A    
C24   C56   A    
C55   C137  S    
C108  C111  A    
O44   Zn5   S    
C176  H16   S    
C205  N13   T    
C101  I1    S    
O52   Zn6   S    
C147  O31   A    
O20   Zn1   S    
C112  I12   S    
C170  H10   S    
C99   I7    S    
C128  C156  A    
C22   C166  A    
O47   Zn1   S    
C26   C170  A    
C202  N10   T    
C174  H14   S    
O12   Zn9   S    
C148  O38   A    
C30   C174  A    
C14   C180  A    
C110  I10   S    
C84   C135  A    
C197  N5    T    
C17   I17   S    
C92   C204  S    
C198  N6    T    
C24   I24   S    
C12   C182  A    
C2    C162  A    
C137  O47   A    
C151  O35   A    
C22   C54   A    
C186  H26   S    
C42   I42   S    
C190  H30   S    
C38   I38   S    
O24   Zn9   S    
C178  H18   S    
C69   C76   T    
C180  H20   S    
C91   C203  S    
O7    Zn14  S    
C106  I14   S    
C15   C79   S    
O6    Zn11  S    
C1    C65   S    
O4    Zn13  S    
C147  O37   A    
C119  C157  S    
C26   I26   S    
C116  O8    A    
C171  H11   S    
C25   C57   A    
C95   C207  S    
C88   C104  A    
C16   C178  A    
O2    Zn15  S    
C51   C141  S    
C35   C179  A    
C29   C61   A    
C90   C202  S    
C18   I18   S    
C33   C177  A    
C95   C111  A    
C4    C190  A    
C32   C64   A    
C131  C136  A    
C17   C49   A    
C4    C68   S    
C60   C150  S    
O43   Zn6   S    
C8    C186  A    
C137  O21   A    
C33   C63   A    
C34   C64   A    
O40   Zn1   S    
C161  H1    S    
C35   C61   A    
C19   C163  A    
C131  C159  A    
C61   C151  S    
C149  O33   A    
C83   C136  A    
C37   C59   A    
C17   C161  A    
C38   C60   A    
C134  C158  A    
C148  O32   A    
C49   C139  S    
C41   I41   S    
C141  O51   A    
C86   C102  A    
C92   C127  A    
C150  O44   A    
C94   C206  S    
O33   Zn15  S    
O34   Zn16  S    
C7    C167  A    
C96   C123  A    
C140  O24   A    
C7    C185  A    
C2    C66   S    
O3    Zn7   S    
C164  H4    S    
C96   C208  S    
C113  O5    A    
C84   C196  S    
O42   Zn3   S    
O39   Zn2   S    
C38   C182  A    
C33   I33   S    
C32   I32   S    
C122  C125  A    
C15   C177  A    
C35   I35   S    
C11   C75   S    
C119  O15   A    
O32   Zn10  S    
C133  C157  A    
O51   Zn5   S    
C136  C160  A    
C44   C54   A    
C89   C105  A    
C70   C75   T    
O1    Zn1   S    
C181  H21   S    
C88   C131  A    
C63   C145  S    
C146  O30   A    
C48   I48   S    
C93   C109  A    
C106  C109  A    
C54   C144  S    
C6    C166  A    
C21   I21   S    
C36   C180  A    
C115  O11   A    
C199  N7    T    
C102  I2    S    
C123  C155  A    
O4    Zn4   S    
C113  O9    A    
C30   I30   S    
C121  C153  A    
C184  H24   S    
C208  N16   T    
C20   C164  A    
O11   Zn10  S    
C21   C165  A    
O45   Zn3   S    
O46   Zn4   S    
C172  H12   S    
C37   I37   S    
C41   C55   A    
C5    C69   S    
C42   C56   A    
O4    Zn9   S    
C43   C53   A    
C45   I45   S    
O5    Zn12  S    
O25   Zn12  S    
C145  O39   A    
C204  N12   T    
C146  O40   A    
O1    Zn5   S    
C97   C102  A    
C3    C163  A    
C118  O14   A    
C99   C104  A    
C1    C161  A    
C83   C99   A    
C145  O29   A    
O23   Zn10  S    
C129  C157  A    
C89   C126  A    
C188  H28   S    
O15   Zn6   S    
C109  I9    S    
C8    C72   S    
C86   C198  S    
O1    Zn12  S    
C97   I5    S    
C93   C122  A    
C192  H32   S    
C91   C128  A    
C127  C155  A    
C196  N4    T    
C187  H27   S    
C107  I15   S    
C94   C110  A    
C100  C103  A    
C87   C199  S    
C9    C183  A    
C165  H5    S    
C85   C130  A    
C32   C176  A    
C163  H3    S    
C116  O12   A    
O41   Zn4   S    
C31   I31   S    
C26   C58   A    
C90   C106  A    
C120  O16   A    
C1    C191  A    
C39   I39   S    
C12   C76   S    
C34   C178  A    
C130  C133  A    
C5    C187  A    
O17   Zn8   S    
C82   C194  S    
C142  O52   A    
O18   Zn7   S    
O8    Zn13  S    
C18   C50   A    
C6    C70   S    
C168  H8    S    
C85   C197  S    
C71   C74   T    
C47   I47   S    
C104  I4    S    
C98   C101  A    
O31   Zn9   S    
C130  C158  A    
C82   C133  A    
C14   C174  A    
C18   C162  A    
C90   C125  A    
C140  O46   A    
C189  H29   S    
C47   C191  A    
C48   C192  A    
C16   C176  A    
C169  H9    S    
C129  C134  A    
C94   C121  A    
O26   Zn11  S    
C143  O49   A    
O27   Zn14  S    
C173  H13   S    
O3    Zn3   S    
C39   C183  A    
C40   I40   S    
C40   C184  A    
C194  N2    T    
C142  O26   A    
C179  H19   S    
C206  N14   T    
C166  H6    S    
C47   C49   A    
C31   C175  A    
C193  N1    T    
C96   C112  A    
C132  C160  A    
C185  H25   S    
C24   C168  A    
C7    C71   S    
C58   C148  S    
C45   C51   A    
C39   C57   A    
C46   C52   A    
C120  O20   A    
C177  H17   S    
C89   C201  S    
C151  O41   A    
O38   Zn7   S    
C22   I22   S    
C4    C164  A    
C5    C165  A    
C100  I8    S    
C92   C108  A    
C115  O7    A    
O4    Zn8   S    
C144  O28   A    
C65   C80   T    
C122  C154  A    
C67   C78   T    
C9    C73   S    
C46   C190  A    
O19   Zn2   S    
C28   C172  A    
O21   Zn16  S    
C13   C77   S    
O22   Zn15  S    
C88   C200  S    
O49   Zn7   S    
O13   Zn4   S    
O50   Zn8   S    
O2    Zn11  S    
O14   Zn3   S    
O3    Zn10  S    
C13   C179  A    
C52   C142  S    
C36   I36   S    
C93   C205  S    
C53   C143  S    
C87   C132  A    
C19   C51   A    
C135  C159  A    
C56   C138  S    
C152  O36   A    
C20   I20   S    
C162  H2    S    
C41   C185  A    
C23   I23   S    
C28   C60   A    
C44   C188  A    
C45   C189  A    
O16   Zn5   S    
C124  C156  A    
C87   C103  A    
C98   I6    S    
C27   C171  A    
C85   C101  A    
C207  N15   T    
C25   C169  A    
C167  H7    S    
C46   I46   S    
C3    C67   S    
C29   C173  A    
C114  O6    A    
O29   Zn11  S    
C86   C129  A    
O30   Zn12  S    
C203  N11   T    
C34   I34   S    
C15   C175  A    
C30   C62   A    
C121  C126  A    
C20   C52   A    
C27   C59   A    
C150  O34   A    
C21   C53   A    
C10   C74   S    
C42   C186  A    
C123  C128  A    
C81   C97   A    
C103  I3    S    
C132  C135  A    
C111  I11   S    
C108  I16   S    
C14   C78   S    
C83   C195  S    
C118  O18   A    
C44   I44   S    
C182  H22   S    
C195  N3    T    
C119  O19   A    
C105  I13   S    
C117  O17   A    
