data_mof_unit_8173.cif
_audit_creation_date              2012-12-10T16:56:35-0500
_audit_creation_method            fapswitch 2.2
_symmetry_space_group_name_H-M    P1
_symmetry_Int_Tables_number       1
_space_group_crystal_system       triclinic
_cell_length_a                    7.771474
_cell_length_b                    8.569515
_cell_length_c                    15.693428
_cell_angle_alpha                 90.553339
_cell_angle_beta                  85.62926
_cell_angle_gamma                 93.550358
_cell_volume                      1040.09484018

loop_
_atom_site_label
_atom_site_type_symbol
_atom_type_description
_atom_site_fract_x
_atom_site_fract_y
_atom_site_fract_z
_atom_type_partial_charge
C1    C     C_R   0.545750 0.794733 0.497969 0.965532
C2    C     C_3   0.429751 0.363543 0.033284 -0.269022
C3    C     C_1   0.504129 0.492268 0.750585 -0.202316
C4    C     C_1   0.496694 0.505900 0.249131 -0.169812
C5    C     C_3   0.340968 0.477593 0.977276 -0.349449
C6    C     C_3   0.671622 0.514498 0.022767 -0.361489
C7    C     C_3   0.506348 0.489000 0.916524 0.073141
C8    C     C_3   0.505126 0.504231 0.082581 0.079976
C9    C     C_1   0.505232 0.488273 0.825794 -0.062767
C10   C     C_1   0.499509 0.507595 0.173672 0.011701
C11   C     C_3   0.232966 0.812914 0.003014 0.063585
C12   C     C_R   0.454263 0.205276 0.502428 0.962617
C13   C     C_3   0.336535 0.950581 0.956975 -0.325857
C14   C     C_3   0.354496 0.927811 0.860146 -0.907305
C15   C     C_3   0.844707 0.260687 0.914982 0.067224
C16   C     C_3   0.873023 0.318112 0.822416 -0.360922
C17   C     C_3   0.054788 0.290493 0.783689 -0.924335
C18   C     C_R   0.501507 0.498322 0.661932 0.908978
C19   C     C_R   0.498541 0.501575 0.338001 0.903316
C20   C     C_2   0.569892 0.958187 0.497025 -0.376260
C21   C     C_2   0.430137 0.041841 0.504018 -0.375226
C22   C     C_3   0.418881 0.616936 0.027100 0.624490
C23   C     C_3   0.593857 0.376229 0.971396 0.605673
C24   C     C_3   0.583692 0.630210 0.966186 -0.311322
H1    H     H_    0.803718 0.532439 0.044928 0.155161
H2    H     H_    0.176748 0.727829 0.957183 0.133432
H3    H     H_    0.268892 0.059571 0.970551 0.190566
H4    H     H_    0.467297 0.967640 0.980965 0.269664
H5    H     H_    0.224865 0.917648 0.834562 0.246827
H6    H     H_    0.423089 0.820888 0.843065 0.265728
H7    H     H_    0.429442 0.030103 0.830028 0.279801
H8    H     H_    0.901030 0.145143 0.918999 0.173188
H9    H     H_    0.916107 0.339146 0.958624 0.112255
H10   H     H_    0.777920 0.255415 0.782788 0.245869
H11   H     H_    0.853885 0.445340 0.820739 0.215815
H12   H     H_    0.206749 0.460354 0.958211 0.138825
H13   H     H_    0.152882 0.351793 0.821722 0.268599
H14   H     H_    0.070891 0.336190 0.717411 0.283401
H15   H     H_    0.076185 0.163535 0.781658 0.259326
H16   H     H_    0.701924 0.009142 0.490399 0.181032
H17   H     H_    0.298106 0.990893 0.510727 0.181193
H18   H     H_    0.013729 0.382180 0.436423 0.195455
H19   H     H_    0.986261 0.617672 0.563667 0.191798
H20   H     H_    0.646528 0.738621 0.936830 0.164606
H21   H     H_    0.369967 0.255600 0.064370 0.154093
H22   H     H_    0.118602 0.859796 0.039052 0.143037
N1    N     N_2   0.950320 0.457950 0.477300 -0.171379
N2    N     N_2   0.049680 0.542050 0.522700 -0.175969
O1    O     O_R   0.389250 0.738570 0.505570 -0.611514
O2    O     O_3   0.666680 0.237392 0.940414 -0.665178
O3    O     O_R   0.610750 0.261430 0.494430 -0.613231
O4    O     O_R   0.678390 0.711630 0.491020 -0.629429
O5    O     O_R   0.321610 0.288370 0.508980 -0.633119
O6    O     O_R   0.355460 0.513480 0.630490 -0.617445
O7    O     O_R   0.644540 0.486520 0.369510 -0.609696
O8    O     O_R   0.644600 0.486540 0.615950 -0.626061
O9    O     O_R   0.355400 0.513460 0.384050 -0.616272
O10   O     O_3   0.330873 0.743888 0.063527 -0.642519
Zn1   Zn    Zn3+2 0.306940 0.517990 0.509710 0.943710
Zn2   Zn    Zn3+2 0.693060 0.482010 0.490290 0.948282

loop_
_geom_bond_atom_site_label_1
_geom_bond_atom_site_label_2
_ccdc_geom_bond_type
C22   O10   S    
C8    C22   S    
N2    Zn1   S    
C13   H4    S    
C3    C9    T    
C11   O10   S    
H19   N2    S    
C12   O5    A    
O1    Zn1   S    
C20   H16   S    
C18   O8    A    
C14   H7    S    
H18   N1    S    
C6    C24   S    
C20   C21   D    
O5    Zn1   S    
C15   H8    S    
C2    H21   S    
C17   H13   S    
C13   C14   S    
C19   O9    A    
C11   C13   S    
C14   H6    S    
C7    C23   S    
C6    C23   S    
C1    C20   S    
O6    Zn1   S    
C16   H11   S    
C24   H20   S    
C1    O4    A    
C22   C24   S    
O9    Zn1   S    
C2    C5    S    
C15   C16   S    
C18   O6    A    
C14   H5    S    
C4    C10   T    
C7    C24   S    
C6    H1    S    
C5    H12   S    
C7    C9    S    
C21   H17   S    
C12   O3    A    
O8    Zn2   S    
C17   H14   S    
C3    C18   S    
C8    C10   S    
C17   H15   S    
C15   O2    S    
C19   O7    A    
C2    C23   S    
C5    C7    S    
C13   H3    S    
C23   O2    S    
C6    C8    S    
O3    Zn2   S    
O4    Zn2   S    
C11   H2    S    
C16   H10   S    
N1    Zn2   S    
O7    Zn2   S    
C4    C19   S    
C1    O1    A    
C12   C21   S    
C15   H9    S    
C2    C8    S    
C5    C22   S    
N1    N2    D    
C16   C17   S    
C11   H22   S    
