data_mof_unit_25383.cif
_audit_creation_date              2012-10-26T20:50:42-0400
_audit_creation_method            fapswitch 2.2
_symmetry_space_group_name_H-M    P1
_symmetry_Int_Tables_number       1
_space_group_crystal_system       triclinic
_cell_length_a                    11.010419
_cell_length_b                    10.81395
_cell_length_c                    9.563347
_cell_angle_alpha                 90.202872
_cell_angle_beta                  102.394308
_cell_angle_gamma                 91.157611
_cell_volume                      1111.86916143

loop_
_atom_site_label
_atom_site_type_symbol
_atom_type_description
_atom_site_fract_x
_atom_site_fract_y
_atom_site_fract_z
_atom_type_partial_charge
C1    C     C_R   0.499500 0.262461 0.499706 0.541646
C2    C     C_R   0.396855 0.465250 0.048536 -0.027333
C3    C     C_R   0.396568 0.466144 0.899999 -0.023368
C4    C     C_R   0.262667 0.495839 0.442160 0.544971
C5    C     C_R   0.608372 0.518658 0.953906 0.125247
C6    C     C_3   0.703076 0.621945 0.968580 0.162358
C7    C     C_3   0.682289 0.642762 0.119292 0.157223
C8    C     C_R   0.498219 0.737462 0.499486 0.549767
C9    C     C_R   0.737140 0.496664 0.557976 0.556174
C10   C     C_2   0.127462 0.483158 0.410303 -0.140144
C11   C     C_2   0.067374 0.469228 0.516954 -0.178864
C12   C     C_R   0.504541 0.129305 0.501208 0.008599
C13   C     C_2   0.872058 0.488471 0.591033 -0.141003
C14   C     C_2   0.932222 0.463458 0.487334 -0.147420
C15   C     C_R   0.474395 0.063497 0.614708 0.012394
C16   C     C_3   0.779819 0.793242 0.874491 -0.015729
C17   C     C_3   0.750071 0.920216 0.810593 -0.367626
C18   C     C_3   0.822972 0.753907 0.290344 -0.012221
C19   C     C_3   0.961128 0.765293 0.357512 -0.381667
C20   C     C_R   0.545210 0.064905 0.392540 -0.166880
C21   C     C_R   0.543570 0.936011 0.391785 -0.180134
C22   C     C_R   0.501268 0.870820 0.499697 0.002907
C23   C     C_R   0.471871 0.936282 0.613289 0.036957
C24   C     C_3   0.358549 0.928586 0.675005 -0.263686
C25   C     C_3   0.361053 0.069141 0.676694 -0.276068
C26   C     C_R   0.606882 0.524667 0.100602 0.145974
Cu1   Cu    Cu3+1 0.499990 0.499980 0.640670 0.976013
Cu2   Cu    Cu3+1 0.500010 0.500020 0.359330 0.946683
H1    H     H_    0.881870 0.446019 0.378027 0.199411
H2    H     H_    0.575071 0.113659 0.306612 0.134752
H3    H     H_    0.572506 0.887897 0.305376 0.117709
H4    H     H_    0.276733 0.887401 0.599115 0.125908
H5    H     H_    0.378376 0.887818 0.783893 0.154837
H6    H     H_    0.280569 0.109955 0.601931 0.131861
H7    H     H_    0.834760 0.743298 0.807824 0.125775
H8    H     H_    0.839108 0.808020 0.983543 0.120048
H9    H     H_    0.677148 0.963772 0.857244 0.168001
H10   H     H_    0.835040 0.980402 0.834013 0.088123
H11   H     H_    0.719718 0.912014 0.692827 0.150173
H12   H     H_    0.382026 0.109410 0.786587 0.137365
H13   H     H_    0.769398 0.765562 0.375558 0.149792
H14   H     H_    0.801100 0.831499 0.213096 0.105449
H15   H     H_    0.016972 0.735890 0.279821 0.157922
H16   H     H_    0.985969 0.863000 0.389193 0.089187
H17   H     H_    0.983923 0.708295 0.455109 0.161534
H18   H     H_    0.312764 0.438034 0.082391 0.120374
H19   H     H_    0.312184 0.439897 0.824446 0.108347
H20   H     H_    0.795423 0.581969 0.965217 0.095036
H21   H     H_    0.620918 0.722282 0.128766 0.113325
H22   H     H_    0.117571 0.469083 0.628031 0.144393
H23   H     H_    0.922719 0.504973 0.700475 0.081640
H24   H     H_    0.076701 0.485336 0.299499 0.112125
N1    N     N_R   0.500780 0.500930 0.148120 -0.251718
N2    N     N_R   0.500790 0.500890 0.852210 -0.218091
O1    O     O_R   0.500000 0.319640 0.618810 -0.502801
O2    O     O_3   0.794284 0.636345 0.223995 -0.584694
O3    O     O_R   0.500010 0.319680 0.381230 -0.508604
O4    O     O_R   0.320680 0.500000 0.575130 -0.513032
O5    O     O_R   0.320690 0.500040 0.337550 -0.510560
O6    O     O_R   0.499990 0.680320 0.618770 -0.436941
O7    O     O_R   0.500000 0.680360 0.381190 -0.515094
O8    O     O_R   0.679310 0.499960 0.662450 -0.493608
O9    O     O_R   0.679320 0.500000 0.424870 -0.465408
O10   O     O_3   0.669327 0.724781 0.878835 -0.537307

loop_
_geom_bond_atom_site_label_1
_geom_bond_atom_site_label_2
_ccdc_geom_bond_type
C1    C12   S    
C8    C22   S    
Cu2   N1    S    
C24   H4    S    
C6    C7    S    
Cu1   O8    S    
C1    O3    A    
C25   H6    S    
C24   H5    S    
C12   C15   A    
C18   O2    S    
C8    O7    A    
C23   C24   S    
C9    O8    A    
C10   H24   S    
Cu2   O7    S    
C12   C20   A    
C15   C23   A    
C2    C3    A    
C1    O1    A    
Cu1   N2    S    
C25   H12   S    
C11   H22   S    
C17   H9    S    
C13   C14   D    
C8    O6    A    
C21   H3    S    
C7    H21   S    
C16   H8    S    
C7    C26   S    
C6    H20   S    
C7    O2    S    
C4    O5    A    
C3    H19   S    
C3    N2    A    
C19   H15   S    
Cu1   O6    S    
C18   H14   S    
C16   H7    S    
C13   H23   S    
C5    C6    S    
C11   C14   S    
Cu1   O1    S    
C15   C25   S    
C10   C11   D    
C14   H1    S    
C4    C10   S    
C5    C26   A    
Cu2   O9    S    
C19   H16   S    
C5    N2    A    
C26   N1    A    
C24   C25   S    
Cu2   O3    S    
C18   C19   S    
C17   H11   S    
Cu2   O5    S    
C6    O10   S    
Cu1   Cu2   S    
C9    C13   S    
C22   C23   A    
C16   C17   S    
C20   H2    S    
C16   O10   S    
C4    O4    A    
C20   C21   A    
C21   C22   A    
C9    O9    A    
Cu1   O4    S    
C2    H18   S    
C19   H17   S    
C18   H13   S    
C17   H10   S    
C2    N1    A    
