data_mof_unit_53700.cif
_audit_creation_date              2012-12-11T15:52:11-0500
_audit_creation_method            fapswitch 2.2
_symmetry_space_group_name_H-M    P1
_symmetry_Int_Tables_number       1
_space_group_crystal_system       triclinic
_cell_length_a                    11.049041
_cell_length_b                    11.040447
_cell_length_c                    18.876582
_cell_angle_alpha                 89.908245
_cell_angle_beta                  90.038687
_cell_angle_gamma                 119.977573
_cell_volume                      1994.6319588

loop_
_atom_site_label
_atom_site_type_symbol
_atom_type_description
_atom_site_fract_x
_atom_site_fract_y
_atom_site_fract_z
_atom_type_partial_charge
C1    C     C_R   0.523522 0.451383 0.144503 0.539107
C2    C     C_R   0.549330 0.073514 0.144156 0.539869
C3    C     C_R   0.933439 0.479329 0.146103 0.540674
C4    C     C_R   0.457484 0.520294 0.852837 0.534933
C5    C     C_R   0.062373 0.541913 0.852612 0.530627
C6    C     C_R   0.479908 0.937874 0.852600 0.528685
C7    C     C_3   0.755559 0.105819 0.550046 0.102401
C8    C     C_3   0.894360 0.650167 0.549879 0.102489
C9    C     C_3   0.349990 0.244229 0.550155 0.102859
C10   C     C_3   0.877147 0.647430 0.469492 0.179711
C11   C     C_3   0.770077 0.122935 0.469650 0.179772
C12   C     C_3   0.352838 0.229775 0.469785 0.179801
C13   C     C_R   0.518344 0.456531 0.353307 0.576152
C14   C     C_R   0.543463 0.061696 0.353291 0.576606
C15   C     C_R   0.938230 0.481631 0.353315 0.575766
C16   C     C_R   0.454804 0.522910 0.644592 0.584757
C17   C     C_R   0.068011 0.545177 0.644611 0.584664
C18   C     C_R   0.477127 0.932046 0.644613 0.584942
C19   C     C_R   0.502286 0.007655 0.920810 0.013592
C20   C     C_R   0.010276 0.504626 0.924459 0.013296
C21   C     C_R   0.503962 0.498565 0.921436 0.015173
C22   C     C_R   0.974747 0.499094 0.072282 0.021290
C23   C     C_R   0.530544 0.046961 0.068305 0.017833
C24   C     C_R   0.514720 0.470234 0.068848 0.014792
C25   C     C_R   0.387931 0.982961 0.963340 0.004773
C26   C     C_R   0.078468 0.457813 0.970298 0.017773
C27   C     C_R   0.591349 0.613614 0.964113 0.007665
C28   C     C_R   0.062606 0.456288 0.042856 -0.008560
C29   C     C_R   0.402260 0.003897 0.035884 -0.002265
C30   C     C_R   0.598340 0.599240 0.036595 -0.001298
C31   C     C_R   0.649303 0.094029 0.024696 -0.149281
C32   C     C_R   0.915525 0.558087 0.027237 -0.147133
C33   C     C_R   0.443771 0.351065 0.025303 -0.157419
C34   C     C_R   0.933137 0.560883 0.954122 -0.165001
C35   C     C_R   0.635626 0.075229 0.951424 -0.160763
C36   C     C_R   0.439917 0.364918 0.951954 -0.167819
C37   C     C_3   0.249066 0.853502 0.971720 -0.243748
C38   C     C_3   0.081764 0.324176 0.971913 -0.263505
C39   C     C_3   0.597781 0.751354 0.972355 -0.242211
C40   C     C_3   0.071616 0.327049 0.052224 -0.275150
C41   C     C_3   0.264673 0.877541 0.051027 -0.274809
C42   C     C_3   0.606510 0.735650 0.051672 -0.274876
C43   C     C_R   0.484207 0.967627 0.570465 0.097819
C44   C     C_R   0.032412 0.516677 0.570502 0.097697
C45   C     C_R   0.483291 0.515800 0.570457 0.097574
C46   C     C_R   0.998317 0.507791 0.423271 0.006146
C47   C     C_R   0.509512 0.001374 0.423228 0.005683
C48   C     C_R   0.492100 0.490508 0.423223 0.006204
C49   C     C_R   0.606512 0.999831 0.536275 -0.005590
C50   C     C_R   0.000190 0.606807 0.536165 -0.006512
C51   C     C_R   0.393193 0.393464 0.536264 -0.006354
C52   C     C_R   0.983110 0.602034 0.465458 -0.033668
C53   C     C_R   0.618868 0.016706 0.465556 -0.033978
C54   C     C_R   0.397969 0.381121 0.465558 -0.033705
C55   C     C_R   0.376434 0.945352 0.453225 0.168234
C56   C     C_R   0.054345 0.430689 0.453388 0.168468
C57   C     C_R   0.569164 0.623645 0.453179 0.168381
C58   C     C_R   0.067793 0.430888 0.528996 0.219356
C59   C     C_R   0.363141 0.932018 0.528834 0.218955
C60   C     C_R   0.568985 0.636907 0.528783 0.219232
Cr1   Cr    Cr6+3 0.769160 0.541570 0.250690 1.093092
Cr2   Cr    Cr6+3 0.458430 0.227590 0.250690 1.093031
Cr3   Cr    Cr6+3 0.772410 0.230840 0.250690 1.089060
Cr4   Cr    Cr6+3 0.541570 0.769160 0.749310 1.038779
Cr5   Cr    Cr6+3 0.227590 0.458430 0.749310 1.039848
Cr6   Cr    Cr6+3 0.230840 0.772410 0.749310 1.039915
H1    H     H_    0.752351 0.140903 0.047383 0.135418
H2    H     H_    0.850635 0.597347 0.048243 0.149941
H3    H     H_    0.386868 0.247350 0.048049 0.149788
H4    H     H_    0.887919 0.608229 0.920959 0.134127
H5    H     H_    0.727515 0.101405 0.920027 0.127194
H6    H     H_    0.375787 0.272675 0.920420 0.135157
H7    H     H_    0.252065 0.758526 0.955332 0.150982
H8    H     H_    0.182992 0.338411 0.953262 0.165023
H9    H     H_    0.499203 0.747344 0.955941 0.149007
H10   H     H_    0.976051 0.237842 0.074695 0.147118
H11   H     H_    0.188505 0.904764 0.073696 0.151073
H12   H     H_    0.709191 0.813303 0.074450 0.149158
H13   H     H_    0.162868 0.865161 0.948637 0.151439
H14   H     H_    0.988078 0.236142 0.946833 0.126468
H15   H     H_    0.695020 0.838715 0.949458 0.148052
H16   H     H_    0.169934 0.349145 0.079334 0.154418
H17   H     H_    0.274514 0.795408 0.080362 0.141427
H18   H     H_    0.513779 0.723804 0.080895 0.141103
H19   H     H_    0.817662 0.063254 0.575325 0.140453
H20   H     H_    0.936938 0.754919 0.574943 0.140117
H21   H     H_    0.245306 0.182073 0.575291 0.140405
H22   H     H_    0.774034 0.567472 0.448744 0.184092
H23   H     H_    0.793083 0.226062 0.448745 0.184004
H24   H     H_    0.432893 0.206679 0.449083 0.183707
O1    O     O_R   0.911480 0.572650 0.170990 -0.521334
O2    O     O_R   0.427350 0.338830 0.170990 -0.523238
O3    O     O_R   0.661170 0.088520 0.170990 -0.523262
O4    O     O_R   0.572650 0.911480 0.829010 -0.533537
O5    O     O_R   0.338830 0.427350 0.829010 -0.532355
O6    O     O_R   0.088520 0.661170 0.829010 -0.531860
O7    O     O_R   0.640340 0.528970 0.175680 -0.499966
O8    O     O_R   0.471030 0.111370 0.175680 -0.500338
O9    O     O_R   0.888630 0.359660 0.175680 -0.506400
O10   O     O_R   0.528970 0.640340 0.824320 -0.506546
O11   O     O_R   0.111370 0.471030 0.824320 -0.505271
O12   O     O_R   0.359660 0.888630 0.824320 -0.506387
O13   O     O_R   0.909980 0.572450 0.331530 -0.478792
O14   O     O_R   0.427550 0.337530 0.331530 -0.477930
O15   O     O_R   0.662470 0.090020 0.331530 -0.477976
O16   O     O_R   0.572450 0.909980 0.668470 -0.509435
O17   O     O_R   0.337530 0.427550 0.668470 -0.509430
O18   O     O_R   0.090020 0.662470 0.668470 -0.509222
O19   O     O_R   0.638950 0.528780 0.324500 -0.453445
O20   O     O_R   0.471220 0.110170 0.324500 -0.452800
O21   O     O_R   0.889830 0.361050 0.324500 -0.453455
O22   O     O_R   0.528780 0.638950 0.675500 -0.447110
O23   O     O_R   0.110170 0.471220 0.675500 -0.447583
O24   O     O_R   0.361050 0.889830 0.675500 -0.446810
O25   O     O_3   0.666667 0.333333 0.250560 -0.312764
O26   O     O_3   0.333333 0.666667 0.749440 -0.278534
O27   O     O_3   0.266443 0.913358 0.408252 -0.653517
H25   H     H_    0.182112 0.835588 0.429131 0.360478
O28   O     O_3   0.086490 0.352703 0.408526 -0.653846
H26   H     H_    0.163927 0.345725 0.429535 0.360762
O29   O     O_3   0.647116 0.733752 0.408163 -0.654262
H27   H     H_    0.654316 0.818290 0.429101 0.360919
O30   O     O_3   0.106973 0.345684 0.563583 -0.689382
H28   H     H_    0.094052 0.268995 0.532265 0.310016
O31   O     O_3   0.238849 0.892811 0.563308 -0.689345
H29   H     H_    0.174854 0.905050 0.531774 0.310403
O32   O     O_3   0.654123 0.761225 0.563218 -0.689466
H30   H     H_    0.730849 0.824882 0.531835 0.310347
O33   O     O_3   0.767966 0.225177 0.582999 -0.682327
H31   H     H_    0.764934 0.207660 0.634696 0.338842
O34   O     O_3   0.775114 0.543414 0.583056 -0.682112
H32   H     H_    0.792582 0.558148 0.634725 0.338889
O35   O     O_3   0.456677 0.231658 0.583372 -0.682213
H33   H     H_    0.442041 0.234646 0.635031 0.338846
O36   O     O_3   0.931369 0.779942 0.438207 -0.661299
H34   H     H_    0.892852 0.830676 0.464137 0.338037
O37   O     O_3   0.848509 0.068858 0.438594 -0.661628
H35   H     H_    0.937371 0.106912 0.464844 0.337461
O38   O     O_3   0.220521 0.151480 0.438544 -0.660936
H36   H     H_    0.169591 0.062477 0.464779 0.337612

loop_
_geom_bond_atom_site_label_1
_geom_bond_atom_site_label_2
_ccdc_geom_bond_type
C45   C60   A    
Cr4   O26   S    
C55   C59   A    
O30   H28   S    
Cr6   O12   S    
C9    C51   S    
Cr5   O11   S    
C10   C52   S    
C18   O24   A    
C17   O23   A    
O36   H34   S    
C5    C20   S    
C7    H19   S    
C2    O8    A    
C31   H1    S    
C6    C19   S    
C37   H13   S    
C10   H22   S    
C58   O30   S    
Cr6   O26   S    
C23   C29   A    
C12   H24   S    
Cr1   O13   S    
Cr1   O1    S    
C41   H11   S    
Cr4   O22   S    
C45   C51   A    
C41   H17   S    
C46   C52   A    
C33   C36   A    
C3    O1    A    
Cr3   O9    S    
C13   O19   A    
C16   O17   A    
C25   C37   S    
Cr2   O8    S    
C14   O15   A    
C44   C58   A    
C6    O4    A    
Cr2   O2    S    
Cr1   O25   S    
C50   C52   A    
C39   H9    S    
C56   C58   A    
Cr3   O15   S    
C34   H4    S    
C11   C53   S    
C43   C59   A    
C47   C53   A    
Cr3   O25   S    
C21   C27   A    
Cr1   O19   S    
C22   C28   A    
C27   C30   A    
C37   C41   S    
C39   C42   S    
Cr2   O14   S    
C60   O32   S    
C25   C29   A    
C5    O11   A    
Cr6   O6    S    
C15   O21   A    
C48   C57   A    
C42   H18   S    
C10   O36   S    
C39   H15   S    
C17   O18   A    
C27   C39   S    
C21   C36   A    
C43   C49   A    
C57   C60   A    
C57   O29   S    
C40   H10   S    
C23   C31   A    
C48   C54   A    
C7    C11   S    
C18   O16   A    
C40   H16   S    
C4    O5    A    
C11   H23   S    
Cr2   O20   S    
Cr5   O5    S    
O28   H26   S    
C8    O34   S    
C12   O38   S    
Cr1   O7    S    
C13   O14   A    
C7    C49   S    
O29   H27   S    
C22   C32   A    
C42   H12   S    
C1    O2    A    
C4    O10   A    
O35   H33   S    
Cr5   O26   S    
C31   C35   A    
C1    O7    A    
O32   H30   S    
C8    C50   S    
C5    O6    A    
C16   O22   A    
C47   C55   A    
O33   H31   S    
C55   O27   S    
C44   C50   A    
C14   O20   A    
C37   H7    S    
Cr6   O24   S    
C29   C41   S    
Cr5   O23   S    
C2    O3    A    
C26   C38   S    
Cr6   O18   S    
C16   C45   S    
C13   C48   S    
O38   H36   S    
Cr4   O16   S    
C14   C47   S    
C33   H3    S    
C59   O31   S    
O37   H35   S    
Cr3   O3    S    
C26   C28   A    
C24   C33   A    
C32   H2    S    
C51   C54   A    
C11   O37   S    
C17   C44   S    
Cr4   O4    S    
Cr2   O25   S    
C19   C35   A    
O27   H25   S    
C9    H21   S    
C38   C40   S    
C4    C21   S    
O31   H29   S    
C20   C26   A    
C49   C53   A    
C56   O28   S    
C38   H8    S    
C8    H20   S    
C6    O12   A    
Cr3   O21   S    
O34   H32   S    
C19   C25   A    
C9    C12   S    
C24   C30   A    
C7    O33   S    
C35   H5    S    
C20   C34   A    
C3    O9    A    
Cr4   O10   S    
C38   H14   S    
C1    C24   S    
C8    C10   S    
C46   C56   A    
C2    C23   S    
C28   C40   S    
C30   C42   S    
C3    C22   S    
C15   C46   S    
C15   O13   A    
C18   C43   S    
Cr5   O17   S    
C12   C54   S    
C36   H6    S    
C32   C34   A    
C9    O35   S    
