data_mof_unit_48926.cif
_audit_creation_date              2012-12-11T15:46:50-0500
_audit_creation_method            fapswitch 2.2
_symmetry_space_group_name_H-M    P1
_symmetry_Int_Tables_number       1
_space_group_crystal_system       triclinic
_cell_length_a                    11.538073
_cell_length_b                    11.527873
_cell_length_c                    19.559817
_cell_angle_alpha                 90.460472
_cell_angle_beta                  90.059399
_cell_angle_gamma                 59.948214
_cell_volume                      2251.82380962

loop_
_atom_site_label
_atom_site_type_symbol
_atom_type_description
_atom_site_fract_x
_atom_site_fract_y
_atom_site_fract_z
_atom_type_partial_charge
C1    C     C_R   0.640468 0.117348 0.599282 0.546516
C2    C     C_1   0.641289 0.703892 0.668024 0.003857
C3    C     C_1   0.126714 0.198775 0.859280 0.003898
C4    C     C_1   0.171538 0.170239 0.727725 -0.030783
C5    C     C_1   0.150168 0.182259 0.798940 -0.030698
C6    C     C_1   0.195319 0.160865 0.667407 0.003407
C7    C     C_1   0.678593 0.191298 0.860758 0.004040
C8    C     C_1   0.658550 0.167205 0.729039 -0.030808
C9    C     C_1   0.665679 0.180916 0.800331 -0.030569
C10   C     C_1   0.652982 0.149646 0.668662 0.003421
C11   C     C_R   0.649556 0.691336 0.187041 0.018149
C12   C     C_R   0.612509 0.745950 0.598656 0.545901
C13   C     C_R   0.530207 0.724407 0.221431 0.029851
C14   C     C_R   0.525084 0.734273 0.290998 0.043776
C15   C     C_R   0.744560 0.710009 0.294051 -0.161358
C16   C     C_R   0.750769 0.700086 0.222748 -0.164801
C17   C     C_3   0.443609 0.660720 0.221967 -0.268737
C18   C     C_3   0.440478 0.671199 0.298916 -0.276330
C19   C     C_R   0.635440 0.714919 0.328797 0.018770
C20   C     C_R   0.160713 0.188237 0.187451 0.015845
C21   C     C_R   0.192845 0.272800 0.223783 0.026116
C22   C     C_R   0.217554 0.255753 0.292448 0.044212
C23   C     C_R   0.240973 0.145292 0.598211 0.546538
C24   C     C_R   0.202777 0.055037 0.290227 -0.162508
C25   C     C_R   0.178962 0.071126 0.219623 -0.161564
C26   C     C_3   0.120966 0.422354 0.230934 -0.272429
C27   C     C_3   0.149335 0.402827 0.306757 -0.272825
C28   C     C_R   0.211603 0.154281 0.328144 0.016107
C29   C     C_R   0.667267 0.176583 0.190098 0.016239
C30   C     C_R   0.753761 0.053316 0.221007 0.031841
C31   C     C_R   0.746356 0.036011 0.289701 0.037848
C32   C     C_R   0.551650 0.255662 0.298617 -0.156895
C33   C     C_R   0.557788 0.273245 0.228155 -0.165386
C34   C     C_R   0.643142 0.111178 0.401498 0.544029
C35   C     C_3   0.903817 0.969362 0.221947 -0.266579
C36   C     C_3   0.894126 0.951107 0.297752 -0.277692
C37   C     C_R   0.653847 0.140197 0.330712 0.016959
C38   C     C_R   0.081818 0.231129 0.928578 0.546776
C39   C     C_R   0.683916 0.604450 0.929487 0.545272
C40   C     C_R   0.708379 0.206665 0.930114 0.546728
C41   C     C_R   0.085600 0.234587 0.124358 0.545564
C42   C     C_R   0.680644 0.615843 0.124012 0.546446
C43   C     C_R   0.707407 0.209785 0.126194 0.545990
C44   C     C_R   0.614577 0.743602 0.400841 0.542819
C45   C     C_R   0.248669 0.138555 0.399822 0.543785
C46   C     C_1   0.670396 0.646470 0.860114 0.004595
C47   C     C_1   0.654810 0.683679 0.728446 -0.031128
C48   C     C_1   0.663465 0.666667 0.799690 -0.030962
Cr1   Cr    Cr6+3 0.404720 0.198220 0.499960 1.024551
Cr2   Cr    Cr6+3 0.698290 0.897110 0.500380 1.025843
Cr3   Cr    Cr6+3 0.396970 0.904720 0.499610 1.025557
Cr4   Cr    Cr6+3 0.926290 0.152010 0.028150 1.021914
Cr5   Cr    Cr6+3 0.921440 0.451830 0.027490 1.023808
Cr6   Cr    Cr6+3 0.626370 0.446880 0.028730 1.022246
H1    H     H_    0.174524 0.467274 0.204834 0.132299
H2    H     H_    0.220200 0.435466 0.324396 0.136534
H3    H     H_    0.057522 0.439070 0.338558 0.136490
H4    H     H_    0.469913 0.333661 0.328004 0.127077
H5    H     H_    0.483161 0.365409 0.204913 0.117109
H6    H     H_    0.953804 0.028011 0.211036 0.159486
H7    H     H_    0.941310 0.874850 0.191959 0.131152
H8    H     H_    0.925535 0.846230 0.311567 0.134962
H9    H     H_    0.937656 0.999763 0.329886 0.136558
H10   H     H_    0.495885 0.554854 0.204600 0.165199
H11   H     H_    0.344243 0.725608 0.198157 0.127835
H12   H     H_    0.339489 0.740951 0.319865 0.137168
H13   H     H_    0.494331 0.572185 0.324523 0.134251
H14   H     H_    0.208283 0.969310 0.315302 0.122955
H15   H     H_    0.164163 0.998163 0.191754 0.120657
O1    O     O_R   0.267750 0.231960 0.575440 -0.505159
O2    O     O_R   0.685950 0.784660 0.430010 -0.507626
O3    O     O_R   0.502510 0.767000 0.423980 -0.518000
O4    O     O_R   0.288320 0.026340 0.429250 -0.505511
O5    O     O_3   0.499990 0.000020 0.499980 -0.254257
O6    O     O_R   0.821590 0.119350 0.952850 -0.505016
O7    O     O_R   0.037230 0.162540 0.957390 -0.494253
O8    O     O_R   0.056530 0.344750 0.951370 -0.504517
O9    O     O_R   0.798000 0.560370 0.957490 -0.494256
O10   O     O_R   0.596230 0.579400 0.952760 -0.505054
O11   O     O_R   0.639160 0.321170 0.958690 -0.493305
O12   O     O_R   0.527290 0.186640 0.570530 -0.494223
O13   O     O_R   0.821370 0.124220 0.104400 -0.522305
O14   O     O_R   0.037020 0.167050 0.097880 -0.510131
O15   O     O_R   0.056310 0.349620 0.102920 -0.518665
O16   O     O_R   0.797790 0.564880 0.097980 -0.508830
O17   O     O_R   0.596000 0.584270 0.104310 -0.524858
O18   O     O_R   0.638950 0.325690 0.099180 -0.507853
O19   O     O_3   0.824700 0.350240 0.028120 -0.250726
O20   O     O_R   0.728110 0.003450 0.576380 -0.504876
O21   O     O_R   0.682980 0.789190 0.570500 -0.493821
O22   O     O_R   0.499300 0.771880 0.575540 -0.504801
O23   O     O_R   0.285350 0.030870 0.569740 -0.493406
O24   O     O_R   0.270960 0.227070 0.423890 -0.518290
O25   O     O_R   0.530270 0.182120 0.430040 -0.508110
O26   O     O_R   0.731320 0.998570 0.424830 -0.515812
H16   H     H_    0.826528 0.708364 0.321791 0.126876
H17   H     H_    0.840024 0.685309 0.196792 0.122495
H18   H     H_    0.012671 0.469279 0.219368 0.157397

loop_
_geom_bond_atom_site_label_1
_geom_bond_atom_site_label_2
_ccdc_geom_bond_type
C21   C26   S    
C34   C37   S    
C14   C18   S    
C12   O22   A    
C35   C36   S    
Cr3   O5    S    
C32   H4    S    
Cr4   O6    S    
C2    C12   S    
C26   H1    S    
C20   C41   S    
C38   O7    A    
C15   C19   A    
C26   C27   S    
C30   C35   S    
C44   O2    A    
Cr5   O15   S    
C12   O21   A    
Cr2   O5    S    
C17   H10   S    
C30   C31   A    
C16   H17   S    
C20   C25   A    
C1    O12   A    
C15   C16   A    
C41   O14   A    
C29   C33   A    
C11   C42   S    
C45   O4    A    
Cr1   O12   S    
Cr3   O22   S    
Cr2   O21   S    
C3    C38   S    
C8    C9    S    
C7    C40   S    
C40   O11   A    
C42   O17   A    
Cr1   O25   S    
C36   H9    S    
C24   C28   A    
C31   C36   S    
C45   O24   A    
C33   H5    S    
C22   C28   A    
C21   C22   A    
C29   C43   S    
C23   O1    A    
C36   H8    S    
Cr6   O11   S    
C46   C48   T    
C28   C45   S    
C39   O9    A    
Cr3   O4    S    
Cr4   O19   S    
C24   C25   A    
C4    C6    T    
C27   H3    S    
C15   H16   S    
Cr6   O17   S    
C27   H2    S    
Cr4   O7    S    
C18   H13   S    
C41   O15   A    
C31   C37   A    
C35   H6    S    
C39   O10   A    
Cr4   O14   S    
Cr5   O8    S    
Cr2   O2    S    
C29   C30   A    
Cr3   O23   S    
C11   C16   A    
Cr2   O20   S    
C47   C48   S    
C17   C18   S    
C35   H7    S    
C42   O16   A    
C32   C37   A    
C34   O26   A    
Cr4   O13   S    
C26   H18   S    
C39   C46   S    
Cr1   O1    S    
C25   H15   S    
Cr3   O3    S    
C19   C44   S    
Cr6   O10   S    
C7    C9    T    
C1    O20   A    
Cr1   O5    S    
C14   C19   A    
C1    C10   S    
C34   O25   A    
C4    C5    S    
C3    C5    T    
C38   O8    A    
C2    C47   T    
C18   H12   S    
C17   H11   S    
C40   O6    A    
C13   C17   S    
C22   C27   S    
C43   O18   A    
C32   C33   A    
Cr5   O9    S    
Cr6   O19   S    
C11   C13   A    
Cr6   O18   S    
C6    C23   S    
C44   O3    A    
Cr5   O19   S    
Cr2   O26   S    
C24   H14   S    
C20   C21   A    
C8    C10   T    
C43   O13   A    
C23   O23   A    
Cr5   O16   S    
Cr1   O24   S    
C13   C14   A    
