data_mof_unit_38494.cif
_audit_creation_date              2012-12-10T16:48:40-0500
_audit_creation_method            fapswitch 2.2
_symmetry_space_group_name_H-M    P1
_symmetry_Int_Tables_number       1
_space_group_crystal_system       triclinic
_cell_length_a                    7.7642
_cell_length_b                    8.585207
_cell_length_c                    10.864336
_cell_angle_alpha                 88.286622
_cell_angle_beta                  99.768933
_cell_angle_gamma                 93.317171
_cell_volume                      712.342035038

loop_
_atom_site_label
_atom_site_type_symbol
_atom_type_description
_atom_site_fract_x
_atom_site_fract_y
_atom_site_fract_z
_atom_type_partial_charge
C1    C     C_R   0.544583 0.794707 0.496789 0.950865
C2    C     C_2   0.431929 0.041922 0.505101 -0.371879
C3    C     C_2   0.650084 0.656500 0.106190 0.456309
C4    C     C_2   0.349884 0.343515 0.893798 0.456305
C5    C     C_R   0.455417 0.205293 0.503211 0.950861
C6    C     C_R   0.573130 0.488527 0.735382 0.890594
C7    C     C_R   0.426870 0.511470 0.264619 0.890579
C8    C     C_2   0.619810 0.494090 0.869288 -0.407245
C9    C     C_2   0.380183 0.505889 0.130713 -0.407196
C10   C     C_2   0.495497 0.460502 0.939777 0.000958
C11   C     C_2   0.504482 0.539506 0.060214 0.000963
C12   C     C_2   0.568071 0.958078 0.494899 -0.371878
H1    H     H_    0.258062 0.442119 0.096974 0.218184
H2    H     H_    0.741947 0.557820 0.903041 0.218220
H3    H     H_    0.696809 0.008867 0.485115 0.185016
H4    H     H_    0.303191 0.991133 0.514884 0.185016
H5    H     H_    0.985387 0.385495 0.407804 0.203620
H6    H     H_    0.014613 0.614505 0.592196 0.203622
H7    H     H_    0.619371 0.766221 0.142396 0.045749
H8    H     H_    0.380572 0.233777 0.857628 0.045772
N1    N     N_2   0.940600 0.458860 0.467170 -0.155793
N2    N     N_2   0.059400 0.541140 0.532830 -0.155794
O1    O     O_R   0.391630 0.738350 0.508060 -0.611056
O2    O     O_2   0.196706 0.373837 0.886392 -0.566371
O3    O     O_R   0.608370 0.261650 0.491940 -0.611056
O4    O     O_R   0.674540 0.711990 0.487010 -0.632479
O5    O     O_R   0.325460 0.288010 0.512990 -0.632482
O6    O     O_R   0.411370 0.508250 0.688780 -0.587920
O7    O     O_R   0.588630 0.491750 0.311220 -0.587913
O8    O     O_R   0.694270 0.481880 0.667740 -0.601236
O9    O     O_R   0.305730 0.518120 0.332260 -0.601240
O10   O     O_2   0.803264 0.626172 0.113601 -0.566364
Zn1   Zn    Zn3+2 0.311100 0.517600 0.514050 0.982632
Zn2   Zn    Zn3+2 0.688900 0.482400 0.485950 0.982636

loop_
_geom_bond_atom_site_label_1
_geom_bond_atom_site_label_2
_ccdc_geom_bond_type
C6    C8    S    
O9    Zn1   S    
C3    H7    S    
C7    O7    A    
C2    H4    S    
C12   H3    S    
O3    Zn2   S    
C2    C12   D    
H6    N2    S    
N1    N2    D    
O5    Zn1   S    
C9    C11   D    
C1    O4    A    
C1    C12   S    
C5    O3    A    
C6    O8    A    
O6    Zn1   S    
C1    O1    A    
C3    O10   D    
C4    O2    D    
C6    O6    A    
C2    C5    S    
C7    O9    A    
C10   C11   S    
O8    Zn2   S    
C4    C10   S    
C4    H8    S    
C3    C11   S    
C8    C10   D    
C7    C9    S    
N2    Zn1   S    
C9    H1    S    
C8    H2    S    
N1    Zn2   S    
C5    O5    A    
O7    Zn2   S    
O4    Zn2   S    
H5    N1    S    
O1    Zn1   S    
