data_mof_unit_36717.cif
_audit_creation_date              2012-12-10T17:03:44-0500
_audit_creation_method            fapswitch 2.2
_symmetry_space_group_name_H-M    P1
_symmetry_Int_Tables_number       1
_space_group_crystal_system       triclinic
_cell_length_a                    10.028356
_cell_length_b                    10.745739
_cell_length_c                    13.078378
_cell_angle_alpha                 90.075124
_cell_angle_beta                  69.878381
_cell_angle_gamma                 89.95223
_cell_volume                      1323.33048099

loop_
_atom_site_label
_atom_site_type_symbol
_atom_type_description
_atom_site_fract_x
_atom_site_fract_y
_atom_site_fract_z
_atom_type_partial_charge
C1    C     C_R   0.498573 0.737305 0.503314 0.945339
C2    C     C_R   0.369962 0.478023 0.822584 -0.112389
C3    C     C_2   0.605048 0.067166 0.514243 -0.142306
C4    C     C_R   0.421108 0.492598 0.704287 0.856594
C5    C     C_2   0.504807 0.130949 0.490972 -0.339084
C6    C     C_2   0.609273 0.933205 0.507803 -0.141868
C7    C     C_2   0.492365 0.868651 0.516212 -0.336310
C8    C     C_2   0.107285 0.441386 0.427831 -0.121397
C9    C     C_2   0.958998 0.447940 0.424088 -0.132637
C10   C     C_R   0.500837 0.262656 0.498504 0.923229
C11   C     C_R   0.579045 0.500015 0.295576 0.887846
C12   C     C_R   0.434583 0.466346 0.984090 0.085815
C13   C     C_R   0.763287 0.352868 0.025984 -0.151328
C14   C     C_R   0.628093 0.479685 0.178808 -0.044329
C15   C     C_R   0.234189 0.521241 0.884957 -0.156970
C16   C     C_R   0.194707 0.527572 0.997695 -0.142025
C17   C     C_R   0.294685 0.502481 0.047136 -0.209280
C18   C     C_2   0.811920 0.261460 0.801921 0.887318
C19   C     C_R   0.462652 0.434105 0.874914 0.074093
C20   C     C_R   0.545302 0.455707 0.027234 0.026403
C21   C     C_R   0.666519 0.380728 0.972535 0.061062
C22   C     C_R   0.684238 0.332563 0.868089 -0.051016
C23   C     C_R   0.582121 0.359761 0.820918 -0.253122
C24   C     C_R   0.541045 0.519864 0.122294 0.047613
C25   C     C_R   0.740653 0.398074 0.130207 -0.268476
H1    H     H_    0.807886 0.365808 0.174261 0.160041
H2    H     H_    0.159703 0.551583 0.846622 0.173087
H3    H     H_    0.259932 0.507057 0.134745 0.135397
H4    H     H_    0.088388 0.556652 0.046465 0.152670
H5    H     H_    0.596070 0.320617 0.741569 0.190522
H6    H     H_    0.687788 0.113486 0.536114 0.196913
H7    H     H_    0.025698 0.247003 0.745283 0.348460
H8    H     H_    0.369027 0.623801 0.213860 0.200199
H9    H     H_    0.456018 0.681929 0.086441 0.201711
H10   H     H_    0.425627 0.087814 0.463281 0.154220
H11   H     H_    0.710409 0.887854 0.495930 0.179581
H12   H     H_    0.388468 0.911113 0.535606 0.155781
H13   H     H_    0.184780 0.386784 0.365359 0.158900
H14   H     H_    0.077606 0.555926 0.554418 0.169082
H15   H     H_    0.940556 0.405418 0.354859 0.152795
H16   H     H_    0.867488 0.532533 0.567492 0.176445
H17   H     H_    0.851002 0.289403 0.991700 0.184978
N1    N     N_2   0.148270 0.498670 0.498870 -0.182671
N2    N     N_2   0.852610 0.498640 0.498840 -0.187775
N3    N     N_3   0.467997 0.637038 0.153622 -0.467778
O1    O     O_R   0.386950 0.680940 0.500020 -0.613451
O2    O     O_R   0.947477 0.301769 0.794619 -0.821601
O3    O     O_R   0.613110 0.680900 0.499980 -0.605619
O4    O     O_R   0.330780 0.500000 0.653640 -0.600585
O5    O     O_R   0.556930 0.499960 0.653610 -0.613349
O6    O     O_R   0.386890 0.319100 0.500020 -0.607197
O7    O     O_R   0.613050 0.319060 0.499980 -0.613281
O8    O     O_R   0.443070 0.500040 0.346390 -0.614091
O9    O     O_R   0.669220 0.500000 0.346360 -0.618086
O10   O     O_2   0.798782 0.170747 0.749605 -0.636137
Zn1   Zn    Zn3+2 0.349000 0.500030 0.500020 0.952784
Zn2   Zn    Zn3+2 0.651000 0.499970 0.499980 0.945284

loop_
_geom_bond_atom_site_label_1
_geom_bond_atom_site_label_2
_ccdc_geom_bond_type
C12   C17   A    
C19   C23   A    
C1    O3    A    
C6    C7    D    
O4    Zn1   S    
H8    N3    S    
N2    Zn2   S    
C2    C4    S    
C11   O8    A    
C8    N1    D    
H7    O2    S    
C4    O4    A    
C3    C6    S    
C10   O7    A    
C18   O2    S    
C12   C20   A    
C25   H1    S    
C13   C21   A    
C5    C10   S    
H9    N3    S    
C18   C22   S    
C21   C22   A    
C3    H6    S    
C2    C15   A    
O5    Zn2   S    
C13   C25   A    
C11   O9    A    
C8    H13   S    
C18   O10   D    
C10   O6    A    
C5    H10   S    
C12   C19   A    
C13   H17   S    
C11   C14   S    
C6    H11   S    
C14   C25   A    
C7    H12   S    
H16   N2    S    
C1    O1    A    
O7    Zn2   S    
C24   N3    S    
O1    Zn1   S    
C15   C16   A    
C23   H5    S    
N1    Zn1   S    
O3    Zn2   S    
C20   C21   A    
O6    Zn1   S    
O8    Zn1   S    
C14   C24   A    
C2    C19   A    
C22   C23   A    
C16   C17   A    
C9    N2    D    
H14   N1    S    
C16   H4    S    
C1    C7    S    
C17   H3    S    
C15   H2    S    
C9    H15   S    
C20   C24   A    
C4    O5    A    
C8    C9    S    
C3    C5    D    
O9    Zn2   S    
