data_mof_unit_67413.cif
_audit_creation_date              2012-10-26T19:39:10-0400
_audit_creation_method            fapswitch 2.2
_symmetry_space_group_name_H-M    P1
_symmetry_Int_Tables_number       1
_space_group_crystal_system       triclinic
_cell_length_a                    12.049221
_cell_length_b                    12.569562
_cell_length_c                    7.521343
_cell_angle_alpha                 89.989704
_cell_angle_beta                  107.961125
_cell_angle_gamma                 90.009319
_cell_volume                      1083.6186164

loop_
_atom_site_label
_atom_site_type_symbol
_atom_type_description
_atom_site_fract_x
_atom_site_fract_y
_atom_site_fract_z
_atom_type_partial_charge
Br1   Br    Br    0.613276 0.680849 0.224424 -0.280490
Br2   Br    Br    0.699265 0.000041 0.127215 -0.211011
Br3   Br    Br    0.800735 0.499958 0.872785 -0.211011
Br4   Br    Br    0.199265 0.500041 0.127215 -0.211011
Br5   Br    Br    0.386724 0.319151 0.775575 -0.280491
Br6   Br    Br    0.387223 0.680083 0.774208 -0.281017
Br7   Br    Br    0.612777 0.319917 0.225792 -0.281017
Br8   Br    Br    0.113276 0.180849 0.224425 -0.280491
Br9   Br    Br    0.886724 0.819151 0.775576 -0.280491
Br10  Br    Br    0.887223 0.180083 0.774208 -0.281017
Br11  Br    Br    0.112777 0.819917 0.225791 -0.281017
Br12  Br    Br    0.300735 0.999958 0.872785 -0.211011
C1    C     C_R   0.346545 0.854021 0.454058 0.570272
C2    C     C_2   0.750626 0.785151 0.567681 0.137359
C3    C     C_2   0.750736 0.214709 0.567543 0.137342
C4    C     C_2   0.249264 0.785291 0.432457 0.137342
C5    C     C_2   0.749374 0.714848 0.432319 0.137359
C6    C     C_2   0.250626 0.285151 0.567681 0.137358
C7    C     C_2   0.250736 0.714709 0.567543 0.137341
C8    C     C_2   0.749264 0.285291 0.432457 0.137342
C9    C     C_R   0.653455 0.145979 0.545942 0.570271
C10   C     C_R   0.653433 0.853992 0.545955 0.570262
C11   C     C_R   0.346567 0.146008 0.454045 0.570262
C12   C     C_R   0.846545 0.354021 0.454058 0.570272
C13   C     C_R   0.153454 0.645979 0.545942 0.570271
C14   C     C_R   0.153433 0.353992 0.545955 0.570262
C15   C     C_R   0.846567 0.646008 0.454045 0.570262
C16   C     C_2   0.249374 0.214848 0.432319 0.137359
Cu1   Cu    Cu3+1 0.517640 1.000000 0.687200 1.231210
Cu2   Cu    Cu3+1 0.482360 0.000000 0.312800 1.231210
Cu3   Cu    Cu3+1 0.017640 0.500000 0.687200 1.231210
Cu4   Cu    Cu3+1 0.982360 0.500000 0.312800 1.231210
N1    N     N_2   0.455760 0.000000 0.031460 0.021632
N2    N     N_2   0.544240 1.000000 0.968540 0.021632
N3    N     N_2   0.955760 0.500000 0.031460 0.021632
N4    N     N_2   0.044240 0.500000 0.968540 0.021632
O1    O     O_R   0.398880 0.887420 0.621600 -0.490878
O2    O     O_R   0.630920 0.112580 0.694560 -0.457004
O3    O     O_R   0.630920 0.887420 0.694560 -0.456789
O4    O     O_R   0.369080 0.112580 0.305440 -0.456790
O5    O     O_R   0.869080 0.387420 0.305440 -0.457005
O6    O     O_R   0.130920 0.612580 0.694560 -0.457004
O7    O     O_R   0.130920 0.387420 0.694560 -0.456789
O8    O     O_R   0.869080 0.612580 0.305440 -0.456790
O9    O     O_R   0.601120 0.112580 0.378400 -0.490879
O10   O     O_R   0.601120 0.887420 0.378400 -0.490883
O11   O     O_R   0.398880 0.112580 0.621600 -0.490883
O12   O     O_R   0.898880 0.387420 0.621600 -0.490879
O13   O     O_R   0.101120 0.612580 0.378400 -0.490879
O14   O     O_R   0.101120 0.387420 0.378400 -0.490883
O15   O     O_R   0.898880 0.612580 0.621600 -0.490883
O16   O     O_R   0.369080 0.887420 0.305440 -0.457005

loop_
_geom_bond_atom_site_label_1
_geom_bond_atom_site_label_2
_ccdc_geom_bond_type
Cu1   O2    S    
C13   O6    A    
Br9   C2    S    
Br4   N4    S    
Cu1   Cu2   S    
C12   O5    A    
Cu3   O6    S    
C1    O16   A    
Br11  C4    S    
Cu2   O9    S    
Br1   C5    S    
N3    N4    D    
C6    C14   S    
Br3   N3    S    
Cu3   O12   S    
Cu4   O14   S    
Br2   N2    S    
N1    N2    D    
Cu4   O8    S    
Cu2   O4    S    
C11   C16   S    
Br6   C7    S    
C2    C5    D    
Cu1   O3    S    
Cu3   O7    S    
Cu1   O11   S    
C4    C7    D    
C7    C13   S    
C10   O3    A    
C15   O8    A    
C10   O10   A    
C15   O15   A    
C14   O7    A    
C9    O9    A    
Br10  C3    S    
C14   O14   A    
C3    C8    D    
Br8   C16   S    
C13   O13   A    
Cu4   O13   S    
C11   O11   A    
Cu4   O5    S    
C11   O4    A    
C12   O12   A    
Cu4   N3    S    
C8    C12   S    
C3    C9    S    
C6    C16   D    
C2    C10   S    
Br7   C8    S    
C1    C4    S    
Cu1   O1    S    
Cu2   O16   S    
Cu3   N4    S    
Br5   C6    S    
Cu2   N1    S    
Br12  N1    S    
C1    O1    A    
Cu1   N2    S    
Cu2   O10   S    
C9    O2    A    
Cu3   Cu4   S    
Cu3   O15   S    
C5    C15   S    
