data_mof_unit_53826.cif
_audit_creation_date              2012-12-10T18:21:22-0500
_audit_creation_method            fapswitch 2.2
_symmetry_space_group_name_H-M    P1
_symmetry_Int_Tables_number       1
_space_group_crystal_system       triclinic
_cell_length_a                    14.972023
_cell_length_b                    14.009368
_cell_length_c                    10.635267
_cell_angle_alpha                 89.987768
_cell_angle_beta                  89.753682
_cell_angle_gamma                 90.086616
_cell_volume                      2230.70893321

loop_
_atom_site_label
_atom_site_type_symbol
_atom_type_description
_atom_site_fract_x
_atom_site_fract_y
_atom_site_fract_z
_atom_type_partial_charge
C1    C     C_R   0.326843 0.500017 0.496394 0.872116
C2    C     C_R   0.045772 0.368155 0.634827 -0.206284
C3    C     C_R   0.092623 0.432117 0.557929 0.127308
C4    C     C_R   0.497574 0.500198 0.257568 0.843066
C5    C     C_R   0.046797 0.495859 0.478303 0.023544
C6    C     C_R   0.094102 0.559974 0.399700 0.124587
C7    C     C_R   0.047195 0.622035 0.320356 -0.219611
C8    C     C_R   0.954624 0.622638 0.321150 -0.218292
C9    C     C_R   0.184754 0.434297 0.561090 -0.297158
C10   C     C_R   0.231463 0.499682 0.487147 -0.103393
C11   C     C_R   0.187252 0.561604 0.403550 0.031902
C12   C     C_3   0.584965 0.475646 0.925155 -0.477746
C13   C     C_R   0.546519 0.797591 0.408853 -0.042312
C14   C     C_R   0.546799 0.202566 0.409123 -0.030312
C15   C     C_R   0.453708 0.798414 0.590324 -0.070995
C16   C     C_R   0.453611 0.201433 0.590265 -0.068074
C17   C     C_R   0.453000 0.898926 0.591852 0.040081
C18   C     C_R   0.452961 0.100899 0.591833 0.041177
C19   C     C_R   0.673244 0.500223 0.496565 0.899970
C20   C     C_R   0.500774 0.949409 0.498429 0.037044
C21   C     C_R   0.500789 0.050584 0.498447 0.036190
C22   C     C_R   0.548237 0.898583 0.405374 -0.008243
C23   C     C_R   0.813879 0.563546 0.406048 0.029286
C24   C     C_R   0.548365 0.101567 0.405490 -0.013162
C25   C     C_R   0.405717 0.949759 0.684384 -0.203884
C26   C     C_R   0.405678 0.049870 0.684355 -0.208873
C27   C     C_R   0.595935 0.050935 0.311834 0.052458
C28   C     C_R   0.595857 0.949350 0.311772 0.050986
C29   C     C_R   0.494310 0.500179 0.742011 0.827948
C30   C     C_3   0.475718 0.604081 0.073343 -0.396735
C31   C     C_3   0.417710 0.434229 0.075188 -0.397770
C32   C     C_3   0.466397 0.603769 0.929943 -0.040564
C33   C     C_3   0.424563 0.422348 0.931534 -0.050994
C34   C     C_R   0.768786 0.500495 0.488090 -0.111705
C35   C     C_3   0.584815 0.466828 0.068834 -0.425832
C36   C     C_3   0.493889 0.501083 0.121377 0.112986
C37   C     C_3   0.489511 0.501050 0.878293 0.098679
C38   C     C_R   0.814793 0.434719 0.561510 -0.289875
C39   C     C_R   0.906962 0.432427 0.558277 0.124207
C40   C     C_R   0.953531 0.496137 0.478650 0.024099
C41   C     C_R   0.906992 0.560927 0.400953 0.126563
C42   C     C_R   0.953122 0.368253 0.634918 -0.209097
H1    H     H_    0.532343 0.651736 0.099663 0.169809
H2    H     H_    0.417099 0.241278 0.660926 0.131076
H3    H     H_    0.368742 0.912064 0.756812 0.145517
H4    H     H_    0.368663 0.087409 0.756750 0.140302
H5    H     H_    0.517177 0.654991 0.893108 0.172607
H6    H     H_    0.455889 0.351466 0.913545 0.169708
H7    H     H_    0.640396 0.510239 0.107966 0.163096
H8    H     H_    0.596581 0.391134 0.096059 0.187343
H9    H     H_    0.633481 0.531853 0.895830 0.177902
H10   H     H_    0.608620 0.407133 0.883653 0.183670
H11   H     H_    0.778492 0.386588 0.623414 0.158057
H12   H     H_    0.422305 0.362444 0.119581 0.176657
H13   H     H_    0.283320 0.584150 0.270581 0.173267
H14   H     H_    0.267739 0.676682 0.372832 0.219050
H15   H     H_    0.711434 0.084151 0.221244 0.186913
H16   H     H_    0.619076 0.084188 0.128839 0.183606
H17   H     H_    0.711382 0.916256 0.221383 0.186344
H18   H     H_    0.619109 0.916265 0.128767 0.185254
H19   H     H_    0.415162 0.634009 0.119819 0.175044
H20   H     H_    0.351988 0.464888 0.102976 0.162249
H21   H     H_    0.361037 0.617149 0.801886 0.191269
H22   H     H_    0.328056 0.620362 0.953923 0.188513
H23   H     H_    0.080781 0.318893 0.695774 0.146969
H24   H     H_    0.341067 0.414563 0.775891 0.181296
H25   H     H_    0.296685 0.477116 0.896876 0.188809
H26   H     H_    0.736190 0.681082 0.382105 0.214061
H27   H     H_    0.717468 0.591534 0.276554 0.176043
H28   H     H_    0.917577 0.319029 0.695884 0.144806
H29   H     H_    0.220400 0.386175 0.623054 0.153983
H30   H     H_    0.081600 0.671524 0.258635 0.175740
H31   H     H_    0.920805 0.672538 0.259929 0.175962
H32   H     H_    0.582050 0.756192 0.338935 0.154280
H33   H     H_    0.582742 0.244106 0.339595 0.160571
H34   H     H_    0.417247 0.758493 0.660996 0.143123
N1    N     N_R   0.500070 0.750030 0.500050 -0.112837
N2    N     N_R   0.500070 0.249970 0.500050 -0.112190
N3    N     N_3   0.235768 0.623918 0.320140 -0.478987
N4    N     N_3   0.644027 0.103058 0.217029 -0.487659
N5    N     N_3   0.643928 0.897350 0.216994 -0.488930
N6    N     N_3   0.378564 0.640872 0.891485 -0.476554
N7    N     N_3   0.335654 0.418305 0.873592 -0.481835
N8    N     N_3   0.766370 0.628826 0.326329 -0.477361
O1    O     O_R   0.367860 0.580280 0.500020 -0.631783
O2    O     O_R   0.367860 0.419720 0.500020 -0.618485
O3    O     O_R   0.500000 0.580270 0.314790 -0.640571
O4    O     O_R   0.500000 0.419730 0.314790 -0.629954
O5    O     O_R   0.632160 0.580270 0.499960 -0.623549
O6    O     O_R   0.632160 0.419730 0.499960 -0.614895
O7    O     O_R   0.500030 0.580270 0.685200 -0.627715
O8    O     O_R   0.500030 0.419730 0.685200 -0.632343
Zn1   Zn    Zn3+2 0.500020 0.607200 0.499990 0.923652
Zn2   Zn    Zn3+2 0.500020 0.392800 0.499990 0.935814

loop_
_geom_bond_atom_site_label_1
_geom_bond_atom_site_label_2
_ccdc_geom_bond_type
C4    C36   S    
H25   N7    S    
C18   C21   A    
C35   C36   S    
C18   C26   A    
C24   C27   A    
C2    H23   S    
C7    C8    A    
C4    O3    A    
C15   N1    A    
H14   N3    S    
C3    C9    A    
N2    Zn2   S    
C38   C39   A    
C42   H28   S    
C17   C20   A    
C14   C24   A    
C12   C37   S    
O2    Zn2   S    
H24   N7    S    
O1    Zn1   S    
C35   H7    S    
C31   C33   S    
C9    C10   A    
C16   H2    S    
H16   N4    S    
C15   H34   S    
C22   C28   A    
H15   N4    S    
C12   H10   S    
O6    Zn2   S    
C39   C42   A    
C13   N1    A    
C1    O1    A    
O4    Zn2   S    
C23   N8    S    
H21   N6    S    
H26   N8    S    
H17   N5    S    
C8    C41   A    
C27   N4    S    
C31   H20   S    
C7    H30   S    
C25   C26   A    
C33   C37   S    
C19   O5    A    
O7    Zn1   S    
H13   N3    S    
H18   N5    S    
C23   C34   A    
C35   H8    S    
O8    Zn2   S    
C32   C37   S    
C13   H32   S    
C12   C35   S    
C33   N7    S    
H22   N6    S    
C11   N3    S    
C40   C41   A    
C20   C22   A    
C6    C11   A    
C32   H5    S    
C30   H1    S    
C30   H19   S    
C21   C24   A    
C25   H3    S    
C29   O7    A    
C12   H9    S    
C1    O2    A    
C15   C17   A    
C28   N5    S    
C34   C38   A    
C1    C10   S    
C9    H29   S    
C3    C5    A    
C19   C34   S    
C6    C7    A    
C4    O4    A    
C32   N6    S    
C23   C41   A    
C30   C36   S    
C17   C25   A    
C14   H33   S    
C2    C3    A    
H27   N8    S    
C30   C32   S    
C5    C6    A    
C38   H11   S    
C2    C42   A    
O3    Zn1   S    
N1    Zn1   S    
C8    H31   S    
C13   C22   A    
C16   N2    A    
C14   N2    A    
C31   H12   S    
O5    Zn1   S    
C10   C11   A    
C26   H4    S    
C39   C40   A    
C20   C21   A    
C16   C18   A    
C5    C40   A    
C29   C37   S    
C27   C28   A    
C19   O6    A    
C33   H6    S    
C31   C36   S    
C29   O8    A    
