data_mof_unit_54671.cif
_audit_creation_date              2012-12-10T17:26:25-0500
_audit_creation_method            fapswitch 2.2
_symmetry_space_group_name_H-M    P1
_symmetry_Int_Tables_number       1
_space_group_crystal_system       triclinic
_cell_length_a                    10.143939
_cell_length_b                    10.72537
_cell_length_c                    27.030839
_cell_angle_alpha                 89.577093
_cell_angle_beta                  80.982943
_cell_angle_gamma                 94.738575
_cell_volume                      2893.99821466

loop_
_atom_site_label
_atom_site_type_symbol
_atom_type_description
_atom_site_fract_x
_atom_site_fract_y
_atom_site_fract_z
_atom_type_partial_charge
C1    C     C_R   0.555257 0.732827 0.499526 0.975760
C2    C     C_R   0.536678 0.687578 0.120452 -0.039536
C3    C     C_R   0.503710 0.511291 0.648194 -0.261021
C4    C     C_R   0.508798 0.523841 0.351180 -0.248343
C5    C     C_R   0.595138 0.725671 0.015190 0.044150
C6    C     C_R   0.732492 0.544584 0.955399 0.042674
C7    C     C_R   0.705199 0.527659 0.008125 0.046315
C8    C     C_R   0.613684 0.737420 0.962116 0.044078
C9    C     C_R   0.635381 0.617661 0.037725 0.078384
C10   C     C_R   0.677090 0.643496 0.932843 0.080047
C11   C     C_R   0.531818 0.815106 0.046740 -0.202086
C12   C     C_R   0.444774 0.266821 0.505633 0.958077
C13   C     C_R   0.810057 0.463750 0.923923 -0.199687
C14   C     C_R   0.503342 0.796184 0.098306 -0.113778
C15   C     C_R   0.816347 0.469301 0.872182 -0.102736
C16   C     C_R   0.500105 0.500544 0.594489 0.933059
C17   C     C_R   0.501349 0.504174 0.405401 0.951758
C18   C     C_R   0.566996 0.837359 0.936846 -0.199790
C19   C     C_R   0.738284 0.419530 0.032142 -0.202198
C20   C     C_2   0.585260 0.864941 0.505851 -0.411739
C21   C     C_2   0.415476 0.134150 0.515837 -0.384522
C22   C     C_2   0.489862 0.932552 0.529187 0.575174
C23   C     C_R   0.680799 0.645559 0.880391 -0.043866
C24   C     C_2   0.512549 0.066204 0.526866 0.502953
C25   C     C_2   0.927083 0.510033 0.503973 0.113411
C26   C     C_2   0.072906 0.490006 0.496016 0.104074
C27   C     C_R   0.609465 0.726318 0.806337 0.589008
C28   C     C_R   0.604048 0.471448 0.165007 0.622238
C29   C     C_R   0.728046 0.548411 0.800214 0.572624
C30   C     C_R   0.506747 0.666895 0.172394 0.603197
C31   C     C_R   0.574724 0.442782 0.724952 -0.042701
C32   C     C_R   0.625563 0.613252 0.271447 -0.063486
C33   C     C_R   0.559533 0.420710 0.674621 -0.221310
C34   C     C_R   0.603447 0.598305 0.090372 -0.046074
C35   C     C_R   0.616246 0.600432 0.323762 -0.198121
C36   C     C_R   0.446709 0.611536 0.673906 0.585490
C37   C     C_R   0.410199 0.463574 0.326685 0.584710
C38   C     C_R   0.464382 0.632814 0.723624 -0.149097
C39   C     C_R   0.418533 0.475096 0.274436 -0.133045
C40   C     C_R   0.559082 0.565197 0.743872 0.073636
C41   C     C_R   0.527580 0.549628 0.246968 0.091405
C42   C     C_2   0.362746 0.700692 0.756058 1.065542
C43   C     C_2   0.313335 0.408948 0.249041 1.037711
C44   C     C_2   0.718228 0.668535 0.349649 1.038928
C45   C     C_R   0.622024 0.739064 0.857023 -0.021898
C46   C     C_2   0.588250 0.299841 0.651139 1.046934
C47   C     C_2   0.735836 0.695847 0.241907 0.988827
C48   C     C_2   0.575699 0.335405 0.760450 0.989172
C49   C     C_R   0.637141 0.489048 0.113007 -0.026902
C50   C     C_R   0.571669 0.838112 0.885087 -0.118771
C51   C     C_R   0.704507 0.400707 0.083543 -0.120915
C52   C     C_R   0.744711 0.554821 0.850585 -0.030633
F1    F     F_    0.371952 0.686406 0.650849 -0.551440
F2    F     F_    0.306643 0.392300 0.354029 -0.599930
F3    F     F_    0.109738 0.635081 0.553058 -0.491094
F4    F     F_    0.890308 0.365018 0.446908 -0.505126
F5    F     F_    0.637522 0.117835 0.531414 -0.615009
F6    F     F_    0.366911 0.880410 0.550811 -0.564691
H1    H     H_    0.315952 0.091088 0.513311 0.188679
H2    H     H_    0.865891 0.394144 0.938194 0.150863
H3    H     H_    0.521582 0.914481 0.955934 0.147372
H4    H     H_    0.786125 0.344868 0.012040 0.147557
H5    H     H_    0.253746 0.716147 0.824593 0.348423
H6    H     H_    0.212830 0.401187 0.190137 0.359375
H7    H     H_    0.757298 0.796901 0.400558 0.353773
H8    H     H_    0.513408 0.137322 0.625727 0.380462
H9    H     H_    0.882867 0.716263 0.182107 0.358037
H10   H     H_    0.637680 0.165880 0.773486 0.365118
H11   H     H_    0.683706 0.908161 0.489975 0.184246
H12   H     H_    0.110524 0.421683 0.469157 0.176099
H13   H     H_    0.889450 0.578352 0.530830 0.148916
H14   H     H_    0.528826 0.912986 0.867581 0.191608
H15   H     H_    0.731053 0.315793 0.100082 0.196011
H16   H     H_    0.453759 0.867070 0.120774 0.200673
H17   H     H_    0.870923 0.401612 0.849574 0.198584
H18   H     H_    0.501832 0.900991 0.032916 0.147026
N1    N     N_R   0.632147 0.614166 0.783578 -0.304615
N2    N     N_R   0.541927 0.560787 0.193485 -0.320698
N3    N     N_2   0.842700 0.448890 0.480020 0.154141
N4    N     N_2   0.157300 0.551110 0.519980 0.145653
O1    O     O_R   0.431060 0.692470 0.504020 -0.507532
O2    O     O_2   0.636464 0.367572 0.187211 -0.522175
O3    O     O_2   0.444429 0.752440 0.201786 -0.510028
O4    O     O_2   0.806180 0.478240 0.768644 -0.512859
O5    O     O_2   0.311641 0.787453 0.738971 -0.490572
O6    O     O_R   0.323356 0.663192 0.806243 -0.806406
O7    O     O_2   0.249150 0.314491 0.268206 -0.498619
O8    O     O_R   0.286267 0.454568 0.203414 -0.802200
O9    O     O_2   0.836521 0.650425 0.338303 -0.550537
O10   O     O_R   0.678665 0.754776 0.386316 -0.800625
O11   O     O_2   0.703167 0.269631 0.643309 -0.490119
O12   O     O_R   0.568940 0.307530 0.495980 -0.505552
O13   O     O_R   0.483154 0.220702 0.638232 -0.781944
O14   O     O_2   0.759578 0.803231 0.254964 -0.558040
O15   O     O_R   0.811922 0.651012 0.199129 -0.789411
O16   O     O_2   0.514761 0.338853 0.803164 -0.620364
O17   O     O_R   0.645495 0.231359 0.745695 -0.717353
O18   O     O_R   0.651120 0.659650 0.491200 -0.647489
O19   O     O_R   0.348880 0.340350 0.508800 -0.634442
O20   O     O_R   0.389980 0.516390 0.577660 -0.517235
O21   O     O_R   0.610020 0.483610 0.422340 -0.590191
O22   O     O_R   0.610040 0.483570 0.564830 -0.645234
O23   O     O_R   0.389960 0.516430 0.435170 -0.596819
O24   O     O_2   0.580130 0.825190 0.780321 -0.541127
Zn1   Zn    Zn3+2 0.353060 0.521910 0.508560 1.165767
Zn2   Zn    Zn3+2 0.646940 0.478090 0.491440 1.124015

loop_
_geom_bond_atom_site_label_1
_geom_bond_atom_site_label_2
_ccdc_geom_bond_type
C15   H17   S    
C23   C45   A    
C34   C49   A    
C39   C41   A    
C13   H2    S    
C3    C36   A    
C48   O17   S    
O20   Zn1   S    
F4    N3    S    
C43   O8    S    
C14   H16   S    
C21   H1    S    
C11   H18   S    
C11   C14   A    
C3    C33   A    
C19   H4    S    
C1    O1    A    
C27   O24   S    
C31   C40   A    
C30   O3    S    
C17   O21   A    
H10   O17   S    
C12   O19   A    
C50   H14   S    
C36   F1    S    
C24   F5    S    
C49   C51   A    
C32   C41   A    
C31   C33   A    
C25   H13   S    
C28   N2    A    
C2    C34   A    
C4    C35   A    
H9    O15   S    
C33   C46   S    
H7    O10   S    
O19   Zn1   S    
O1    Zn1   S    
C28   O2    S    
C32   C35   A    
C29   O4    S    
C41   N2    S    
C16   O20   A    
C39   C43   S    
C46   O11   D    
C25   C26   S    
N4    Zn1   S    
C8    C18   A    
N3    Zn2   S    
C5    C9    A    
C28   C49   A    
O23   Zn1   S    
C42   O5    D    
C15   C52   A    
C35   C44   S    
H8    O13   S    
C42   O6    S    
C37   F2    S    
C16   O22   A    
C20   C22   D    
C7    C19   A    
C31   C48   S    
C13   C15   A    
H5    O6    S    
C9    C34   A    
C26   H12   S    
C32   C47   S    
C22   C24   S    
C20   H11   S    
C4    C17   S    
C44   O10   S    
C18   C50   A    
O12   Zn2   S    
O21   Zn2   S    
C7    C9    A    
C1    C20   S    
C48   O16   D    
C25   N3    D    
C12   O12   A    
C51   H15   S    
C27   N1    A    
C1    O18   A    
C22   F6    S    
C5    C8    A    
C18   H3    S    
C5    C11   A    
C6    C7    A    
C10   C23   A    
O18   Zn2   S    
C2    C30   A    
C43   O7    D    
C36   C38   A    
C17   O23   A    
C37   C39   A    
C6    C13   A    
C38   C40   A    
F3    N4    S    
C27   C45   A    
C23   C52   A    
C46   O13   S    
C45   C50   A    
C12   C21   S    
C47   O14   D    
O22   Zn2   S    
C2    C14   A    
C26   N4    D    
C6    C10   A    
C3    C16   S    
C30   N2    A    
C38   C42   S    
C19   C51   A    
C29   N1    A    
C4    C37   A    
C8    C10   A    
C21   C24   D    
C47   O15   S    
C40   N1    S    
H6    O8    S    
C44   O9    D    
C29   C52   A    
