data_mof_unit_49248.cif
_audit_creation_date              2012-12-10T17:43:40-0500
_audit_creation_method            fapswitch 2.2
_symmetry_space_group_name_H-M    P1
_symmetry_Int_Tables_number       1
_space_group_crystal_system       triclinic
_cell_length_a                    14.949375
_cell_length_b                    10.612687
_cell_length_c                    9.923533
_cell_angle_alpha                 92.210382
_cell_angle_beta                  90.284021
_cell_angle_gamma                 91.411405
_cell_volume                      1572.72241088

loop_
_atom_site_label
_atom_site_type_symbol
_atom_type_description
_atom_site_fract_x
_atom_site_fract_y
_atom_site_fract_z
_atom_type_partial_charge
Br1   Br    Br    0.144232 0.888528 0.689872 -0.401685
Br2   Br    Br    0.338944 0.755911 0.742921 -0.388437
Br3   Br    Br    0.749781 0.296524 0.695314 -0.416180
Br4   Br    Br    0.634865 0.694954 0.850249 -0.396394
Br5   Br    Br    0.259863 0.705633 0.302987 -0.399479
Br6   Br    Br    0.083982 0.859876 0.292847 -0.371672
Br7   Br    Br    0.675222 0.137139 0.382471 -0.421225
C1    C     C_R   0.501118 0.260561 0.497026 0.914172
C2    C     C_R   0.186064 0.438518 0.586483 -0.265371
C3    C     C_R   0.231865 0.517255 0.501188 -0.099880
C4    C     C_R   0.327252 0.505960 0.499829 0.887252
C5    C     C_R   0.187882 0.606186 0.423814 0.252853
C6    C     C_R   0.332130 0.136607 0.533699 -0.257490
C7    C     C_R   0.253161 0.078469 0.573903 -0.207934
C8    C     C_R   0.253945 0.956351 0.619240 0.340638
C9    C     C_R   0.333995 0.888809 0.617387 0.199803
C10   C     C_R   0.411711 0.940356 0.553644 0.002928
C11   C     C_R   0.412208 0.069114 0.525844 0.036742
C12   C     C_R   0.905352 0.596086 0.432017 0.066255
C13   C     C_R   0.493205 0.127860 0.488937 -0.132522
C14   C     C_R   0.568211 0.059840 0.451850 0.278398
C15   C     C_R   0.564703 0.931647 0.461255 -0.193484
C16   C     C_R   0.490588 0.738748 0.503349 0.932567
C17   C     C_R   0.488698 0.872263 0.512636 -0.096588
C18   C     C_R   0.384214 0.333974 0.133201 -0.105451
C19   C     C_R   0.326185 0.252744 0.059870 -0.141483
C20   C     C_R   0.324954 0.253660 0.920420 -0.168326
C21   C     C_R   0.382056 0.335367 0.853499 -0.103468
C22   C     C_R   0.442235 0.418632 0.924266 0.134893
C23   C     C_R   0.957559 0.344894 0.670550 -0.115825
C24   C     C_R   0.442726 0.418303 0.068779 0.161533
C25   C     C_R   0.554627 0.578234 0.075823 -0.103373
C26   C     C_R   0.554836 0.578549 0.933120 0.340669
C27   C     C_R   0.672868 0.496891 0.500560 0.961541
C28   C     C_R   0.813159 0.585192 0.426381 -0.240275
C29   C     C_R   0.768510 0.497206 0.503394 -0.108804
C30   C     C_R   0.814623 0.417198 0.587804 0.237564
C31   C     C_R   0.908216 0.424749 0.590723 0.056651
C32   C     C_R   0.953656 0.514750 0.511693 0.043283
C33   C     C_R   0.049909 0.351563 0.669959 -0.186350
C34   C     C_R   0.094492 0.438010 0.589995 0.150659
C35   C     C_R   0.047315 0.522536 0.511420 0.010153
C36   C     C_R   0.093440 0.613356 0.432548 -0.023758
C37   C     C_R   0.041698 0.703894 0.365947 0.340554
C38   C     C_R   0.949022 0.690554 0.362575 -0.205318
H1    H     H_    0.621976 0.877584 0.428785 0.170718
H2    H     H_    0.281805 0.188879 0.111736 0.183729
H3    H     H_    0.279471 0.190653 0.863539 0.169573
H4    H     H_    0.926069 0.275675 0.733048 0.208390
H5    H     H_    0.086669 0.287538 0.730935 0.159038
H6    H     H_    0.381420 0.328088 0.239935 0.193870
H7    H     H_    0.376735 0.330452 0.746681 0.190407
H8    H     H_    0.222210 0.372958 0.646598 0.141714
H9    H     H_    0.910262 0.757618 0.308495 0.193152
H10   H     H_    0.775449 0.648233 0.365250 0.164465
H11   H     H_    0.329579 0.233660 0.504772 0.130484
H12   H     H_    0.191960 0.130942 0.576283 0.178800
H13   H     H_    0.599148 0.642069 0.133240 0.172705
N1    N     N_R   0.499150 0.498800 0.142780 -0.134822
N2    N     N_R   0.499120 0.498720 0.857170 -0.136155
O1    O     O_R   0.500000 0.316780 0.614690 -0.622174
O2    O     O_R   0.499990 0.316750 0.385360 -0.629583
O3    O     O_R   0.367850 0.499980 0.614680 -0.619674
O4    O     O_R   0.367840 0.499960 0.385350 -0.620943
O5    O     O_R   0.500010 0.683250 0.614640 -0.553391
O6    O     O_R   0.500000 0.683220 0.385310 -0.608257
O7    O     O_R   0.632160 0.500040 0.614650 -0.555702
O8    O     O_R   0.632150 0.500020 0.385320 -0.616317
Zn1   Zn    Zn3+2 0.500010 0.500020 0.653130 1.044426
Zn2   Zn    Zn3+2 0.499990 0.499980 0.346870 0.997214

loop_
_geom_bond_atom_site_label_1
_geom_bond_atom_site_label_2
_ccdc_geom_bond_type
C20   H3    S    
C27   O7    A    
C29   C30   A    
C16   C17   S    
C12   C38   A    
C18   C24   A    
C30   C31   A    
Br1   C8    S    
O4    Zn2   S    
C32   C35   A    
Br2   C9    S    
C34   C35   A    
C2    C34   A    
C28   C29   A    
C22   N2    A    
C25   H13   S    
C1    O1    A    
C36   C37   A    
C6    H11   S    
C25   C26   A    
C16   O5    A    
C18   H6    S    
C10   C11   A    
C23   C33   A    
C22   C24   A    
C12   C28   A    
C6    C7    A    
C37   C38   A    
C21   H7    S    
C23   C31   A    
C19   C20   A    
O6    Zn2   S    
C3    C5    A    
N2    Zn1   S    
C1    C13   S    
C33   H5    S    
C6    C11   A    
C16   O6    A    
O8    Zn2   S    
C33   C34   A    
C15   H1    S    
C23   H4    S    
C38   H9    S    
C26   N2    A    
C27   C29   S    
C31   C32   A    
C15   C17   A    
C10   C17   A    
C2    H8    S    
C3    C4    S    
Br4   C26   S    
N1    Zn2   S    
C24   N1    A    
C8    C9    A    
C9    C10   A    
C14   C15   A    
C20   C21   A    
C13   C14   A    
O2    Zn2   S    
C11   C13   A    
C12   C32   A    
C4    O4    A    
C2    C3    A    
O1    Zn1   S    
C35   C36   A    
O5    Zn1   S    
C7    H12   S    
C19   H2    S    
C7    C8    A    
C21   C22   A    
Br6   C37   S    
C25   N1    A    
C18   C19   A    
Br7   C14   S    
C4    O3    A    
C28   H10   S    
C5    C36   A    
O3    Zn1   S    
Br3   C30   S    
C1    O2    A    
C27   O8    A    
O7    Zn1   S    
Br5   C5    S    
