data_mof_unit_43353.cif
_audit_creation_date              2012-12-11T14:10:38-0500
_audit_creation_method            fapswitch 2.2
_symmetry_space_group_name_H-M    P1
_symmetry_Int_Tables_number       1
_space_group_crystal_system       monoclinic
_cell_length_a                    19.77046
_cell_length_b                    17.183206
_cell_length_c                    15.45993
_cell_angle_alpha                 90.0
_cell_angle_beta                  52.354298
_cell_angle_gamma                 90.0
_cell_volume                      4158.58398926

loop_
_atom_site_label
_atom_site_type_symbol
_atom_type_description
_atom_site_fract_x
_atom_site_fract_y
_atom_site_fract_z
_atom_type_partial_charge
C1    C     C_R   0.339011 0.174798 0.050011 -0.101685
C2    C     C_R   0.660989 0.825202 0.949989 -0.101685
C3    C     C_R   0.623863 0.197781 0.006152 -0.145427
C4    C     C_R   0.376137 0.802219 0.993848 -0.145427
C5    C     C_R   0.876137 0.697781 0.993848 -0.145426
C6    C     C_R   0.123863 0.302219 0.006152 -0.145427
C7    C     C_R   0.160989 0.674798 0.949989 -0.101685
C8    C     C_R   0.839011 0.325202 0.050012 -0.101685
C9    C     C_3   0.341166 0.283688 0.529248 0.135628
C10   C     C_3   0.658833 0.716310 0.470754 0.135634
C11   C     C_3   0.751893 0.230167 0.451332 0.129453
C12   C     C_3   0.248107 0.769835 0.548669 0.129452
C13   C     C_3   0.748107 0.730167 0.548668 0.129453
C14   C     C_3   0.251893 0.269836 0.451331 0.129452
C15   C     C_3   0.158834 0.783689 0.470753 0.135630
C16   C     C_3   0.841167 0.216309 0.529246 0.135634
C17   C     C_2   0.290864 0.683442 0.946838 0.558001
C18   C     C_2   0.709136 0.316557 0.053162 0.558000
C19   C     C_2   0.816301 0.746502 0.897799 0.554783
C20   C     C_2   0.183699 0.253498 0.102201 0.554780
C21   C     C_2   0.683699 0.246502 0.102201 0.554783
C22   C     C_2   0.316301 0.753498 0.897799 0.554780
C23   C     C_2   0.209136 0.183443 0.053162 0.558002
C24   C     C_2   0.790864 0.816558 0.946838 0.558001
C25   C     C_R   0.347636 0.829408 0.221034 -0.025566
C26   C     C_R   0.652364 0.170592 0.778966 -0.025565
C27   C     C_R   0.608274 0.802463 0.786362 -0.081446
C28   C     C_R   0.391725 0.197536 0.213639 -0.081445
C29   C     C_R   0.891726 0.302463 0.213638 -0.081447
C30   C     C_R   0.108275 0.697536 0.786362 -0.081446
C31   C     C_R   0.152364 0.329408 0.778966 -0.025566
C32   C     C_R   0.847636 0.670592 0.221034 -0.025566
C33   C     C_R   0.367884 0.888343 0.894737 -0.049979
C34   C     C_R   0.632116 0.111657 0.105263 -0.049979
C35   C     C_R   0.671264 0.914362 0.045850 -0.028731
C36   C     C_R   0.328736 0.085638 0.954149 -0.028730
C37   C     C_R   0.828736 0.414362 0.954150 -0.028731
C38   C     C_R   0.171264 0.585638 0.045850 -0.028731
C39   C     C_R   0.132116 0.388343 0.105262 -0.049979
C40   C     C_R   0.867884 0.611657 0.894737 -0.049979
C41   C     C_R   0.398802 0.105188 0.309446 -0.126219
C42   C     C_R   0.601197 0.894812 0.690555 -0.126217
C43   C     C_R   0.643361 0.078911 0.683208 -0.077225
C44   C     C_R   0.356638 0.921089 0.316792 -0.077224
C45   C     C_R   0.856638 0.578911 0.316792 -0.077225
C46   C     C_R   0.143362 0.421089 0.683208 -0.077224
C47   C     C_R   0.101198 0.605188 0.690554 -0.126219
C48   C     C_R   0.898803 0.394812 0.309445 -0.126217
C49   C     C_R   0.285847 0.146717 0.027153 -0.008332
C50   C     C_R   0.714153 0.853283 0.972846 -0.008333
C51   C     C_R   0.649345 0.188048 0.070600 0.008316
C52   C     C_R   0.350655 0.811952 0.929400 0.008317
C53   C     C_R   0.850655 0.688048 0.929400 0.008316
C54   C     C_R   0.149345 0.311952 0.070600 0.008316
C55   C     C_R   0.214153 0.646717 0.972846 -0.008332
C56   C     C_R   0.785846 0.353283 0.027154 -0.008333
C57   C     C_R   0.306348 0.862542 0.323234 0.166313
C58   C     C_R   0.693652 0.137459 0.676766 0.166313
C59   C     C_R   0.623669 0.819460 0.688926 0.204790
C60   C     C_R   0.376330 0.180539 0.311075 0.204792
C61   C     C_R   0.876331 0.319460 0.311074 0.204790
C62   C     C_R   0.123670 0.680539 0.688925 0.204791
C63   C     C_R   0.193652 0.362542 0.676766 0.166313
C64   C     C_R   0.806348 0.637458 0.323234 0.166313
C65   C     C_3   0.308073 0.205786 0.517305 -0.455749
C66   C     C_3   0.691923 0.794213 0.482696 -0.455751
C67   C     C_3   0.785373 0.152503 0.462145 -0.450997
C68   C     C_3   0.214625 0.847498 0.537856 -0.450994
C69   C     C_3   0.714627 0.652503 0.537855 -0.450997
C70   C     C_3   0.285375 0.347498 0.462144 -0.450994
C71   C     C_3   0.191925 0.705786 0.482695 -0.455749
C72   C     C_3   0.808078 0.294213 0.517304 -0.455751
C73   C     C_3   0.627824 0.691470 0.585907 0.858406
C74   C     C_3   0.372177 0.308528 0.414094 0.858404
C75   C     C_3   0.277773 0.744348 0.436003 0.825552
C76   C     C_3   0.722229 0.255653 0.563998 0.825551
C77   C     C_3   0.222227 0.244348 0.563997 0.825552
C78   C     C_3   0.777771 0.755653 0.436002 0.825553
C79   C     C_3   0.872176 0.191470 0.414093 0.858406
C80   C     C_3   0.127823 0.808529 0.585906 0.858404
C81   C     C_3   0.661624 0.767921 0.596607 -0.242455
C82   C     C_3   0.338375 0.232078 0.403393 -0.242453
C83   C     C_3   0.245322 0.821230 0.423758 -0.237278
C84   C     C_3   0.754678 0.178770 0.576242 -0.237278
C85   C     C_3   0.254677 0.321230 0.576242 -0.237278
C86   C     C_3   0.745323 0.678770 0.423758 -0.237278
C87   C     C_3   0.838377 0.267921 0.403392 -0.242455
C88   C     C_3   0.161624 0.732079 0.596607 -0.242453
H1    H     H_    0.330449 0.224051 0.098599 0.193139
H2    H     H_    0.669551 0.775949 0.901401 0.193138
H3    H     H_    0.615057 0.251398 0.978161 0.200394
H4    H     H_    0.384943 0.748602 0.021838 0.200394
H5    H     H_    0.884943 0.751398 0.021838 0.200394
H6    H     H_    0.115057 0.248602 0.978162 0.200394
H7    H     H_    0.169551 0.724051 0.901401 0.193139
H8    H     H_    0.830449 0.275950 0.098599 0.193139
H9    H     H_    0.327551 0.778881 0.200530 0.132198
H10   H     H_    0.672449 0.221119 0.799470 0.132199
H11   H     H_    0.610031 0.745580 0.814853 0.138763
H12   H     H_    0.389969 0.254420 0.185147 0.138764
H13   H     H_    0.889969 0.245580 0.185146 0.138763
H14   H     H_    0.110031 0.754420 0.814853 0.138763
H15   H     H_    0.172449 0.278881 0.799470 0.132198
H16   H     H_    0.827551 0.721119 0.200530 0.132199
H17   H     H_    0.365374 0.914016 0.832847 0.152011
H18   H     H_    0.634625 0.085984 0.167153 0.152011
H19   H     H_    0.692421 0.949259 0.083460 0.153718
H20   H     H_    0.307579 0.050741 0.916540 0.153718
H21   H     H_    0.807579 0.449259 0.916540 0.153718
H22   H     H_    0.192421 0.550741 0.083460 0.153718
H23   H     H_    0.134626 0.414016 0.167153 0.152011
H24   H     H_    0.865374 0.585984 0.832847 0.152011
H25   H     H_    0.404510 0.077039 0.367254 0.112805
H26   H     H_    0.595489 0.922960 0.632746 0.112804
H27   H     H_    0.654406 0.044716 0.617106 0.112514
H28   H     H_    0.345594 0.955284 0.382894 0.112513
H29   H     H_    0.845594 0.544716 0.382894 0.112514
H30   H     H_    0.154406 0.455284 0.617106 0.112513
H31   H     H_    0.095490 0.577039 0.632746 0.112805
H32   H     H_    0.904511 0.422960 0.367254 0.112804
H33   H     H_    0.316098 0.147371 0.540568 0.202911
H34   H     H_    0.683897 0.852627 0.459434 0.202911
H35   H     H_    0.777429 0.093955 0.439112 0.209301
H36   H     H_    0.222567 0.906046 0.560888 0.209301
H37   H     H_    0.722570 0.593955 0.560888 0.209301
H38   H     H_    0.277434 0.406046 0.439111 0.209301
H39   H     H_    0.183900 0.647371 0.459433 0.202911
H40   H     H_    0.816105 0.352627 0.540565 0.202911
N1    N     N_R   0.408680 0.130810 0.995780 -0.051672
N2    N     N_R   0.591320 0.869190 0.004220 -0.051672
N3    N     N_R   0.591320 0.130810 0.004220 -0.056631
N4    N     N_R   0.408680 0.869190 0.995780 -0.056631
N5    N     N_R   0.908680 0.630810 0.995780 -0.056631
N6    N     N_R   0.091320 0.369190 0.004220 -0.056631
N7    N     N_R   0.091320 0.630810 0.004220 -0.051672
N8    N     N_R   0.908680 0.369190 0.995780 -0.051672
N9    N     N_R   0.421410 0.867210 0.153620 -0.054088
N10   N     N_R   0.578590 0.132790 0.846380 -0.054088
N11   N     N_R   0.578590 0.867210 0.846380 -0.058631
N12   N     N_R   0.421410 0.132790 0.153620 -0.058631
N13   N     N_R   0.921410 0.367210 0.153620 -0.058631
N14   N     N_R   0.078590 0.632790 0.846380 -0.058631
N15   N     N_R   0.078590 0.367210 0.846380 -0.054088
N16   N     N_R   0.921410 0.632790 0.153620 -0.054088
N17   N     N_R   0.403840 0.921910 0.935760 -0.063104
N18   N     N_R   0.596160 0.078090 0.064240 -0.063103
N19   N     N_R   0.596160 0.921910 0.064240 -0.060878
N20   N     N_R   0.403840 0.078090 0.935760 -0.060879
N21   N     N_R   0.903840 0.421910 0.935760 -0.060879
N22   N     N_R   0.096160 0.578090 0.064240 -0.060879
N23   N     N_R   0.096160 0.421910 0.064240 -0.063103
N24   N     N_R   0.903840 0.578090 0.935760 -0.063103
N25   N     N_R   0.426250 0.076100 0.213650 -0.056317
N26   N     N_R   0.573750 0.923900 0.786350 -0.056317
N27   N     N_R   0.573750 0.076100 0.786350 -0.054698
N28   N     N_R   0.426250 0.923900 0.213650 -0.054698
N29   N     N_R   0.926250 0.576100 0.213650 -0.054698
N30   N     N_R   0.073750 0.423900 0.786350 -0.054698
N31   N     N_R   0.073750 0.576100 0.786350 -0.056317
N32   N     N_R   0.926250 0.423900 0.213650 -0.056317
Ni1   Ni    Ni4+2 0.500000 0.131570 0.000000 0.255877
Ni2   Ni    Ni4+2 0.500000 0.868430 0.000000 0.255877
Ni3   Ni    Ni4+2 0.000000 0.631570 0.000000 0.255877
Ni4   Ni    Ni4+2 1.000000 0.368430 0.000000 0.255877
Ni5   Ni    Ni4+2 0.488900 1.000000 0.862310 0.233697
Ni6   Ni    Ni4+2 0.511100 1.000000 0.137690 0.233697
Ni7   Ni    Ni4+2 0.988900 0.500000 0.862310 0.233697
Ni8   Ni    Ni4+2 0.011100 0.500000 0.137690 0.233697
F1    F     F_    0.548572 0.660286 0.666667 -0.643051
F2    F     F_    0.451430 0.339711 0.333333 -0.643050
F3    F     F_    0.356504 0.711044 0.357486 -0.651583
F4    F     F_    0.643499 0.288959 0.642516 -0.651584
F5    F     F_    0.143495 0.211045 0.642514 -0.651583
F6    F     F_    0.856502 0.788958 0.357485 -0.651584
F7    F     F_    0.951428 0.160285 0.333333 -0.643051
F8    F     F_    0.048570 0.839712 0.666667 -0.643050
I1    I     I_    0.409625 0.297690 0.594057 -0.182230
I2    I     I_    0.590372 0.702304 0.405948 -0.182223
I3    I     I_    0.673207 0.241312 0.400655 -0.158392
I4    I     I_    0.326792 0.758694 0.599347 -0.158397
I5    I     I_    0.826793 0.741310 0.599345 -0.158394
I6    I     I_    0.173208 0.258695 0.400652 -0.158397
I7    I     I_    0.090373 0.797691 0.405944 -0.182228
I8    I     I_    0.909629 0.202302 0.594051 -0.182222
F9    F     F_    0.323464 0.651901 0.994857 -0.709177
F10   F     F_    0.676535 0.348099 0.005144 -0.709177
F11   F     F_    0.797110 0.721915 0.831688 -0.707034
F12   F     F_    0.202890 0.278085 0.168311 -0.707034
F13   F     F_    0.702890 0.221915 0.168312 -0.707034
F14   F     F_    0.297110 0.778085 0.831689 -0.707034
F15   F     F_    0.176536 0.151901 0.005143 -0.709178
F16   F     F_    0.823464 0.848099 0.994857 -0.709178

loop_
_geom_bond_atom_site_label_1
_geom_bond_atom_site_label_2
_ccdc_geom_bond_type
N10   N27   A    
C68   C80   S    
C78   C86   S    
C19   F11   S    
C39   N23   A    
N25   Ni6   S    
C36   H20   S    
C18   C21   D    
C34   N18   A    
C8    H8    S    
C7    C55   A    
N14   N31   A    
C72   C76   S    
C75   C83   S    
C16   C72   S    
C68   H36   S    
C47   C62   A    
C23   F15   S    
N8    N21   A    
C65   C82   S    
C4    N4    A    
C47   N31   A    
C33   C52   A    
C5    N5    A    
C12   C68   S    
C27   H11   S    
C34   C51   A    
C72   H40   S    
C3    N3    A    
N4    N17   A    
C5    C53   A    
C42   N26   A    
C6    C54   A    
N2    Ni2   S    
C1    N1    A    
C11   C76   S    
N9    Ni2   S    
C10   C73   S    
C23   C49   S    
C39   C54   A    
C8    N8    A    
N3    Ni1   S    
N23   Ni8   S    
C46   N30   A    
C13   C81   S    
C16   C84   S    
C40   N24   A    
N3    N18   A    
C3    H3    S    
C14   C77   S    
C73   C81   S    
C2    H2    S    
N1    N20   A    
C28   N12   A    
C2    C50   A    
C43   C58   A    
C9    C85   S    
C37   C56   A    
C60   C82   S    
C36   N20   A    
C38   C55   A    
C11   C87   S    
C6    H6    S    
C15   I7    S    
C70   C74   S    
C1    H1    S    
C66   H34   S    
N26   Ni5   S    
C69   C73   S    
C65   H33   S    
C22   F14   S    
C61   C87   S    
C17   C55   S    
C37   H21   S    
C18   C56   S    
N12   N25   A    
C43   H27   S    
C19   C53   S    
C47   H31   S    
C32   H16   S    
N18   Ni6   S    
C69   H37   S    
C67   C84   S    
C63   C85   S    
C8    C56   A    
N20   Ni5   S    
C14   C70   S    
C20   C54   S    
C71   H39   S    
N5    N24   A    
C25   C57   A    
C74   C82   S    
C43   N27   A    
N5    Ni3   S    
N29   Ni8   S    
C79   C87   S    
C14   I6    S    
C11   C67   S    
N30   Ni7   S    
C41   N25   A    
C10   C66   S    
C24   C50   S    
C66   C78   S    
C29   C61   A    
C76   C84   S    
C64   C86   S    
C65   C77   S    
C12   C88   S    
C29   H13   S    
C10   I2    S    
C79   F7    S    
C67   C79   S    
C80   F8    S    
C48   H32   S    
C17   F9    S    
N14   Ni3   S    
C3    C51   A    
C15   C83   S    
N11   N26   A    
C70   H38   S    
N12   Ni1   S    
C62   C88   S    
C18   F10   S    
C27   N11   A    
N9    N28   A    
C34   H18   S    
C25   N9    A    
C42   H26   S    
C36   C49   A    
C7    N7    A    
N19   Ni6   S    
C31   C63   A    
C20   F12   S    
C48   N32   A    
N13   N32   A    
C21   F13   S    
C15   C80   S    
C20   C23   D    
N28   Ni6   S    
C44   C57   A    
N6    N23   A    
C29   N13   A    
C30   H14   S    
C35   C50   A    
C57   C83   S    
N1    Ni1   S    
C24   F16   S    
C35   N19   A    
C26   C58   A    
C32   C64   A    
C28   C60   A    
C33   N17   A    
C15   C71   S    
C26   H10   S    
N17   Ni5   S    
C74   F2    S    
C25   H9    S    
C12   I4    S    
C4    C52   A    
C13   I5    S    
C30   C62   A    
N16   Ni3   S    
C75   F3    S    
C45   N29   A    
C46   H30   S    
C38   H22   S    
C9    C74   S    
C14   C82   S    
C73   F1    S    
N15   Ni4   S    
C21   C51   S    
C72   C87   S    
C9    I1    S    
N21   Ni7   S    
N15   N30   A    
C22   C52   S    
N8    Ni4   S    
C45   H29   S    
C13   C78   S    
C10   C86   S    
C77   F5    S    
N2    N19   A    
C68   C83   S    
N7    Ni3   S    
N11   Ni2   S    
C59   C81   S    
C41   C60   A    
C41   H25   S    
C26   N10   A    
C67   H35   S    
C42   C59   A    
C5    H5    S    
C16   I8    S    
C37   N21   A    
N7    N22   A    
C7    H7    S    
C45   C64   A    
C17   C22   D    
C30   N14   A    
C33   H17   S    
C46   C63   A    
C16   C79   S    
C19   C24   D    
C6    N6    A    
C27   C59   A    
C66   C81   S    
C71   C75   S    
C40   H24   S    
N4    Ni2   S    
C28   H12   S    
C48   C61   A    
C13   C69   S    
N27   Ni5   S    
N22   Ni8   S    
C39   H23   S    
C2    N2    A    
N31   Ni7   S    
N10   Ni1   S    
N32   Ni8   S    
C31   N15   A    
C58   C84   S    
C9    C65   S    
C32   N16   A    
C35   H19   S    
C12   C75   S    
C77   C85   S    
C71   C88   S    
N6    Ni4   S    
C11   I3    S    
N24   Ni7   S    
C44   H28   S    
N13   Ni4   S    
C80   C88   S    
C40   C53   A    
C76   F4    S    
C78   F6    S    
C44   N28   A    
N16   N29   A    
C70   C85   S    
C1    C49   A    
C38   N22   A    
C69   C86   S    
C31   H15   S    
C4    H4    S    
