data_mof_unit_55790.cif
_audit_creation_date              2012-12-10T16:50:59-0500
_audit_creation_method            fapswitch 2.2
_symmetry_space_group_name_H-M    P1
_symmetry_Int_Tables_number       1
_space_group_crystal_system       triclinic
_cell_length_a                    8.071821
_cell_length_b                    8.563783
_cell_length_c                    10.536786
_cell_angle_alpha                 91.515324
_cell_angle_beta                  87.72552
_cell_angle_gamma                 92.6443
_cell_volume                      726.788902134

loop_
_atom_site_label
_atom_site_type_symbol
_atom_type_description
_atom_site_fract_x
_atom_site_fract_y
_atom_site_fract_z
_atom_type_partial_charge
C1    C     C_R   0.543337 0.792647 0.496110 0.853350
C2    C     C_R   0.934902 0.508746 0.075996 -0.081640
C3    C     C_R   0.070148 0.597823 0.028670 -0.147874
C4    C     C_R   0.929850 0.402178 0.971331 -0.147889
C5    C     C_R   0.209239 0.609311 0.103680 -0.172517
C6    C     C_R   0.790760 0.390689 0.896320 -0.172552
C7    C     C_R   0.351671 0.535130 0.062066 0.110868
C8    C     C_R   0.648327 0.464870 0.937934 0.110866
C9    C     C_R   0.353129 0.456189 0.944380 0.087177
C10   C     C_R   0.646870 0.543812 0.055620 0.087172
C11   C     C_R   0.498166 0.553956 0.125822 -0.238138
C12   C     C_R   0.456663 0.207353 0.503888 0.853362
C13   C     C_R   0.501833 0.446044 0.874178 -0.238128
C14   C     C_2   0.001804 0.305110 0.438363 1.170362
C15   C     C_2   0.998215 0.694903 0.561603 1.170480
C16   C     C_2   0.562510 0.954762 0.481318 0.288920
C17   C     C_2   0.437485 0.045237 0.518674 0.288878
C18   C     C_R   0.500934 0.479471 0.738421 0.868524
C19   C     C_R   0.499065 0.520529 0.261578 0.868541
C20   C     C_R   0.203776 0.407599 0.892661 -0.185291
C21   C     C_R   0.796222 0.592402 0.107338 -0.185288
C22   C     C_R   0.065096 0.491256 0.924004 -0.081642
F1    F     F_    0.703488 0.009359 0.418426 -0.632498
F2    F     F_    0.296502 0.990639 0.581559 -0.632532
H1    H     H_    0.957997 0.282983 0.994333 0.176592
H2    H     H_    0.886705 0.842070 0.686894 0.350571
H3    H     H_    0.042002 0.717018 0.005667 0.176597
H4    H     H_    0.199150 0.323999 0.813343 0.182949
H5    H     H_    0.800848 0.676003 0.186657 0.182966
H6    H     H_    0.038876 0.549172 0.836553 0.215934
H7    H     H_    0.961121 0.450829 0.163447 0.215919
H8    H     H_    0.210730 0.690300 0.184572 0.171587
H9    H     H_    0.789269 0.309699 0.815429 0.171578
H10   H     H_    0.113414 0.158014 0.313067 0.350531
N1    N     N_2   0.950330 0.457950 0.466250 -0.244802
N2    N     N_2   0.049670 0.542050 0.533750 -0.244807
O1    O     O_R   0.389250 0.738570 0.508280 -0.580981
O2    O     O_R   0.084971 0.271913 0.322707 -0.827011
O3    O     O_2   0.030514 0.798250 0.485502 -0.540327
O4    O     O_R   0.915149 0.728170 0.677284 -0.827045
O5    O     O_R   0.610750 0.261430 0.491720 -0.580955
O6    O     O_R   0.678390 0.711630 0.486650 -0.594889
O7    O     O_R   0.321610 0.288370 0.513350 -0.594888
O8    O     O_R   0.355430 0.513480 0.694040 -0.629948
O9    O     O_R   0.644570 0.486520 0.305960 -0.629960
O10   O     O_R   0.644570 0.486540 0.672410 -0.601650
O11   O     O_R   0.355430 0.513460 0.327590 -0.601593
O12   O     O_2   0.969429 0.201713 0.514409 -0.540266
Zn1   Zn    Zn3+2 0.306940 0.517990 0.514440 1.000696
Zn2   Zn    Zn3+2 0.693060 0.482010 0.485560 1.000689

loop_
_geom_bond_atom_site_label_1
_geom_bond_atom_site_label_2
_ccdc_geom_bond_type
O8    Zn1   S    
C12   C17   S    
C2    C4    A    
C19   O9    A    
C8    C13   A    
C18   O8    A    
C12   O7    A    
C4    C22   A    
O10   Zn2   S    
C9    C20   A    
N1    N2    D    
C6    H9    S    
C1    O1    A    
C5    H8    S    
C15   O3    D    
N1    Zn2   S    
C3    H3    S    
C2    C3    A    
O11   Zn1   S    
C1    C16   S    
C22   H6    S    
C7    C11   A    
C11   C19   S    
C12   O5    A    
C2    C21   A    
C13   C18   S    
O6    Zn2   S    
C14   O12   D    
C18   O10   A    
C4    C6    A    
C20   C22   A    
C4    H1    S    
C16   F1    S    
C5    C7    A    
C2    H7    S    
C10   C21   A    
C19   O11   A    
C15   O4    S    
C17   F2    S    
C14   O2    S    
C10   C11   A    
C1    O6    A    
H2    O4    S    
O1    Zn1   S    
C8    C10   A    
C14   N1    S    
C7    C9    A    
O5    Zn2   S    
C9    C13   A    
O7    Zn1   S    
C3    C22   A    
C6    C8    A    
O9    Zn2   S    
C20   H4    S    
C15   N2    S    
H10   O2    S    
C21   H5    S    
N2    Zn1   S    
C16   C17   D    
C3    C5    A    
