data_mof_unit_37065.cif
_audit_creation_date              2012-10-26T20:06:11-0400
_audit_creation_method            fapswitch 2.2
_symmetry_space_group_name_H-M    P1
_symmetry_Int_Tables_number       1
_space_group_crystal_system       triclinic
_cell_length_a                    9.508364
_cell_length_b                    10.833941
_cell_length_c                    13.444767
_cell_angle_alpha                 90.164104
_cell_angle_beta                  72.049952
_cell_angle_gamma                 90.02786
_cell_volume                      1317.56756075

loop_
_atom_site_label
_atom_site_type_symbol
_atom_type_description
_atom_site_fract_x
_atom_site_fract_y
_atom_site_fract_z
_atom_type_partial_charge
C1    C     C_R   0.500016 0.737965 0.500091 0.555124
C2    C     C_R   0.371661 0.490354 0.815639 -0.004006
C3    C     C_R   0.627694 0.936248 0.500374 -0.139663
C4    C     C_R   0.420680 0.494271 0.700392 0.536792
C5    C     C_R   0.627721 0.063952 0.500233 -0.143599
C6    C     C_R   0.500043 0.128225 0.499872 0.019417
C7    C     C_R   0.372380 0.063795 0.499587 -0.139406
C8    C     C_R   0.372352 0.936099 0.499729 -0.140575
C9    C     C_R   0.500019 0.871810 0.500094 0.019846
C10   C     C_R   0.899114 0.581403 0.560898 0.013235
C11   C     C_R   0.047943 0.581146 0.561087 0.007570
C12   C     C_R   0.432675 0.481293 0.979892 0.037951
C13   C     C_R   0.100804 0.418410 0.439321 0.008885
C14   C     C_R   0.951802 0.418109 0.439735 0.001232
C15   C     C_R   0.500004 0.262042 0.499892 0.544696
C16   C     C_R   0.579719 0.495115 0.299469 0.549356
C17   C     C_R   0.785537 0.383340 0.024902 -0.112946
C18   C     C_R   0.626316 0.474497 0.185301 0.007899
C19   C     C_R   0.231575 0.537410 0.870045 -0.135206
C20   C     C_R   0.189921 0.552958 0.977713 -0.147315
C21   C     C_R   0.289622 0.528023 0.032155 -0.125046
C22   C     C_3   0.879433 0.385740 0.178816 -0.389026
C23   C     C_R   0.467730 0.451630 0.872057 0.025816
C24   C     C_R   0.541715 0.461672 0.030991 0.024073
C25   C     C_R   0.676487 0.402556 0.976579 0.034244
C26   C     C_R   0.700395 0.360367 0.874818 -0.145196
C27   C     C_R   0.596778 0.382692 0.823861 -0.122658
C28   C     C_R   0.521845 0.500405 0.134041 -0.148526
C29   C     C_R   0.761855 0.417252 0.129274 -0.013163
Cu1   Cu    Cu3+1 0.359340 0.499980 0.500000 0.928791
Cu2   Cu    Cu3+1 0.640660 0.500020 0.500000 0.920813
H1    H     H_    0.727542 0.112056 0.500437 0.123105
H2    H     H_    0.155064 0.565187 0.828971 0.128004
H3    H     H_    0.249858 0.543538 0.115353 0.100238
H4    H     H_    0.080996 0.588389 0.018966 0.124119
H5    H     H_    0.618252 0.342414 0.747025 0.148101
H6    H     H_    0.727483 0.888273 0.500701 0.125548
H7    H     H_    0.833711 0.320437 0.244245 0.141602
H8    H     H_    0.976777 0.340635 0.122559 0.116744
H9    H     H_    0.919533 0.470984 0.207281 0.148069
H10   H     H_    0.916538 0.351841 0.392199 0.097565
H11   H     H_    0.272589 0.111770 0.499260 0.125157
H12   H     H_    0.272522 0.888011 0.499530 0.125330
H13   H     H_    0.821772 0.646543 0.609722 0.113502
H14   H     H_    0.082883 0.646017 0.610077 0.104015
H15   H     H_    0.178021 0.353009 0.390725 0.109642
H16   H     H_    0.800092 0.309927 0.834105 0.108109
H17   H     H_    0.888216 0.338424 0.981635 0.110206
H18   H     H_    0.424344 0.550690 0.177115 0.120988
N1    N     N_R   0.147940 0.499970 0.499970 -0.223519
N2    N     N_R   0.852060 0.500060 0.499990 -0.224886
O1    O     O_R   0.381250 0.680340 0.500010 -0.507257
O2    O     O_R   0.618820 0.680370 0.500010 -0.505463
O3    O     O_R   0.323240 0.499950 0.650980 -0.501540
O4    O     O_R   0.560810 0.499980 0.650980 -0.505939
O5    O     O_R   0.381180 0.319630 0.499990 -0.508324
O6    O     O_R   0.618750 0.319660 0.499990 -0.517799
O7    O     O_R   0.439190 0.500020 0.349020 -0.505382
O8    O     O_R   0.676760 0.500050 0.349020 -0.499346

loop_
_geom_bond_atom_site_label_1
_geom_bond_atom_site_label_2
_ccdc_geom_bond_type
C2    C4    S    
C17   H17   S    
C6    C7    A    
C3    C9    A    
C22   C29   S    
C23   C27   A    
C27   H5    S    
C15   O6    A    
C28   H18   S    
C12   C24   A    
C19   C20   A    
C8    H12   S    
C5    H1    S    
C17   C25   A    
C15   O5    A    
Cu2   O6    S    
Cu1   N1    S    
C22   H9    S    
C7    C8    A    
C11   N1    A    
C16   O7    A    
C13   C14   A    
C24   C25   A    
Cu1   O3    S    
C12   C23   A    
C26   C27   A    
C5    C6    A    
C26   H16   S    
C14   H10   S    
C22   H8    S    
Cu1   O7    S    
C25   C26   A    
C4    O3    A    
C4    O4    A    
Cu1   Cu2   S    
C1    O1    A    
C11   H14   S    
C10   C11   A    
C10   N2    A    
C10   H13   S    
C13   N1    A    
C22   H7    S    
C1    C9    S    
C24   C28   A    
C17   C29   A    
C18   C28   A    
C20   C21   A    
C3    H6    S    
C16   C18   S    
C19   H2    S    
C7    H11   S    
Cu2   O8    S    
C2    C23   A    
C18   C29   A    
Cu1   O1    S    
C13   H15   S    
C1    O2    A    
C21   H3    S    
Cu2   O4    S    
C6    C15   S    
C2    C19   A    
C20   H4    S    
Cu1   O5    S    
C12   C21   A    
Cu2   O2    S    
C14   N2    A    
Cu2   N2    S    
C8    C9    A    
C3    C5    A    
C16   O8    A    
