data_mof_unit_22765.cif
_audit_creation_date              2012-12-10T19:48:30-0500
_audit_creation_method            fapswitch 2.2
_symmetry_space_group_name_H-M    P1
_symmetry_Int_Tables_number       1
_space_group_crystal_system       triclinic
_cell_length_a                    10.820796
_cell_length_b                    10.617628
_cell_length_c                    9.448585
_cell_angle_alpha                 89.05638
_cell_angle_beta                  90.817059
_cell_angle_gamma                 89.205756
_cell_volume                      1085.19367341

loop_
_atom_site_label
_atom_site_type_symbol
_atom_type_description
_atom_site_fract_x
_atom_site_fract_y
_atom_site_fract_z
_atom_type_partial_charge
C1    C     C_R   0.500239 0.259479 0.501001 0.772896
C2    C     C_R   0.499761 0.740520 0.498999 0.772896
C3    C     C_R   0.871498 0.493780 0.502512 -0.083023
C4    C     C_R   0.128502 0.506220 0.497488 -0.083023
C5    C     C_R   0.942188 0.432974 0.611026 -0.002968
C6    C     C_R   0.057812 0.567026 0.388975 -0.002969
C7    C     C_3   0.491750 0.037517 0.634803 -0.142718
C8    C     C_3   0.508250 0.962483 0.365197 -0.142718
C9    C     C_3   0.597010 0.954427 0.575793 -0.164116
C10   C     C_3   0.402989 0.045573 0.424208 -0.164115
C11   C     C_3   0.499728 0.877582 0.497396 0.029949
C12   C     C_3   0.500272 0.122418 0.502604 0.029949
C13   C     C_3   0.394524 0.958358 0.556274 -0.178301
C14   C     C_3   0.605476 0.041642 0.443726 -0.178301
C15   C     C_3   0.474373 0.611953 0.048230 -0.070342
C16   C     C_3   0.525627 0.388047 0.951770 -0.070340
C17   C     C_3   0.392532 0.535048 0.946396 -0.108067
C18   C     C_3   0.607467 0.464952 0.053604 -0.108068
C19   C     C_3   0.579992 0.574907 0.951462 0.285802
C20   C     C_3   0.420008 0.425092 0.048537 0.285802
C21   C     C_R   0.262570 0.504111 0.498838 0.779083
C22   C     C_R   0.737430 0.495889 0.501162 0.779083
C23   C     C_R   0.230203 0.822127 0.190563 -0.148164
C24   C     C_R   0.769798 0.177872 0.809437 -0.148165
C25   C     C_R   0.189450 0.744789 0.301267 -0.087485
C26   C     C_R   0.810550 0.255211 0.698733 -0.087485
C27   C     C_R   0.111497 0.643310 0.272567 0.128678
C28   C     C_R   0.888503 0.356690 0.727433 0.128679
C29   C     C_R   0.074660 0.621642 0.131934 -0.182820
C30   C     C_R   0.925341 0.378357 0.868066 -0.182821
C31   C     C_R   0.115234 0.699383 0.021868 -0.159598
C32   C     C_R   0.884767 0.300616 0.978132 -0.159598
C33   C     C_R   0.193379 0.799413 0.051127 -0.128678
C34   C     C_R   0.806622 0.200586 0.948873 -0.128678
C35   C     C_R   0.929748 0.559159 0.393167 -0.242003
C36   C     C_R   0.070252 0.440841 0.606833 -0.242003
Cu1   Cu    Cu3+1 0.500030 0.499990 0.643150 0.951690
Cu2   Cu    Cu3+1 0.499970 0.500010 0.356850 0.951689
H1    H     H_    0.225123 0.859554 0.965873 0.124458
H2    H     H_    0.774879 0.140444 0.034127 0.124458
H3    H     H_    0.302253 0.561184 0.896563 0.134338
H4    H     H_    0.697747 0.438816 0.103437 0.134339
H5    H     H_    0.456470 0.706375 0.092711 0.129639
H6    H     H_    0.543530 0.293625 0.907289 0.129639
H7    H     H_    0.289363 0.900542 0.212438 0.124511
H8    H     H_    0.710638 0.099457 0.787562 0.124510
H9    H     H_    0.216474 0.765458 0.409081 0.088726
H10   H     H_    0.783526 0.234542 0.590919 0.088726
H11   H     H_    0.012917 0.545378 0.108536 0.115164
H12   H     H_    0.987084 0.454622 0.891464 0.115164
H13   H     H_    0.086003 0.682137 0.913948 0.127909
H14   H     H_    0.913999 0.317862 0.086052 0.127909
H15   H     H_    0.874529 0.608370 0.312380 0.153365
H16   H     H_    0.125470 0.391630 0.687620 0.153365
H17   H     H_    0.676419 0.913119 0.637047 0.136020
H18   H     H_    0.323581 0.086881 0.362953 0.136020
H19   H     H_    0.484225 0.070808 0.745160 0.125857
H20   H     H_    0.515775 0.929191 0.254840 0.125857
H21   H     H_    0.308161 0.921158 0.602058 0.119763
H22   H     H_    0.691839 0.078842 0.397942 0.119763
N1    N     N_3   0.500090 0.499970 0.858290 -0.165644
N2    N     N_3   0.499910 0.500030 0.141710 -0.165644
O1    O     O_R   0.500060 0.316850 0.620870 -0.593332
O2    O     O_R   0.499940 0.683150 0.379130 -0.593332
O3    O     O_R   0.500000 0.316860 0.379090 -0.553658
O4    O     O_R   0.500000 0.683140 0.620910 -0.553658
O5    O     O_R   0.319670 0.500010 0.620890 -0.594555
O6    O     O_R   0.680330 0.499990 0.379110 -0.594555
O7    O     O_R   0.319620 0.500010 0.379110 -0.564392
O8    O     O_R   0.680380 0.499990 0.620890 -0.564390
N3    N     N_3   0.670365 0.660829 0.892803 -0.564399
H23   H     H_    0.704729 0.713889 0.976423 0.179135
H24   H     H_    0.744499 0.606261 0.857596 0.227277
N4    N     N_3   0.329635 0.339171 0.107196 -0.564400
H25   H     H_    0.295268 0.286115 0.023574 0.179135
H26   H     H_    0.255503 0.393739 0.142408 0.227279

loop_
_geom_bond_atom_site_label_1
_geom_bond_atom_site_label_2
_ccdc_geom_bond_type
C4    C36   A    
C23   H7    S    
C35   H15   S    
C19   N3    S    
C29   H11   S    
C15   C19   S    
C33   H1    S    
N4    H26   S    
C34   H2    S    
C24   C26   A    
C18   H4    S    
C27   C29   A    
C5    C36   A    
C17   C20   S    
C6    C35   A    
C7    C9    S    
C18   C19   S    
C32   H14   S    
C17   N1    S    
C23   C33   A    
C1    O3    A    
C31   C33   A    
C9    H17   S    
C10   H18   S    
C16   H6    S    
C26   H10   S    
C8    H20   S    
C30   H12   S    
Cu2   O7    S    
Cu1   O8    S    
C21   O5    A    
C1    C12   S    
C2    C11   S    
C1    O1    A    
Cu1   O1    S    
C2    O2    A    
Cu2   O2    S    
C7    C12   S    
N4    H25   S    
C4    C6    A    
N3    H24   S    
C18   N2    S    
C3    C5    A    
C24   C34   A    
C21   O7    A    
C32   C34   A    
C9    C14   S    
Cu1   Cu2   S    
C5    C28   S    
C6    C27   S    
Cu2   O3    S    
C3    C35   A    
C16   C20   S    
Cu1   O4    S    
C20   N4    S    
C9    C11   S    
C22   O6    A    
C10   C12   S    
C16   C18   S    
Cu2   O6    S    
C16   N1    S    
C15   C17   S    
C25   H9    S    
C8    C14   S    
C31   H13   S    
C2    O4    A    
C10   C13   S    
Cu1   N1    S    
C13   H21   S    
C25   C27   A    
C14   H22   S    
C26   C28   A    
C24   H8    S    
C28   C30   A    
C12   C14   S    
C15   H5    S    
N3    H23   S    
C29   C31   A    
C30   C32   A    
C4    C21   S    
C11   C13   S    
C19   N1    S    
C8    C11   S    
Cu1   O5    S    
C15   N2    S    
C7    H19   S    
C23   C25   A    
C20   N2    S    
C17   H3    S    
C36   H16   S    
C7    C13   S    
C8    C10   S    
C3    C22   S    
C22   O8    A    
Cu2   N2    S    
