data_mof_unit_50549.cif
_audit_creation_date              2012-10-26T19:21:06-0400
_audit_creation_method            fapswitch 2.2
_symmetry_space_group_name_H-M    P1
_symmetry_Int_Tables_number       1
_space_group_crystal_system       triclinic
_cell_length_a                    9.864745
_cell_length_b                    11.08395
_cell_length_c                    13.40396
_cell_angle_alpha                 95.039075
_cell_angle_beta                  81.4845
_cell_angle_gamma                 111.166042
_cell_volume                      1350.71579273

loop_
_atom_site_label
_atom_site_type_symbol
_atom_type_description
_atom_site_fract_x
_atom_site_fract_y
_atom_site_fract_z
_atom_type_partial_charge
Br1   Br    Br    0.901842 0.731700 0.256207 -0.315924
Br2   Br    Br    0.236040 0.001898 0.444109 -0.320133
Br3   Br    Br    0.849688 0.372614 0.380850 -0.398751
Br4   Br    Br    0.840177 0.842305 0.875065 -0.414749
Br5   Br    Br    0.110114 0.249502 0.726892 -0.355051
Br6   Br    Br    0.659732 0.168593 0.608661 -0.399872
C1    C     C_R   0.555219 0.744216 0.509488 0.580984
C2    C     C_R   0.372712 0.445778 0.796158 -0.022929
C3    C     C_2   0.576230 0.878631 0.532486 0.002599
C4    C     C_R   0.421230 0.482596 0.690025 0.544147
C5    C     C_2   0.521595 0.942365 0.478911 0.253219
C6    C     C_2   0.416451 0.115472 0.491634 0.142969
C7    C     C_2   0.518098 0.070893 0.516680 0.121215
C8    C     C_2   0.925791 0.491944 0.490453 0.384291
C9    C     C_2   0.078478 0.510601 0.509120 0.107606
C10   C     C_R   0.442671 0.254460 0.496715 0.586399
C11   C     C_R   0.578295 0.514287 0.309651 0.567336
C12   C     C_R   0.465201 0.439252 0.954851 -0.011071
C13   C     C_R   0.782868 0.677249 0.070855 -0.068380
C14   C     C_R   0.627080 0.534178 0.201116 0.012949
C15   C     C_R   0.254684 0.328663 0.818887 0.092051
C16   C     C_R   0.254730 0.259431 0.902457 0.322150
C17   C     C_R   0.370514 0.307310 0.960735 0.351705
C18   C     C_R   0.470415 0.505868 0.868283 -0.073861
C19   C     C_R   0.558983 0.505362 0.029278 0.031192
C20   C     C_R   0.679232 0.620657 0.003584 -0.007364
C21   C     C_R   0.688525 0.681167 0.913753 0.174075
C22   C     C_R   0.579098 0.628820 0.851723 -0.051746
C23   C     C_R   0.529056 0.466902 0.130656 0.196146
C24   C     C_R   0.759047 0.634167 0.168392 0.129166
Cu1   Cu    Cu3+1 0.362000 0.479240 0.482530 1.104569
Cu2   Cu    Cu3+1 0.638000 0.520760 0.517470 1.129001
H1    H     H_    0.625131 0.919617 0.600647 0.125844
H2    H     H_    0.062827 0.126280 0.893986 0.381610
H3    H     H_    0.127750 0.578320 0.568357 0.189310
H4    H     H_    0.111822 0.383440 0.399404 0.273507
H5    H     H_    0.879830 0.760383 0.050438 0.218768
H6    H     H_    0.582392 0.684298 0.788238 0.147382
H7    H     H_    0.484652 0.961114 0.344233 0.357491
H8    H     H_    0.829446 0.671064 0.647634 0.382375
H9    H     H_    0.410905 0.320510 0.211504 0.350385
H10   H     H_    0.501545 0.249673 0.021784 0.329962
N1    N     N_2   0.845330 0.551960 0.543750 -0.051480
N2    N     N_2   0.154690 0.448120 0.456210 -0.345273
O1    O     O_R   0.426290 0.668220 0.490680 -0.465482
O2    O     O_3   0.905552 0.635471 0.617437 -0.594116
O3    O     O_3   0.395025 0.375103 0.162850 -0.617479
O4    O     O_3   0.395707 0.218312 0.014410 -0.569110
O5    O     O_3   0.152958 0.137915 0.923439 -0.563250
O6    O     O_R   0.659360 0.703290 0.520190 -0.495369
O7    O     O_R   0.326580 0.473880 0.629020 -0.475047
O8    O     O_R   0.559660 0.508940 0.658530 -0.517293
O9    O     O_R   0.340640 0.296710 0.479810 -0.454538
O10   O     O_R   0.573710 0.331780 0.509320 -0.461254
O11   O     O_R   0.440340 0.491060 0.341470 -0.469798
O12   O     O_R   0.673420 0.526120 0.370980 -0.446178
O13   O     O_3   0.478429 0.889571 0.386190 -0.624903

loop_
_geom_bond_atom_site_label_1
_geom_bond_atom_site_label_2
_ccdc_geom_bond_type
H8    O2    S    
Br3   C8    S    
C5    C7    S    
C11   O11   A    
Cu1   Cu2   S    
C8    C9    S    
C22   H6    S    
C4    O8    A    
C11   C14   S    
C2    C15   A    
H9    O3    S    
Br2   C6    S    
H10   O4    S    
C15   C16   A    
Cu1   O9    S    
Br6   C7    S    
C3    H1    S    
C3    C5    D    
C11   O12   A    
Cu2   O6    S    
C20   C21   A    
C12   C19   A    
C23   O3    S    
C16   O5    S    
C12   C18   A    
C4    O7    A    
C1    O1    A    
C9    H3    S    
Br1   C24   S    
C2    C18   A    
Cu2   N1    S    
C9    N2    D    
C14   C23   A    
C16   C17   A    
C19   C23   A    
N1    O2    S    
C10   O10   A    
H4    N2    S    
Cu1   N2    S    
C12   C17   A    
H7    O13   S    
C6    C10   S    
Br4   C21   S    
Br5   C15   S    
C6    C7    D    
C2    C4    S    
Cu1   O1    S    
Cu2   O10   S    
C21   C22   A    
C1    C3    S    
C13   C20   A    
C10   O9    A    
Cu2   O8    S    
H2    O5    S    
C14   C24   A    
C17   O4    S    
C13   H5    S    
Cu1   O11   S    
C19   C20   A    
C5    O13   S    
C13   C24   A    
Cu2   O12   S    
C18   C22   A    
C1    O6    A    
Cu1   O7    S    
C8    N1    D    
