data_mof_unit_31192.cif
_audit_creation_date              2012-10-26T20:50:50-0400
_audit_creation_method            fapswitch 2.2
_symmetry_space_group_name_H-M    P1
_symmetry_Int_Tables_number       1
_space_group_crystal_system       triclinic
_cell_length_a                    11.020716
_cell_length_b                    10.819026
_cell_length_c                    9.565447
_cell_angle_alpha                 89.590786
_cell_angle_beta                  102.082731
_cell_angle_gamma                 90.180002
_cell_volume                      1115.22419036

loop_
_atom_site_label
_atom_site_type_symbol
_atom_type_description
_atom_site_fract_x
_atom_site_fract_y
_atom_site_fract_z
_atom_type_partial_charge
C1    C     C_R   0.498716 0.262438 0.499976 0.557987
C2    C     C_R   0.395561 0.472656 0.049193 -0.025813
C3    C     C_R   0.395256 0.474095 0.900691 -0.018689
C4    C     C_R   0.262964 0.497685 0.442618 0.550650
C5    C     C_R   0.601191 0.540540 0.950067 0.191973
C6    C     C_3   0.727919 0.486361 0.974818 -0.288773
C7    C     C_3   0.728529 0.488883 0.132936 -0.293638
C8    C     C_R   0.497939 0.737427 0.498902 0.540745
C9    C     C_R   0.737060 0.498709 0.558013 0.548844
C10   C     C_2   0.128466 0.487520 0.412244 -0.135187
C11   C     C_2   0.068570 0.485577 0.520012 -0.161650
C12   C     C_R   0.491188 0.129214 0.495791 -0.030269
C13   C     C_2   0.871914 0.498807 0.592151 -0.140591
C14   C     C_2   0.934744 0.472973 0.491449 -0.165702
C15   C     C_R   0.430804 0.062472 0.586640 -0.017763
C16   C     C_3   0.236923 0.810508 0.680091 0.027078
C17   C     C_3   0.133656 0.891278 0.593276 -0.272716
C18   C     C_3   0.035552 0.813606 0.495985 -0.494964
C19   C     C_3   0.649770 0.920433 0.827484 -0.021068
C20   C     C_3   0.749992 0.820907 0.860014 -0.244954
C21   C     C_3   0.877953 0.873121 0.855450 -0.497201
C22   C     C_3   0.322171 0.171209 0.896211 0.019269
C23   C     C_R   0.535263 0.065046 0.389079 -0.179093
C24   C     C_3   0.291865 0.072641 0.999621 -0.250748
C25   C     C_3   0.267452 0.131145 0.135783 -0.494095
C26   C     C_R   0.533415 0.936275 0.387298 -0.165412
C27   C     C_R   0.488169 0.870321 0.492802 -0.025678
C28   C     C_R   0.428478 0.935604 0.584479 -0.036043
C29   C     C_3   0.427733 0.927142 0.742641 0.543898
C30   C     C_3   0.429569 0.070908 0.742590 0.206759
C31   C     C_R   0.600937 0.541635 0.097216 0.176749
Cu1   Cu    Cu3+1 0.499990 0.499980 0.640670 0.953345
Cu2   Cu    Cu3+1 0.500010 0.500020 0.359330 0.927442
H1    H     H_    0.887276 0.444506 0.386090 0.145427
H2    H     H_    0.920093 0.523056 0.699677 0.084975
H3    H     H_    0.078298 0.479704 0.301957 0.091281
H4    H     H_    0.576436 0.113851 0.311203 0.133176
H5    H     H_    0.573970 0.888842 0.308827 0.145876
H6    H     H_    0.193744 0.740448 0.739960 0.139941
H7    H     H_    0.284811 0.757403 0.609290 0.151097
H8    H     H_    0.088650 0.944342 0.667545 0.184585
H9    H     H_    0.173436 0.958314 0.526675 0.180747
H10   H     H_    0.078248 0.760247 0.420028 0.156077
H11   H     H_    0.963053 0.875076 0.433848 0.146885
H12   H     H_    0.514328 0.118285 0.801993 0.055066
H13   H     H_    0.990799 0.749100 0.560693 0.157283
H14   H     H_    0.669728 0.990977 0.913204 0.117252
H15   H     H_    0.655219 0.964428 0.723723 0.113180
H16   H     H_    0.751941 0.781029 0.967870 0.160798
H17   H     H_    0.727791 0.745907 0.779936 0.195005
H18   H     H_    0.878591 0.911361 0.747519 0.148243
H19   H     H_    0.948197 0.798328 0.879247 0.140674
H20   H     H_    0.903601 0.947127 0.936223 0.147245
H21   H     H_    0.250851 0.244834 0.885864 0.136944
H22   H     H_    0.412989 0.215783 0.941507 0.110537
H23   H     H_    0.311981 0.445610 0.083636 0.112611
H24   H     H_    0.207767 0.020215 0.947650 0.202922
H25   H     H_    0.371090 0.007518 0.028499 0.195591
H26   H     H_    0.346420 0.191098 0.184931 0.179714
H27   H     H_    0.255548 0.057633 0.213464 0.161511
H28   H     H_    0.181675 0.187857 0.111162 0.136610
H29   H     H_    0.311231 0.449412 0.825935 0.109669
H30   H     H_    0.728333 0.391145 0.931805 0.141533
H31   H     H_    0.796834 0.550509 0.943803 0.117247
H32   H     H_    0.730995 0.395046 0.181686 0.138093
H33   H     H_    0.796308 0.556802 0.190949 0.122085
H34   H     H_    0.117863 0.496722 0.630220 0.142584
N1    N     N_R   0.500780 0.500930 0.148120 -0.230302
N2    N     N_R   0.500790 0.500890 0.852210 -0.223114
O1    O     O_R   0.500000 0.319640 0.618810 -0.490893
O2    O     O_3   0.532718 0.865387 0.827375 -0.542437
O3    O     O_3   0.315132 0.122856 0.757685 -0.549926
O4    O     O_R   0.500010 0.319680 0.381230 -0.515811
O5    O     O_R   0.320680 0.500000 0.575130 -0.513006
O6    O     O_R   0.320690 0.500040 0.337550 -0.508866
O7    O     O_R   0.499990 0.680320 0.618770 -0.468836
O8    O     O_R   0.500000 0.680360 0.381190 -0.496512
O9    O     O_R   0.679310 0.499960 0.662450 -0.515143
O10   O     O_R   0.679320 0.500000 0.424870 -0.499354
O11   O     O_3   0.317090 0.883421 0.782301 -0.532956

loop_
_geom_bond_atom_site_label_1
_geom_bond_atom_site_label_2
_ccdc_geom_bond_type
C30   H12   S    
C19   O2    S    
C19   C20   S    
C22   H21   S    
C12   C23   A    
C26   C27   A    
C20   H16   S    
C28   C29   S    
C3    N2    A    
C13   H2    S    
C2    N1    A    
Cu1   O5    S    
C5    C6    S    
C11   C14   S    
C19   H14   S    
C8    O7    A    
C9    O10   A    
C23   C26   A    
C6    H31   S    
C9    C13   S    
C17   H9    S    
C4    O6    A    
C5    N2    A    
Cu2   O6    S    
C16   C17   S    
C20   H17   S    
C25   H27   S    
C4    O5    A    
C13   C14   D    
C1    C12   S    
C18   H13   S    
C22   O3    S    
C11   H34   S    
C31   N1    A    
C7    C31   S    
C24   C25   S    
C19   H15   S    
Cu2   O10   S    
Cu1   O1    S    
C23   H4    S    
C16   O11   S    
C6    H30   S    
C14   H1    S    
C29   C30   S    
C18   H11   S    
C7    H32   S    
C12   C15   A    
C17   C18   S    
C25   H28   S    
C6    C7    S    
C16   H7    S    
Cu2   O4    S    
C8    O8    A    
C22   C24   S    
C4    C10   S    
C21   H18   S    
C15   C30   S    
C24   H24   S    
C3    H29   S    
Cu1   N2    S    
C26   H5    S    
Cu1   O7    S    
C30   O3    S    
C22   H22   S    
C1    O1    A    
C1    O4    A    
Cu1   Cu2   S    
C2    C3    A    
C2    H23   S    
C18   H10   S    
C7    H33   S    
C21   H20   S    
Cu2   O8    S    
C15   C28   A    
C29   O11   S    
C9    O9    A    
C17   H8    S    
C10   C11   D    
C16   H6    S    
Cu1   O9    S    
C20   C21   S    
C24   H25   S    
C27   C28   A    
C8    C27   S    
C10   H3    S    
C25   H26   S    
C5    C31   A    
C21   H19   S    
Cu2   N1    S    
C29   O2    S    
