data_mof_unit_51882.cif
_audit_creation_date              2012-12-11T18:42:07-0500
_audit_creation_method            fapswitch 2.2
_symmetry_space_group_name_H-M    P1
_symmetry_Int_Tables_number       1
_space_group_crystal_system       triclinic
_cell_length_a                    8.18782
_cell_length_b                    14.2688
_cell_length_c                    18.703154
_cell_angle_alpha                 96.454106
_cell_angle_beta                  90.528651
_cell_angle_gamma                 91.526773
_cell_volume                      2170.31252885

loop_
_atom_site_label
_atom_site_type_symbol
_atom_type_description
_atom_site_fract_x
_atom_site_fract_y
_atom_site_fract_z
_atom_type_partial_charge
Ba1   Ba    Ba6+2 0.843240 0.541620 0.463500 1.671574
Ba2   Ba    Ba6+2 0.346570 0.458460 0.536510 1.662646
C1    C     C_3   0.473942 0.846529 0.248222 0.230458
C2    C     C_3   0.556730 0.776296 0.291871 0.403975
C3    C     C_3   0.620000 0.301671 0.312140 0.281573
C4    C     C_3   0.562365 0.288823 0.233936 -0.352425
C5    C     C_3   0.102847 0.270165 0.738214 0.340075
C6    C     C_3   0.098943 0.243868 0.814728 -0.309637
C7    C     C_3   0.596939 0.216790 0.699825 0.363666
C8    C     C_3   0.575051 0.118521 0.722998 -0.336427
C9    C     C_R   0.014267 0.446570 0.050447 0.028280
C10   C     C_R   0.936953 0.392025 0.099748 -0.071479
C11   C     C_R   0.785892 0.423461 0.963380 -0.106854
C12   C     C_3   0.084318 0.721153 0.256794 0.387062
C13   C     C_R   0.946379 0.454427 0.981096 -0.043156
C14   C     C_R   0.718812 0.425494 0.895176 0.358328
C15   C     C_R   0.814132 0.457935 0.838892 -0.085754
C16   C     C_R   0.971392 0.500193 0.858109 -0.045575
C17   C     C_R   0.036042 0.499532 0.929757 0.024164
C18   C     C_R   0.762811 0.451245 0.765085 0.017165
C19   C     C_R   0.866245 0.486030 0.713876 -0.312087
C20   C     C_R   0.012245 0.535803 0.732960 0.039394
C21   C     C_R   0.063881 0.544546 0.806349 -0.018373
C22   C     C_R   0.165986 0.492014 0.070856 0.031978
C23   C     C_3   0.060676 0.737587 0.178500 -0.288121
C24   C     C_R   0.226956 0.490856 0.142674 0.012196
C25   C     C_R   0.134756 0.445504 0.193605 -0.042117
C26   C     C_R   0.995521 0.392066 0.169633 -0.029299
C27   C     C_R   0.205427 0.596909 0.829883 -0.016360
C28   C     C_R   0.267403 0.596301 0.899317 -0.036540
C29   C     C_R   0.189239 0.544529 0.949863 0.068504
C30   C     C_R   0.255828 0.539562 0.020451 0.047739
C31   C     C_R   0.411369 0.578733 0.042249 -0.067551
C32   C     C_R   0.378685 0.536069 0.163805 -0.036896
C33   C     C_R   0.470948 0.576977 0.112101 -0.105400
C34   C     C_3   0.180923 0.751131 0.611579 0.304631
C35   C     C_R   0.432333 0.539678 0.236260 0.003606
C36   C     C_R   0.332762 0.501684 0.286691 -0.273792
C37   C     C_R   0.185188 0.454535 0.266799 -0.019578
C38   C     C_R   0.696752 0.938141 0.534460 -0.032436
C39   C     C_R   0.508818 0.801031 0.497265 0.048947
C40   C     C_R   0.365335 0.766507 0.460906 -0.274079
C41   C     C_R   0.261746 0.826797 0.429277 -0.010811
C42   C     C_R   0.307607 0.921282 0.428401 -0.156320
C43   C     C_R   0.454866 0.956833 0.461216 -0.000973
C44   C     C_R   0.554742 0.897986 0.498284 -0.026062
C45   C     C_3   0.188324 0.858265 0.626323 -0.388072
C46   C     C_R   0.645421 0.090111 0.491904 0.001478
C47   C     C_R   0.744980 0.032452 0.529918 0.009148
C48   C     C_R   0.693094 0.185447 0.489531 0.027057
C49   C     C_R   0.838825 0.221309 0.522669 -0.247398
C50   C     C_R   0.939140 0.164326 0.558567 0.026573
C51   C     C_R   0.892088 0.069983 0.562766 -0.135021
C52   C     C_R   0.501010 0.051266 0.458084 0.029344
C53   C     C_3   0.179397 0.241468 0.332149 0.273690
C54   C     C_3   0.187196 0.180836 0.259656 0.221983
C55   C     C_3   0.685757 0.676995 0.676165 0.311299
C56   C     C_3   0.687539 0.707592 0.756807 -0.390581
H1    H     H_    0.637270 0.813936 0.334503 0.099057
H2    H     H_    0.285724 0.881042 0.666773 0.129341
H3    H     H_    0.214967 0.890261 0.576282 0.061564
H4    H     H_    0.069105 0.884015 0.647148 0.119664
H5    H     H_    0.189679 0.195309 0.375835 0.074573
H6    H     H_    0.285070 0.291332 0.337601 -0.031912
H7    H     H_    0.175390 0.225658 0.215180 -0.001995
H8    H     H_    0.307115 0.146358 0.255353 0.058251
H9    H     H_    0.811239 0.660497 0.658733 0.009844
H10   H     H_    0.604766 0.613277 0.665215 0.065753
H11   H     H_    0.771616 0.769726 0.769529 0.128261
H12   H     H_    0.729211 0.649734 0.786731 0.058314
H13   H     H_    0.562604 0.726558 0.774831 0.121838
H14   H     H_    0.458224 0.740295 0.319644 -0.178338
H15   H     H_    0.367391 0.876628 0.278053 -0.013082
H16   H     H_    0.594643 0.375348 0.334420 0.039974
H17   H     H_    0.750696 0.287264 0.312243 0.138041
H18   H     H_    0.433775 0.309653 0.229685 0.043343
H19   H     H_    0.637045 0.334950 0.202285 0.078242
H20   H     H_    0.574218 0.214355 0.210516 0.207129
H21   H     H_    0.428888 0.810028 0.195889 -0.000173
H22   H     H_    0.117216 0.806420 0.168668 0.142529
H23   H     H_    0.194123 0.328507 0.736109 0.117161
H24   H     H_    0.980454 0.294792 0.724361 -0.065845
H25   H     H_    0.220432 0.219002 0.830045 0.174414
H26   H     H_    0.068128 0.306192 0.852576 0.093257
H27   H     H_    0.005320 0.187029 0.818881 0.105292
H28   H     H_    0.729692 0.232743 0.696209 -0.084728
H29   H     H_    0.539168 0.216518 0.645872 0.067461
H30   H     H_    0.633206 0.066170 0.683481 0.055386
H31   H     H_    0.442972 0.099694 0.725922 0.146597
H32   H     H_    0.015501 0.655721 0.265736 0.084304
H33   H     H_    0.633037 0.116078 0.776649 0.128518
H34   H     H_    0.828287 0.478413 0.657936 0.066694
H35   H     H_    0.930601 0.348885 0.204440 0.088670
H36   H     H_    0.272142 0.638914 0.794864 0.088914
H37   H     H_    0.590440 0.608750 0.124910 0.102125
H38   H     H_    0.371816 0.507851 0.342477 0.076254
H39   H     H_    0.704963 0.400897 0.003675 0.122600
H40   H     H_    0.831608 0.346609 0.085460 0.079147
H41   H     H_    0.377318 0.638301 0.911799 0.053378
H42   H     H_    0.215708 0.710875 0.266480 -0.121200
H43   H     H_    0.492056 0.610656 0.006208 0.077506
H44   H     H_    0.329591 0.692888 0.460435 0.068091
H45   H     H_    0.228081 0.967000 0.402462 0.123692
H46   H     H_    0.969509 0.026390 0.591719 0.069410
H47   H     H_    0.875234 0.294366 0.520225 0.074135
H48   H     H_    0.772556 0.897084 0.565910 0.092115
H49   H     H_    0.423102 0.093483 0.428362 0.084565
H50   H     H_    0.119023 0.680992 0.142972 0.035477
H51   H     H_    0.928521 0.736639 0.164798 0.153415
H52   H     H_    0.302428 0.725902 0.595193 0.007240
H53   H     H_    0.090233 0.730506 0.567837 0.063677
O1    O     O_2   0.887710 0.436190 0.327560 -0.482396
O2    O     O_3   0.628970 0.751381 0.640953 -0.640503
O3    O     O_3   0.027587 0.798925 0.301734 -0.529748
O4    O     O_2   0.301980 0.563840 0.672490 -0.473819
O5    O     O_3   0.054330 0.556590 0.583490 -0.495405
O6    O     O_3   0.555270 0.390630 0.635330 -0.496300
O7    O     O_3   0.136538 0.714122 0.674794 -0.640031
O8    O     O_3   0.637720 0.384870 0.467990 -0.476986
O9    O     O_3   0.145220 0.339960 0.601250 -0.483521
O10   O     O_2   0.279776 0.172187 0.566010 -0.492663
O11   O     O_3   0.146602 0.191074 0.691447 -0.607691
O12   O     O_3   0.135370 0.443490 0.416520 -0.463841
O13   O     O_3   0.551980 0.615210 0.532020 -0.485728
O14   O     O_2   0.394410 0.269100 0.474240 -0.465151
O15   O     O_3   0.542086 0.235532 0.350851 -0.640441
O16   O     O_2   0.419910 0.455080 0.755817 -0.439048
O17   O     O_3   0.522276 0.282257 0.750186 -0.543714
O18   O     O_3   0.634420 0.609440 0.364670 -0.470153
O19   O     O_2   0.776407 0.546061 0.241501 -0.504977
O20   O     O_3   0.030457 0.287360 0.339258 -0.626387
O21   O     O_3   0.650575 0.713787 0.246203 -0.612552
O22   O     O_2   0.795290 0.730930 0.525800 -0.479597
O23   O     O_3   0.044470 0.660110 0.398750 -0.500028
O24   O     O_2   0.920742 0.828365 0.433162 -0.463631
P1    P     P_3+3 0.061800 0.409390 0.339760 0.976848
P2    P     P_3+3 0.622760 0.718740 0.547830 0.973011
P3    P     P_3+3 0.063803 0.780373 0.391513 1.009611
P4    P     P_3+3 0.127890 0.590690 0.660240 0.970726
P5    P     P_3+3 0.127612 0.217089 0.602487 0.961747
P6    P     P_3+3 0.624951 0.599394 0.270924 0.951409
P7    P     P_3+3 0.572585 0.267458 0.443498 0.959106
P8    P     P_3+3 0.566664 0.396295 0.728102 1.020862
S1    S     S_3+6 0.031149 0.090655 0.249622 0.021333
O25   O     O_2   0.012630 0.045393 0.317977 -0.272106
O26   O     O_2   0.872316 0.132851 0.231133 -0.208772
O27   O     O_3   0.081281 0.008705 0.182378 -0.438706
H54   H     H_    0.179110 0.978912 0.200359 0.335944
S2    S     S_3+6 0.609094 0.941731 0.232516 0.000163
O28   O     O_2   0.523657 0.006893 0.187631 -0.297282
O29   O     O_2   0.659616 0.995446 0.303307 -0.221078
O30   O     O_3   0.775273 0.899867 0.189241 -0.395841
H55   H     H_    0.733359 0.868579 0.142537 0.321113
Cl1   Cl    Cl    0.509912 0.391948 0.891445 -0.699076

loop_
_geom_bond_atom_site_label_1
_geom_bond_atom_site_label_2
_ccdc_geom_bond_type
O24   P3    D    
C53   C54   S    
O22   P2    D    
C32   C35   A    
C39   C40   A    
C48   P7    S    
O27   H54   S    
C17   C29   A    
C45   H4    S    
Ba1   O12   S    
C5    C6    S    
C2    O21   S    
Ba2   O12   S    
C42   C43   A    
C13   C17   A    
C8    H30   S    
C24   C25   A    
C27   C28   A    
C35   P6    S    
C52   H49   S    
C10   C26   A    
C31   H43   S    
Ba2   P4    S    
C21   C27   A    
O10   P5    D    
O6    P8    S    
O1    P1    D    
C32   C33   A    
Ba1   O18   S    
S2    O29   D    
Ba1   O1    S    
C36   C37   A    
C54   H8    S    
C56   H13   S    
C4    H20   S    
O18   P6    S    
C51   H46   S    
C38   C47   A    
C23   H22   S    
C9    C22   A    
C15   C18   A    
C2    H1    S    
C34   C45   S    
Ba1   Ba2   S    
Ba1   O8    S    
C3    H16   S    
O19   P6    D    
C12   H32   S    
C31   C33   A    
C45   H2    S    
C9    C13   A    
C24   C32   A    
C8    H31   S    
C25   C37   A    
C14   C15   A    
C53   H5    S    
C3    O15   S    
C39   C44   A    
O9    P5    S    
Ba1   O5    S    
Ba1   P1    S    
C34   O7    S    
C7    C8    S    
C10   H40   S    
C23   H51   S    
O5    P4    S    
C46   C48   A    
C1    H21   S    
C19   C20   A    
C18   P8    S    
Ba2   O5    S    
C55   H9    S    
S1    O27   S    
Ba1   O22   S    
C40   H44   S    
C42   H45   S    
C48   C49   A    
C37   P1    S    
C1    S2    S    
C7    O17   S    
C16   C21   A    
O13   P2    S    
S1    O26   D    
O20   P1    S    
S2    O30   S    
C46   C52   A    
Ba2   O9    S    
C16   C17   A    
C4    H19   S    
C55   O2    S    
C12   O3    S    
C28   H41   S    
C6    H27   S    
C49   C50   A    
C26   H35   S    
C3    H17   S    
C38   C44   A    
C41   C42   A    
C22   C30   A    
C45   H3    S    
C35   C36   A    
C7    H28   S    
Ba2   O4    S    
C29   C30   A    
O14   P7    D    
C49   H47   S    
C53   H6    S    
C34   H53   S    
C15   C16   A    
O16   P8    D    
C18   C19   A    
C4    H18   S    
C41   P3    S    
C46   C47   A    
C5    H23   S    
O4    P4    D    
C8    H33   S    
C53   O20   S    
C11   C13   A    
C34   H52   S    
C27   H36   S    
O2    P2    S    
C40   C41   A    
C5    O11   S    
C1    C2    S    
Ba1   O23   S    
C2    H14   S    
Ba1   P2    S    
C50   C51   A    
C38   H48   S    
O21   P6    S    
C6    H26   S    
C39   P2    S    
C56   H12   S    
C6    H25   S    
C22   C24   A    
S1    O25   D    
C43   C52   A    
O23   P3    S    
C9    C10   A    
C56   H11   S    
C12   H42   S    
C54   H7    S    
Ba2   O13   S    
Ba2   O6    S    
O12   P1    S    
C30   C31   A    
Ba1   O13   S    
O11   P5    S    
S2    O28   D    
C7    H29   S    
C14   Cl1   S    
C28   C29   A    
C55   C56   S    
C3    C4    S    
C47   C51   A    
C20   P4    S    
Ba2   O8    S    
C50   P5    S    
O15   P7    S    
O3    P3    S    
C12   C23   S    
C11   H39   S    
C1    H15   S    
O17   P8    S    
C54   S1    S    
Ba2   O14   S    
C43   C44   A    
C5    H24   S    
O30   H55   S    
C11   C14   A    
C36   H38   S    
C25   C26   A    
O8    P7    S    
C20   C21   A    
C55   H10   S    
O7    P4    S    
C23   H50   S    
C33   H37   S    
C19   H34   S    
