data_mof_unit_12685.cif
_audit_creation_date              2012-10-26T19:22:31-0400
_audit_creation_method            fapswitch 2.2
_symmetry_space_group_name_H-M    P1
_symmetry_Int_Tables_number       1
_space_group_crystal_system       triclinic
_cell_length_a                    11.797876
_cell_length_b                    13.025903
_cell_length_c                    13.809952
_cell_angle_alpha                 87.693777
_cell_angle_beta                  92.183224
_cell_angle_gamma                 100.343245
_cell_volume                      2085.07799784

loop_
_atom_site_label
_atom_site_type_symbol
_atom_type_description
_atom_site_fract_x
_atom_site_fract_y
_atom_site_fract_z
_atom_type_partial_charge
C1    C     C_R   0.478297 0.299704 0.499779 0.551781
C2    C     C_R   0.846144 0.448265 0.529041 0.382386
C3    C     C_R   0.032077 0.544570 0.472432 -0.120986
C4    C     C_R   0.967606 0.455473 0.518816 -0.144876
C5    C     C_R   0.519415 0.499779 0.681850 0.522480
C6    C     C_R   0.480423 0.497174 0.318274 0.515434
C7    C     C_1   0.467020 0.493932 0.215507 -0.072195
C8    C     C_1   0.532940 0.500141 0.784775 -0.059201
C9    C     C_2   0.450026 0.489952 0.023822 0.288665
C10   C     C_2   0.549613 0.501694 0.976607 0.286841
C11   C     C_1   0.542551 0.500857 0.871550 -0.027307
C12   C     C_R   0.521381 0.700617 0.503240 0.560898
C13   C     C_1   0.457337 0.491646 0.128823 -0.040333
C14   C     C_R   0.529842 0.814253 0.497548 -0.031515
C15   C     C_R   0.464315 0.186527 0.498456 -0.065882
C16   C     C_R   0.363402 0.020255 0.557822 0.267412
C17   C     C_R   0.613489 0.977274 0.415064 0.246515
C18   C     C_R   0.375885 0.127757 0.550719 -0.174145
C19   C     C_R   0.610532 0.871159 0.435792 -0.193840
C20   C     C_R   0.537472 0.137198 0.445237 0.259813
C21   C     C_R   0.452331 0.864232 0.546279 0.267423
C22   C     C_3   0.751487 0.542000 0.973569 -0.013456
C23   C     C_R   0.533183 0.028221 0.458766 -0.028234
C24   C     C_3   0.858990 0.557863 0.039577 -0.381002
C25   C     C_3   0.247910 0.456997 0.027787 -0.014741
C26   C     C_3   0.139905 0.443794 0.962416 -0.372646
C27   C     C_3   0.313427 0.761222 0.643746 0.025298
C28   C     C_3   0.320328 0.674745 0.719960 -0.339248
C29   C     C_3   0.559501 0.221783 0.297600 0.013878
C30   C     C_3   0.645998 0.287232 0.230820 -0.344796
C31   C     C_3   0.177156 0.946634 0.528235 -0.028583
C32   C     C_3   0.063809 0.899655 0.574903 -0.351251
C33   C     C_3   0.704422 0.000487 0.268180 0.004091
C34   C     C_R   0.448199 0.969699 0.520373 -0.022310
C35   C     C_3   0.823434 0.037532 0.227568 -0.380875
C36   C     C_3   0.805170 0.391420 0.684837 0.028982
C37   C     C_3   0.726527 0.309952 0.745135 -0.346359
C38   C     C_3   0.206782 0.609482 0.312831 0.043247
C39   C     C_3   0.298571 0.685116 0.258367 -0.358669
C40   C     C_3   0.952415 0.209012 0.515761 0.035029
C41   C     C_3   0.878091 0.108096 0.551835 -0.324176
C42   C     C_3   0.987888 0.770418 0.322569 0.009842
C43   C     C_3   0.079598 0.840268 0.263487 -0.410377
C44   C     C_R   0.026452 0.375921 0.554814 0.251445
C45   C     C_R   0.972654 0.623454 0.432698 0.249675
C46   C     C_R   0.147291 0.394114 0.561702 0.332395
C47   C     C_R   0.849379 0.605756 0.435736 0.314743
C48   C     C_R   0.155066 0.551256 0.466715 0.361265
Cu1   Cu    Cu3+1 0.615220 0.507680 0.492970 1.008757
Cu2   Cu    Cu3+1 0.384780 0.492320 0.507030 0.955953
H1    H     H_    0.673997 0.832810 0.404823 0.172657
H2    H     H_    0.140400 0.379845 0.911691 0.173544
H3    H     H_    0.062199 0.424187 0.007109 0.081995
H4    H     H_    0.136152 0.517403 0.919900 0.149056
H5    H     H_    0.280005 0.729124 0.573015 0.186017
H6    H     H_    0.248226 0.802953 0.670672 0.189259
H7    H     H_    0.302222 0.700490 0.792667 0.128597
H8    H     H_    0.256442 0.603848 0.702461 0.122990
H9    H     H_    0.408424 0.656848 0.724276 0.199468
H10   H     H_    0.491595 0.268207 0.311082 0.111643
H11   H     H_    0.518519 0.149943 0.259863 0.101433
H12   H     H_    0.314806 0.165075 0.586560 0.194781
H13   H     H_    0.688064 0.359499 0.267000 0.182157
H14   H     H_    0.713012 0.242263 0.212167 0.142088
H15   H     H_    0.601280 0.309105 0.162938 0.120678
H16   H     H_    0.198120 0.890055 0.476461 0.166460
H17   H     H_    0.164230 0.019797 0.487885 0.117278
H18   H     H_    0.992237 0.894110 0.519734 0.128950
H19   H     H_    0.066942 0.820012 0.605251 0.146287
H20   H     H_    0.046322 0.949635 0.633814 0.158245
H21   H     H_    0.640377 0.035150 0.222801 0.131789
H22   H     H_    0.683901 0.914334 0.261492 0.105257
H23   H     H_    0.746896 0.617244 0.933641 0.133841
H24   H     H_    0.888220 0.001507 0.270838 0.136672
H25   H     H_    0.823974 0.014604 0.151030 0.095389
H26   H     H_    0.847459 0.123727 0.230716 0.151340
H27   H     H_    0.789143 0.470340 0.701135 0.120568
H28   H     H_    0.895571 0.388494 0.708467 0.147927
H29   H     H_    0.741149 0.326062 0.823336 0.077809
H30   H     H_    0.634882 0.311377 0.724692 0.160915
H31   H     H_    0.745021 0.231004 0.732440 0.169777
H32   H     H_    0.120908 0.619891 0.283193 0.133109
H33   H     H_    0.214502 0.527899 0.297737 0.119556
H34   H     H_    0.759374 0.480860 0.921551 0.125224
H35   H     H_    0.386025 0.672367 0.281226 0.159505
H36   H     H_    0.286063 0.674778 0.179092 0.075599
H37   H     H_    0.294097 0.766858 0.274820 0.147807
H38   H     H_    0.736272 0.645555 0.347761 0.337768
H39   H     H_    0.268659 0.354505 0.643173 0.361309
H40   H     H_    0.037294 0.191412 0.495661 0.137227
H41   H     H_    0.908433 0.238529 0.450211 0.156181
H42   H     H_    0.789350 0.121255 0.564060 0.198525
H43   H     H_    0.874398 0.047125 0.497377 0.133908
H44   H     H_    0.915262 0.080375 0.620993 0.144691
H45   H     H_    0.866783 0.483722 0.079765 0.147832
H46   H     H_    0.933904 0.822864 0.351927 0.186410
H47   H     H_    0.936597 0.714490 0.271586 0.130193
H48   H     H_    0.117412 0.793208 0.212562 0.130299
H49   H     H_    0.039532 0.898096 0.219242 0.091411
H50   H     H_    0.148170 0.883074 0.311308 0.149415
H51   H     H_    0.936641 0.582902 0.995627 0.087151
H52   H     H_    0.854135 0.618915 0.092402 0.150299
H53   H     H_    0.244530 0.521519 0.077361 0.123307
H54   H     H_    0.248205 0.382632 0.070446 0.127313
N1    N     N_R   0.788370 0.519230 0.482390 -0.243357
N2    N     N_R   0.211630 0.480770 0.517610 -0.272679
O1    O     O_R   0.581500 0.354430 0.495010 -0.404729
O2    O     O_3   0.345899 0.480940 0.969843 -0.580047
O3    O     O_3   0.421733 0.828650 0.639948 -0.539033
O4    O     O_3   0.616999 0.196385 0.384684 -0.483096
O5    O     O_3   0.265718 0.966464 0.600589 -0.549834
O6    O     O_3   0.705020 0.033836 0.364539 -0.520355
O7    O     O_3   0.784340 0.369079 0.585480 -0.473021
O8    O     O_3   0.219684 0.630945 0.412768 -0.491733
O9    O     O_3   0.791362 0.680245 0.396937 -0.726595
O10   O     O_3   0.197218 0.319292 0.611237 -0.684336
O11   O     O_3   0.966828 0.281581 0.590357 -0.515376
O12   O     O_R   0.418500 0.645570 0.504990 -0.461564
O13   O     O_3   0.038711 0.718850 0.400857 -0.543526
O14   O     O_R   0.386890 0.341450 0.506880 -0.511950
O15   O     O_R   0.613110 0.658550 0.493120 -0.465027
O16   O     O_R   0.611060 0.507430 0.631070 -0.493922
O17   O     O_R   0.388940 0.492570 0.368930 -0.497016
O18   O     O_R   0.416450 0.494450 0.642940 -0.531313
O19   O     O_R   0.583550 0.505550 0.357060 -0.518232
O20   O     O_3   0.653667 0.510435 0.030612 -0.589414

loop_
_geom_bond_atom_site_label_1
_geom_bond_atom_site_label_2
_ccdc_geom_bond_type
C15   C18   A    
C26   H3    S    
C35   H24   S    
C30   H14   S    
C38   H33   S    
C31   H16   S    
C43   H48   S    
C39   H37   S    
C48   N2    A    
Cu1   O1    S    
C28   H7    S    
C9    O2    S    
C47   O9    S    
C37   H29   S    
C5    O18   A    
C35   H25   S    
C17   C23   A    
Cu2   O14   S    
C14   C21   A    
C36   C37   S    
C43   H49   S    
C36   H27   S    
C38   C39   S    
C38   O8    S    
C2    O7    S    
C27   H5    S    
C42   O13   S    
C22   O20   S    
C3    C48   A    
C24   H51   S    
C9    C13   S    
C33   H22   S    
C16   C34   A    
C41   H43   S    
C12   O15   A    
C41   H44   S    
C47   N1    A    
C29   H10   S    
C1    C15   S    
C9    C10   D    
C32   H18   S    
C45   O13   S    
C40   O11   S    
H39   O10   S    
C30   H13   S    
C38   H32   S    
C37   H31   S    
C6    O17   A    
C36   O7    S    
C26   H4    S    
C44   C46   A    
C45   C47   A    
C15   C20   A    
C37   H30   S    
C29   H11   S    
C35   H26   S    
C29   O4    S    
Cu2   O18   S    
C43   H50   S    
C42   H47   S    
C33   H21   S    
C27   H6    S    
C25   H53   S    
C32   H20   S    
C21   C34   A    
C4    C44   A    
C25   C26   S    
C5    O16   A    
C3    C45   A    
C1    O14   A    
C22   H34   S    
C2    C4    A    
C29   C30   S    
C26   H2    S    
C21   O3    S    
C31   C32   S    
C20   C23   A    
C23   C34   A    
Cu1   O15   S    
C33   O6    S    
C6    C7    S    
C1    O1    A    
C20   O4    S    
C40   C41   S    
C12   C14   S    
C22   C24   S    
C24   H45   S    
C42   C43   S    
C39   H35   S    
C17   C19   A    
C3    C4    A    
C17   O6    S    
C48   O8    S    
C12   O12   A    
C28   H9    S    
Cu2   O12   S    
C14   C19   A    
C18   H12   S    
Cu2   O17   S    
C6    O19   A    
C5    C8    S    
Cu1   N1    S    
C25   H54   S    
C32   H19   S    
C28   H8    S    
Cu1   O19   S    
C2    N1    A    
C39   H36   S    
C46   O10   S    
C42   H46   S    
H38   O9    S    
C16   O5    S    
C36   H28   S    
C44   O11   S    
C8    C11   T    
Cu1   O16   S    
C46   N2    A    
C33   C35   S    
C24   H52   S    
C40   H41   S    
C30   H15   S    
C10   C11   S    
C31   H17   S    
C19   H1    S    
C7    C13   T    
C41   H42   S    
C27   O3    S    
C16   C18   A    
Cu1   Cu2   S    
C27   C28   S    
Cu2   N2    S    
C31   O5    S    
C22   H23   S    
C40   H40   S    
C10   O20   S    
C25   O2    S    
