data_mof_unit_59016.cif
_audit_creation_date              2012-10-26T21:00:16-0400
_audit_creation_method            fapswitch 2.2
_symmetry_space_group_name_H-M    P1
_symmetry_Int_Tables_number       1
_space_group_crystal_system       triclinic
_cell_length_a                    19.147814
_cell_length_b                    8.663365
_cell_length_c                    7.566035
_cell_angle_alpha                 103.385459
_cell_angle_beta                  92.233019
_cell_angle_gamma                 92.155184
_cell_volume                      1218.66160971

loop_
_atom_site_label
_atom_site_type_symbol
_atom_type_description
_atom_site_fract_x
_atom_site_fract_y
_atom_site_fract_z
_atom_type_partial_charge
C1    C     C_R   0.498914 0.200313 0.453213 0.537158
C2    C     C_R   0.830840 0.562340 0.475014 -0.014635
C3    C     C_R   0.149415 0.479480 0.605242 0.007855
C4    C     C_R   0.856088 0.469413 0.592194 0.015190
C5    C     C_R   0.176641 0.376146 0.455098 -0.152255
C6    C     C_R   0.809514 0.363457 0.647881 -0.140941
C7    C     C_R   0.247089 0.389020 0.417340 -0.167254
C8    C     C_R   0.737799 0.363143 0.604053 -0.141426
C9    C     C_R   0.291716 0.507065 0.527617 -0.006742
C10   C     C_R   0.711002 0.468971 0.506265 -0.001412
C11   C     C_R   0.931625 0.467006 0.632298 0.327017
C12   C     C_R   0.502752 0.799789 0.546605 0.555109
C13   C     C_R   0.073201 0.472231 0.629194 0.330128
C14   C     C_R   0.308640 0.754328 0.779334 0.049966
C15   C     C_R   0.328296 0.767788 0.963272 -0.046098
C16   C     C_R   0.359827 0.909533 0.067001 -0.102344
C17   C     C_R   0.373165 0.037083 0.986941 -0.117782
C18   C     C_R   0.355831 0.022584 0.802570 -0.126899
C19   C     C_R   0.323746 0.881461 0.698620 -0.094873
C20   C     C_R   0.747149 0.501620 0.223190 0.044496
C21   C     C_R   0.743834 0.338174 0.139469 -0.094459
C22   C     C_R   0.694024 0.280572 0.000838 -0.142246
C23   C     C_2   0.500288 0.031891 0.427769 -0.174289
C24   C     C_R   0.653650 0.387984 0.937916 -0.050564
C25   C     C_R   0.670549 0.552915 0.994659 -0.064781
C26   C     C_R   0.716382 0.610088 0.141187 -0.098118
C27   C     C_R   0.168877 0.700832 0.887559 0.047513
C28   C     C_R   0.158061 0.862149 0.898482 -0.057552
C29   C     C_R   0.141177 0.961295 0.063319 -0.115899
C30   C     C_R   0.135160 0.900249 0.218047 -0.114657
C31   C     C_R   0.145036 0.739366 0.207502 -0.118458
C32   C     C_R   0.161544 0.639551 0.042605 -0.105537
C33   C     C_R   0.878648 0.652155 0.380359 0.054744
C34   C     C_2   0.504614 0.968522 0.571948 -0.163852
C35   C     C_R   0.871526 0.815760 0.398472 -0.084762
C36   C     C_R   0.911560 0.898313 0.296494 -0.109082
C37   C     C_R   0.958337 0.817786 0.174599 -0.084085
C38   C     C_R   0.965813 0.655015 0.156081 -0.091436
C39   C     C_R   0.926008 0.572115 0.257985 -0.075378
C40   C     C_R   0.367781 0.502629 0.506254 0.543696
C41   C     C_R   0.633041 0.490924 0.496847 0.539240
C42   C     C_R   0.264770 0.615642 0.675824 -0.030869
C43   C     C_R   0.759836 0.544258 0.416852 -0.038594
C44   C     C_R   0.194088 0.598620 0.718668 -0.023701
Cu1   Cu    Cu3+1 0.507710 0.517380 0.684380 0.907680
Cu2   Cu    Cu3+1 0.492290 0.482620 0.315620 0.925718
H1    H     H_    0.142986 0.285846 0.365309 0.124554
H2    H     H_    0.372318 0.921484 0.210298 0.108369
H3    H     H_    0.396058 0.147831 0.067972 0.142763
H4    H     H_    0.366129 0.121647 0.740982 0.113030
H5    H     H_    0.308408 0.873177 0.557244 0.098159
H6    H     H_    0.770413 0.254535 0.201959 0.107009
H7    H     H_    0.684176 0.153930 0.949230 0.096000
H8    H     H_    0.611517 0.339189 0.840652 0.175440
H9    H     H_    0.645029 0.641300 0.939993 0.138644
H10   H     H_    0.720859 0.736297 0.203126 0.091103
H11   H     H_    0.163926 0.911206 0.780273 0.112659
H12   H     H_    0.828512 0.281496 0.725168 0.126523
H13   H     H_    0.133228 0.085632 0.071165 0.103882
H14   H     H_    0.122362 0.977283 0.345778 0.126174
H15   H     H_    0.140147 0.692214 0.327244 0.132495
H16   H     H_    0.170400 0.515744 0.036742 0.106907
H17   H     H_    0.834317 0.878632 0.489622 0.101040
H18   H     H_    0.905650 0.024270 0.310236 0.127002
H19   H     H_    0.988397 0.881326 0.093552 0.142553
H20   H     H_    0.001793 0.592553 0.061100 0.147808
H21   H     H_    0.930823 0.445193 0.238515 0.115879
H22   H     H_    0.267147 0.304170 0.304363 0.122035
H23   H     H_    0.703313 0.274581 0.638305 0.110044
H24   H     H_    0.497427 0.959684 0.289302 0.128003
H25   H     H_    0.508478 0.040792 0.710481 0.128868
H26   H     H_    0.453140 0.364193 0.950016 0.231892
H27   H     H_    0.541017 0.643343 0.050769 0.236990
H28   H     H_    0.316771 0.670887 0.027532 0.119142
N1    N     N_R   0.034964 0.332401 0.579347 -0.248214
N2    N     N_R   0.969876 0.606039 0.685572 -0.226786
N3    N     N_R   0.965355 0.329851 0.580958 -0.254946
N4    N     N_R   0.039250 0.608438 0.684351 -0.232412
N5    N     N_2   0.480680 0.456420 0.038530 -0.267954
N6    N     N_2   0.519320 0.543580 0.961470 -0.286027
O1    O     O_R   0.505010 0.286130 0.619770 -0.527983
O2    O     O_R   0.494990 0.713870 0.380230 -0.507218
O3    O     O_R   0.491990 0.256780 0.308370 -0.508491
O4    O     O_R   0.508010 0.743220 0.691630 -0.490520
O5    O     O_R   0.406650 0.514660 0.655750 -0.486010
O6    O     O_R   0.593350 0.485340 0.344250 -0.472294
O7    O     O_R   0.393640 0.485310 0.344340 -0.504688
O8    O     O_R   0.606360 0.514690 0.655660 -0.535953

loop_
_geom_bond_atom_site_label_1
_geom_bond_atom_site_label_2
_ccdc_geom_bond_type
C31   H15   S    
C2    C4    A    
C35   C36   A    
C16   H2    S    
C28   H11   S    
C41   O6    A    
C5    H1    S    
C9    C42   A    
C29   C30   A    
C40   O7    A    
C28   C29   A    
N2    N4    A    
H26   N5    S    
C11   N2    A    
C38   C39   A    
C24   H8    S    
C15   C16   A    
C12   O4    A    
C18   C19   A    
C6    H12   S    
C11   N3    A    
C7    H22   S    
Cu2   O2    S    
C27   C44   S    
Cu2   N5    S    
C29   H13   S    
C16   C17   A    
C30   H14   S    
C3    C13   S    
C14   C42   S    
C27   C32   A    
C21   C22   A    
C10   C41   S    
C23   H24   S    
C42   C44   A    
C22   H7    S    
C3    C44   A    
C13   N1    A    
Cu1   O8    S    
C24   C25   A    
C4    C6    A    
C17   H3    S    
C5    C7    A    
C6    C8    A    
C25   C26   A    
Cu1   Cu2   S    
C9    C40   S    
Cu2   O3    S    
C37   H19   S    
C40   O5    A    
Cu1   O5    S    
C37   C38   A    
C31   C32   A    
C2    C43   A    
C23   C34   D    
C17   C18   A    
C8    H23   S    
C12   O2    A    
C33   C39   A    
C4    C11   S    
N1    N3    A    
C2    C33   S    
C1    C23   S    
C22   C24   A    
Cu1   O4    S    
C12   C34   S    
C20   C43   S    
C18   H4    S    
Cu2   O7    S    
C7    C9    A    
C41   O8    A    
C38   H20   S    
C13   N4    A    
C36   C37   A    
C10   C43   A    
C39   H21   S    
C14   C19   A    
Cu1   O1    S    
C25   H9    S    
C3    C5    A    
C26   H10   S    
C1    O3    A    
C32   H16   S    
C30   C31   A    
C20   C26   A    
C33   C35   A    
H27   N6    S    
Cu1   N6    S    
N5    N6    D    
C19   H5    S    
C15   H28   S    
C20   C21   A    
C8    C10   A    
C27   C28   A    
C14   C15   A    
C35   H17   S    
C36   H18   S    
C1    O1    A    
C34   H25   S    
C21   H6    S    
Cu2   O6    S    
