data_mof_unit_39352.cif
_audit_creation_date              2012-12-10T19:46:51-0500
_audit_creation_method            fapswitch 2.2
_symmetry_space_group_name_H-M    P1
_symmetry_Int_Tables_number       1
_space_group_crystal_system       triclinic
_cell_length_a                    10.889003
_cell_length_b                    10.895593
_cell_length_c                    13.13867
_cell_angle_alpha                 90.449434
_cell_angle_beta                  90.716772
_cell_angle_gamma                 90.135434
_cell_volume                      1558.62533741

loop_
_atom_site_label
_atom_site_type_symbol
_atom_type_description
_atom_site_fract_x
_atom_site_fract_y
_atom_site_fract_z
_atom_type_partial_charge
C1    C     C_R   0.503198 0.259767 0.499577 0.890229
C2    C     C_R   0.499802 0.740386 0.500274 0.917643
C3    C     C_R   0.872672 0.488510 0.501023 -0.088021
C4    C     C_R   0.126887 0.502045 0.497602 -0.096231
C5    C     C_R   0.940900 0.452844 0.587859 -0.005130
C6    C     C_R   0.058581 0.532710 0.409507 -0.016430
C7    C     C_R   0.679287 0.222498 0.187796 0.544791
C8    C     C_R   0.337306 0.825759 0.834504 0.539521
C9    C     C_R   0.603177 0.163264 0.258989 -0.231525
C10   C     C_R   0.400884 0.886694 0.756375 -0.176719
C11   C     C_R   0.650730 0.126059 0.353397 0.144116
C12   C     C_R   0.361531 0.875618 0.654601 0.137647
C13   C     C_R   0.773531 0.150937 0.378945 -0.138719
C14   C     C_R   0.256375 0.806208 0.630652 -0.148996
C15   C     C_R   0.847764 0.214269 0.311150 -0.237446
C16   C     C_R   0.191249 0.748565 0.707712 -0.211125
C17   C     C_R   0.800734 0.250151 0.216507 -0.169786
C18   C     C_R   0.231161 0.758761 0.808917 -0.186773
C19   C     C_R   0.566483 0.934149 0.425366 0.444729
C20   C     C_R   0.429195 0.066146 0.570153 0.441265
C21   C     C_R   0.498424 0.872933 0.500049 -0.279570
C22   C     C_R   0.501050 0.127369 0.498238 -0.279143
C23   C     C_R   0.259501 0.504115 0.499202 0.813968
C24   C     C_R   0.740142 0.491956 0.500538 0.832789
C25   C     C_R   0.430821 0.938369 0.573495 -0.154690
C26   C     C_R   0.570373 0.062068 0.426057 -0.147762
C27   C     C_1   0.499738 0.500648 0.173621 0.158502
C28   C     C_1   0.499766 0.500234 0.826384 0.142351
C29   C     C_1   0.499442 0.501136 0.050673 -0.017872
C30   C     C_1   0.499501 0.500724 0.949314 -0.070737
C31   C     C_R   0.224786 0.726847 0.216720 -0.123313
C32   C     C_R   0.762391 0.237779 0.756922 -0.133073
C33   C     C_R   0.173402 0.688410 0.308173 -0.108030
C34   C     C_R   0.810300 0.292847 0.670299 -0.100019
C35   C     C_R   0.115078 0.573575 0.313612 0.135162
C36   C     C_R   0.884575 0.398223 0.679380 0.122126
C37   C     C_R   0.107957 0.498372 0.226424 -0.141464
C38   C     C_R   0.910666 0.446981 0.776684 -0.161003
C39   C     C_R   0.159843 0.536972 0.135279 -0.160674
C40   C     C_R   0.862930 0.391303 0.863212 -0.128379
C41   C     C_R   0.218207 0.651078 0.130466 -0.117558
C42   C     C_R   0.789465 0.286486 0.853272 -0.114252
C43   C     C_R   0.931846 0.525540 0.412477 -0.219598
C44   C     C_R   0.067834 0.462520 0.585449 -0.268725
Cu1   Cu    Cu3+1 0.499990 0.499990 0.592680 0.998063
Cu2   Cu    Cu3+1 0.500010 0.500010 0.407320 0.983330
H1    H     H_    0.258293 0.680606 0.059894 0.176247
H2    H     H_    0.754494 0.242299 0.920219 0.177298
H3    H     H_    0.811382 0.121778 0.451341 0.126161
H4    H     H_    0.224514 0.797696 0.552576 0.104919
H5    H     H_    0.942138 0.235090 0.331760 0.152798
H6    H     H_    0.109284 0.696340 0.689082 0.157977
H7    H     H_    0.269129 0.815580 0.212526 0.124268
H8    H     H_    0.705306 0.156640 0.749398 0.129488
H9    H     H_    0.178594 0.747981 0.374385 0.093861
H10   H     H_    0.790100 0.253107 0.596289 0.089399
H11   H     H_    0.062894 0.409791 0.229326 0.113740
H12   H     H_    0.968303 0.527628 0.785485 0.118666
H13   H     H_    0.154741 0.478513 0.068357 0.129383
H14   H     H_    0.883712 0.428791 0.938028 0.135229
H15   H     H_    0.879056 0.551740 0.345530 0.169335
H16   H     H_    0.121212 0.434823 0.651609 0.161227
H17   H     H_    0.859571 0.298555 0.164389 0.134550
H18   H     H_    0.179456 0.713902 0.867925 0.135361
H19   H     H_    0.507255 0.145199 0.242314 0.121238
H20   H     H_    0.480312 0.943256 0.773829 0.129942
N1    N     N_1   0.500030 0.500030 0.268070 -0.143368
N2    N     N_1   0.499970 0.499970 0.731930 -0.129493
O1    O     O_R   0.499980 0.319630 0.578260 -0.539197
O2    O     O_R   0.500020 0.680370 0.421740 -0.560552
O3    O     O_R   0.500000 0.319650 0.421740 -0.591392
O4    O     O_R   0.500000 0.680350 0.578260 -0.585399
O5    O     O_R   0.319630 0.500000 0.578260 -0.575607
O6    O     O_R   0.680370 0.500000 0.421740 -0.577380
O7    O     O_R   0.319650 0.500020 0.421740 -0.578733
O8    O     O_R   0.680350 0.499980 0.578260 -0.578146
O9    O     O_3   0.641848 0.868078 0.360592 -0.565120
C45   C     C_3   0.583545 0.853074 0.264498 -0.259794
H21   H     H_    0.616680 0.923699 0.211150 0.153402
H22   H     H_    0.481261 0.854860 0.267077 0.131132
H23   H     H_    0.610171 0.762521 0.232662 0.182999
O10   O     O_3   0.360574 0.131498 0.640197 -0.562056
C46   C     C_3   0.243218 0.153609 0.597490 -0.280743
H24   H     H_    0.194302 0.066421 0.578599 0.151580
H25   H     H_    0.248910 0.212221 0.528727 0.139154
H26   H     H_    0.187497 0.203576 0.654399 0.187342
O11   O     O_3   0.639577 0.261186 0.092150 -0.609174
C47   C     C_3   0.542831 0.188561 0.051661 -0.364930
H27   H     H_    0.560052 0.088769 0.061899 0.152325
H28   H     H_    0.453885 0.216136 0.085338 0.180210
H29   H     H_    0.535491 0.205276 0.968638 0.199649
O12   O     O_3   0.369108 0.836413 0.937011 -0.600490
C48   C     C_3   0.497519 0.832070 0.952699 -0.387016
H30   H     H_    0.515976 0.807968 0.033314 0.183059
H31   H     H_    0.539317 0.923447 0.939523 0.165132
H32   H     H_    0.542166 0.760882 0.904533 0.168055

loop_
_geom_bond_atom_site_label_1
_geom_bond_atom_site_label_2
_ccdc_geom_bond_type
C33   H9    S    
O11   C47   S    
C34   H10   S    
C48   H30   S    
C40   H14   S    
C20   O10   S    
C27   C29   S    
C24   O6    A    
C39   C41   A    
O9    C45   S    
C3    C43   A    
C1    O3    A    
Cu1   O8    S    
C35   C37   A    
C23   O5    A    
C45   H22   S    
C20   C25   A    
C5    C36   S    
C6    C35   S    
Cu1   O5    S    
C19   O9    S    
C19   C26   A    
C38   H12   S    
C7    O11   S    
C7    C17   A    
C31   C33   A    
C8    O12   S    
C15   H5    S    
C40   C42   A    
C1    C22   S    
C48   H31   S    
C1    O1    A    
Cu1   O4    S    
C3    C24   S    
C2    C21   S    
C2    O4    A    
C32   H8    S    
Cu2   O7    S    
C10   H20   S    
Cu1   O1    S    
C4    C6    A    
C23   O7    A    
C4    C23   S    
C45   H21   S    
C24   O8    A    
C4    C44   A    
C11   C26   S    
C44   H16   S    
Cu1   Cu2   S    
C8    C18   A    
C32   C34   A    
C29   C30   T    
C46   H24   S    
C47   H29   S    
C39   H13   S    
Cu1   N2    S    
C41   H1    S    
C42   H2    S    
C31   H7    S    
C9    C11   A    
Cu2   O3    S    
C10   C12   A    
C13   H3    S    
C16   C18   A    
C46   H25   S    
C5    C44   A    
C20   C22   A    
C48   H32   S    
C6    C43   A    
C13   C15   A    
C14   C16   A    
Cu2   O6    S    
C43   H15   S    
C15   C17   A    
C21   C25   A    
C31   C41   A    
C28   N2    T    
C16   H6    S    
C47   H28   S    
C3    C5    A    
C12   C25   S    
C36   C38   A    
C12   C14   A    
Cu2   N1    S    
C37   C39   A    
C17   H17   S    
C38   C40   A    
C11   C13   A    
C45   H23   S    
C18   H18   S    
C14   H4    S    
C28   C30   S    
O12   C48   S    
C33   C35   A    
C34   C36   A    
C9    H19   S    
Cu2   O2    S    
C27   N1    T    
C7    C9    A    
C46   H26   S    
C47   H27   S    
C8    C10   A    
O10   C46   S    
C22   C26   A    
C32   C42   A    
C2    O2    A    
C37   H11   S    
C19   C21   A    
