data_mof_unit_48027.cif
_audit_creation_date              2012-12-10T20:36:42-0500
_audit_creation_method            fapswitch 2.2
_symmetry_space_group_name_H-M    P1
_symmetry_Int_Tables_number       1
_space_group_crystal_system       triclinic
_cell_length_a                    10.536189
_cell_length_b                    10.658044
_cell_length_c                    9.88794
_cell_angle_alpha                 89.872284
_cell_angle_beta                  89.484761
_cell_angle_gamma                 90.362762
_cell_volume                      1110.29781153

loop_
_atom_site_label
_atom_site_type_symbol
_atom_type_description
_atom_site_fract_x
_atom_site_fract_y
_atom_site_fract_z
_atom_type_partial_charge
C1    C     C_R   0.497873 0.260243 0.500272 0.830069
C2    C     C_3   0.957429 0.598495 0.432483 -0.191236
C3    C     C_3   0.044131 0.496699 0.370627 -0.163476
C4    C     C_3   0.122558 0.500724 0.500092 -0.007958
C5    C     C_R   0.529081 0.063724 0.615857 0.210488
C6    C     C_R   0.487431 0.128320 0.502539 -0.094392
C7    C     C_R   0.428248 0.064614 0.396353 -0.229008
C8    C     C_R   0.428740 0.934859 0.395825 -0.220623
C9    C     C_R   0.487436 0.871425 0.502216 -0.114402
C10   C     C_R   0.528721 0.935911 0.615775 0.172382
C11   C     C_3   0.653694 0.928783 0.685584 -0.502997
C12   C     C_R   0.257409 0.501325 0.500307 0.858384
C13   C     C_3   0.654339 0.070962 0.685501 -0.496304
C14   C     C_R   0.415536 0.427622 0.072587 0.163656
C15   C     C_R   0.576321 0.579283 0.070915 -0.110066
C16   C     C_R   0.576609 0.579059 0.927092 -0.123499
C17   C     C_R   0.413563 0.428319 0.930127 0.171229
C18   C     C_3   0.399421 0.287666 0.928431 0.236615
C19   C     C_3   0.404696 0.289262 0.082029 -0.564039
C20   C     C_R   0.498574 0.739737 0.499997 0.875895
C21   C     C_R   0.742548 0.497532 0.499440 0.847348
C22   C     C_3   0.043170 0.396625 0.565559 -0.186911
C23   C     C_3   0.962726 0.392779 0.436825 0.009905
C24   C     C_3   0.877408 0.493748 0.497966 -0.031731
C25   C     C_3   0.956771 0.498504 0.626998 -0.101819
C26   C     C_3   0.039043 0.602895 0.561449 -0.158620
H1    H     H_    0.729516 0.887487 0.620863 0.200165
H2    H     H_    0.646554 0.111437 0.788609 0.210367
H3    H     H_    0.730609 0.112607 0.620939 0.206382
H4    H     H_    0.639912 0.641562 0.124289 0.143902
H5    H     H_    0.640514 0.641019 0.872198 0.145574
H6    H     H_    0.480964 0.239095 0.880392 0.094138
H7    H     H_    0.315837 0.261169 0.135576 0.228653
H8    H     H_    0.492226 0.245406 0.122017 0.187115
H9    H     H_    0.075184 0.311907 0.619479 0.205388
H10   H     H_    0.918921 0.498654 0.732172 0.171188
H11   H     H_    0.074808 0.688730 0.612267 0.153443
H12   H     H_    0.918678 0.680836 0.378011 0.138617
H13   H     H_    0.082551 0.496457 0.265648 0.166874
H14   H     H_    0.386688 0.114376 0.312403 0.164851
H15   H     H_    0.388199 0.884893 0.311060 0.174621
H16   H     H_    0.644593 0.887446 0.788563 0.210418
N1    N     N_R   0.499140 0.499140 0.142800 -0.102734
N2    N     N_R   0.499140 0.499180 0.857150 -0.135039
O1    O     O_R   0.500020 0.316790 0.614690 -0.625006
O2    O     O_R   0.500000 0.316760 0.385350 -0.627453
O3    O     O_R   0.313960 0.499990 0.614650 -0.598074
O4    O     O_R   0.313940 0.499950 0.385310 -0.624732
O5    O     O_R   0.500000 0.683240 0.614650 -0.610313
O6    O     O_R   0.499980 0.683210 0.385310 -0.624591
O7    O     O_R   0.686060 0.500050 0.614690 -0.627603
O8    O     O_R   0.686040 0.500010 0.385350 -0.618732
Zn1   Zn    Zn3+2 0.500010 0.500020 0.653130 0.962530
Zn2   Zn    Zn3+2 0.499990 0.499980 0.346870 0.942384
C27   C     C_R   0.938302 0.268921 0.368173 0.105013
C28   C     C_R   0.041531 0.201690 0.314647 -0.120647
C29   C     C_R   0.022520 0.084336 0.254993 -0.059326
C30   C     C_R   0.900402 0.032971 0.248477 -0.112883
C31   C     C_R   0.797408 0.098801 0.302068 -0.155027
C32   C     C_R   0.816432 0.216092 0.361969 -0.144372
H17   H     H_    0.136929 0.239738 0.320234 0.120131
H18   H     H_    0.102572 0.032959 0.214589 0.153754
H19   H     H_    0.885698 0.941917 0.202740 0.126312
H20   H     H_    0.702996 0.058459 0.298262 0.149500
H21   H     H_    0.736763 0.263734 0.405757 0.137390
S1    S     S_3+6 0.247507 0.234477 0.869487 0.022924
O9    O     O_2   0.197596 0.132060 0.960567 -0.283033
O10   O     O_2   0.154343 0.340770 0.869599 -0.326733
O11   O     O_3   0.261869 0.175126 0.713051 -0.548295
H22   H     H_    0.274508 0.248802 0.653663 0.344067

loop_
_geom_bond_atom_site_label_1
_geom_bond_atom_site_label_2
_ccdc_geom_bond_type
S1    O10   D    
C23   C24   S    
C13   H2    S    
C23   C27   S    
C6    C7    A    
C4    C12   S    
C4    C22   S    
C9    C10   A    
C2    H12   S    
N1    Zn2   S    
C4    C26   S    
C12   O4    A    
C11   H1    S    
O3    Zn1   S    
C5    C13   S    
O2    Zn2   S    
C27   C28   A    
C17   C18   S    
C29   C30   A    
C17   N2    A    
O1    Zn1   S    
C7    C8    A    
C2    C26   S    
C26   H11   S    
O6    Zn2   S    
C27   C32   A    
C8    H15   S    
C16   H5    S    
O4    Zn2   S    
C22   H9    S    
C11   C13   S    
C14   C17   A    
C1    O1    A    
C31   H20   S    
C20   O5    A    
C31   C32   A    
C11   H16   S    
C12   O3    A    
O5    Zn1   S    
C5    C6    A    
N2    Zn1   S    
C13   H3    S    
O8    Zn2   S    
C32   H21   S    
C2    C3    S    
C21   O7    A    
C2    C24   S    
O11   H22   S    
C1    O2    A    
C30   C31   A    
S1    O11   S    
C18   S1    S    
C10   C11   S    
C25   H10   S    
C15   N1    A    
C15   C16   A    
C5    C10   A    
C18   H6    S    
C24   C25   S    
C3    C4    S    
C15   H4    S    
C18   C19   S    
C19   H7    S    
C21   C24   S    
S1    O9    D    
C28   C29   A    
C16   N2    A    
C28   H17   S    
C14   N1    A    
C20   O6    A    
C9    C20   S    
C29   H18   S    
C25   C26   S    
C22   C23   S    
C7    H14   S    
C3    C23   S    
C14   C19   S    
C22   C25   S    
C21   O8    A    
C3    H13   S    
C30   H19   S    
C8    C9    A    
O7    Zn1   S    
C19   H8    S    
C1    C6    S    
