data_mof_unit_11772.cif
_audit_creation_date              2012-12-10T22:11:14-0500
_audit_creation_method            fapswitch 2.2
_symmetry_space_group_name_H-M    P1
_symmetry_Int_Tables_number       1
_space_group_crystal_system       triclinic
_cell_length_a                    12.123299
_cell_length_b                    12.274452
_cell_length_c                    23.019401
_cell_angle_alpha                 90.584637
_cell_angle_beta                  90.224425
_cell_angle_gamma                 90.542554
_cell_volume                      3425.08510465

loop_
_atom_site_label
_atom_site_type_symbol
_atom_type_description
_atom_site_fract_x
_atom_site_fract_y
_atom_site_fract_z
_atom_type_partial_charge
C1    C     C_R   0.658487 0.998171 0.578925 0.958584
C2    C     C_R   0.100289 0.868497 0.822177 -0.167643
C3    C     C_R   0.902647 0.208349 0.134319 -0.186869
C4    C     C_R   0.100101 0.785774 0.862267 -0.185288
C5    C     C_R   0.166432 0.907751 0.294955 0.366535
C6    C     C_R   0.849190 0.098429 0.698370 0.368641
C7    C     C_R   0.249387 0.912462 0.337119 0.467806
C8    C     C_R   0.772204 0.095855 0.652824 0.448532
C9    C     C_R   0.836848 0.098385 0.300738 -0.275618
C10   C     C_R   0.152972 0.898833 0.694295 -0.285245
C11   C     C_R   0.755785 0.097619 0.342747 0.629070
C12   C     C_R   0.344083 0.002167 0.419978 0.972657
C13   C     C_R   0.233031 0.898979 0.651877 0.622382
C14   C     C_3   0.996452 0.004764 0.246761 -0.013776
C15   C     C_3   0.004339 0.995475 0.753407 -0.010507
C16   C     C_R   0.654100 0.001893 0.420259 0.895860
C17   C     C_R   0.345263 0.998113 0.579513 0.889235
C18   C     C_R   0.097225 0.999931 0.287316 -0.116522
C19   C     C_R   0.904438 0.000539 0.712456 -0.094658
C20   C     C_R   0.261479 0.003733 0.373875 -0.338765
C21   C     C_R   0.744991 0.997847 0.623580 -0.309239
C22   C     C_R   0.898601 0.003950 0.288688 0.039061
C23   C     C_R   0.896801 0.764942 0.151529 -0.199757
C24   C     C_R   0.101681 0.996394 0.711619 0.033503
C25   C     C_R   0.737077 0.003296 0.375216 -0.146953
C26   C     C_R   0.261543 0.996686 0.624358 -0.156548
C27   C     C_R   0.996854 0.106333 0.208858 0.106928
C28   C     C_R   0.003316 0.894595 0.791654 0.102071
C29   C     C_R   0.997808 0.271206 0.126166 -0.018815
C30   C     C_R   0.002074 0.729684 0.874243 -0.025336
C31   C     C_R   0.991415 0.912895 0.201930 0.173266
C32   C     C_R   0.008680 0.086542 0.798415 0.228040
C33   C     C_R   0.988503 0.752054 0.115693 -0.034170
C34   C     C_R   0.107298 0.225063 0.853972 -0.191673
C35   C     C_R   0.011376 0.245636 0.885474 -0.017211
C36   C     C_R   0.992200 0.662897 0.074566 0.871028
C37   C     C_R   0.007776 0.336219 0.925900 0.871119
C38   C     C_R   0.998856 0.353116 0.081428 0.865126
C39   C     C_R   0.001144 0.647217 0.918721 0.866824
C40   C     C_R   0.111347 0.090263 0.324974 -0.345792
C41   C     C_R   0.882532 0.905697 0.679266 -0.382703
C42   C     C_R   0.195990 0.096053 0.365596 0.430608
C43   C     C_R   0.801816 0.901339 0.635825 0.441595
C44   C     C_R   0.880699 0.911401 0.323107 -0.174151
C45   C     C_R   0.078551 0.904842 0.161702 -0.028349
C46   C     C_R   0.128184 0.092940 0.682047 -0.154651
C47   C     C_R   0.799800 0.910302 0.365149 -0.264531
C48   C     C_R   0.208507 0.093459 0.639605 -0.277362
C49   C     C_R   0.092574 0.170249 0.200021 -0.196516
C50   C     C_R   0.904607 0.838612 0.804941 -0.190879
C51   C     C_R   0.092441 0.252656 0.159392 -0.201519
C52   C     C_R   0.904512 0.755863 0.845234 -0.195354
C53   C     C_R   0.897436 0.845684 0.193925 -0.230321
C54   C     C_R   0.106773 0.144497 0.811533 -0.193842
C55   C     C_3   0.234056 0.281170 0.369708 0.077250
C56   C     C_R   0.915977 0.101793 0.834078 -0.128622
C57   C     C_3   0.359245 0.291467 0.361865 -0.302771
C58   C     C_3   0.389826 0.392339 0.327003 -0.931244
C59   C     C_3   0.816025 0.709249 0.622572 0.104530
C60   C     C_3   0.930079 0.676968 0.599754 -0.345996
C61   C     C_3   0.971306 0.573779 0.628625 -0.924632
C62   C     C_3   0.123421 0.724242 0.284108 0.138902
C63   C     C_3   0.177336 0.624681 0.256145 -0.274654
C64   C     C_3   0.125367 0.518763 0.277570 -1.007786
C65   C     C_3   0.799944 0.264051 0.742756 0.158006
C66   C     C_3   0.808844 0.377747 0.716490 -0.280547
C67   C     C_R   0.078244 0.823634 0.119926 -0.201554
C68   C     C_3   0.722893 0.454567 0.741853 -0.980528
C69   C     C_R   0.917284 0.180758 0.877170 -0.239140
C70   C     C_R   0.902750 0.125846 0.174472 -0.173748
F1    F     F_    0.320996 0.828118 0.340502 -0.644988
F2    F     F_    0.729043 0.191337 0.634570 -0.659997
F3    F     F_    0.696589 0.189675 0.351627 -0.664200
F4    F     F_    0.281259 0.802919 0.637740 -0.657779
H1    H     H_    0.930445 0.839978 0.317884 0.136319
H2    H     H_    0.176156 0.913865 0.815490 0.139018
H3    H     H_    0.852741 0.175086 0.279648 0.176986
H4    H     H_    0.129485 0.820793 0.712004 0.175570
H5    H     H_    0.788211 0.837430 0.390669 0.189641
H6    H     H_    0.227677 0.169398 0.618131 0.197961
H7    H     H_    0.167107 0.300215 0.153128 0.155726
H8    H     H_    0.827510 0.714277 0.854616 0.158083
H9    H     H_    0.825431 0.711596 0.147408 0.163233
H10   H     H_    0.182156 0.272070 0.861515 0.157407
H11   H     H_    0.148427 0.816495 0.091185 0.152465
H12   H     H_    0.086507 0.168378 0.691791 0.205804
H13   H     H_    0.843481 0.193146 0.902691 0.154805
H14   H     H_    0.829110 0.220389 0.108373 0.158840
H15   H     H_    0.176114 0.768104 0.885033 0.158883
H16   H     H_    0.055149 0.158136 0.322580 0.191946
H17   H     H_    0.933070 0.835602 0.686941 0.183922
H18   H     H_    0.205414 0.353073 0.394942 0.168576
H19   H     H_    0.192097 0.285298 0.326697 0.124508
H20   H     H_    0.399752 0.297314 0.405188 0.247367
H21   H     H_    0.390691 0.218205 0.338756 0.227115
H22   H     H_    0.354754 0.385982 0.282447 0.258008
H23   H     H_    0.169458 0.154352 0.222111 0.145239
H24   H     H_    0.480980 0.399111 0.323675 0.291370
H25   H     H_    0.358353 0.467003 0.348727 0.273140
H26   H     H_    0.755489 0.647228 0.606645 0.170277
H27   H     H_    0.810290 0.706169 0.670800 0.117397
H28   H     H_    0.924824 0.662899 0.552037 0.231882
H29   H     H_    0.991139 0.743556 0.607475 0.236576
H30   H     H_    0.976847 0.585892 0.676450 0.261047
H31   H     H_    0.054576 0.553837 0.611915 0.285027
H32   H     H_    0.914718 0.504528 0.618506 0.264769
H33   H     H_    0.033575 0.717987 0.275561 0.131483
H34   H     H_    0.826246 0.860863 0.786138 0.139037
H35   H     H_    0.137657 0.722350 0.331994 0.150346
H36   H     H_    0.167347 0.628373 0.208154 0.229333
H37   H     H_    0.266971 0.625261 0.266503 0.249893
H38   H     H_    0.137240 0.511317 0.325223 0.268125
H39   H     H_    0.164823 0.448404 0.255558 0.264383
H40   H     H_    0.035752 0.516358 0.267319 0.274420
H41   H     H_    0.811010 0.273652 0.790239 0.142370
H42   H     H_    0.715252 0.229650 0.736560 0.144626
H43   H     H_    0.892448 0.411981 0.725538 0.215959
H44   H     H_    0.797431 0.372493 0.668701 0.271868
H45   H     H_    0.823504 0.855054 0.219388 0.159265
H46   H     H_    0.638424 0.422789 0.732751 0.280832
H47   H     H_    0.731781 0.536015 0.721779 0.260260
H48   H     H_    0.734720 0.463633 0.789548 0.262607
H49   H     H_    0.183624 0.127933 0.789701 0.137418
H50   H     H_    0.149459 0.958990 0.164536 0.136783
H51   H     H_    0.841203 0.054357 0.827336 0.115272
H52   H     H_    0.829505 0.075204 0.178250 0.145903
O1    O     O_R   0.621380 0.090460 0.561410 -0.558423
O2    O     O_R   0.912410 0.372520 0.941210 -0.632143
O3    O     O_R   0.905660 0.383870 0.059980 -0.629481
O4    O     O_R   0.094340 0.616130 0.940020 -0.629342
O5    O     O_R   0.092570 0.390420 0.063230 -0.625720
O6    O     O_R   0.907430 0.609580 0.936770 -0.627229
O7    O     O_R   0.900680 0.620930 0.055550 -0.623929
O8    O     O_R   0.099320 0.379070 0.944450 -0.626536
O9    O     O_3   0.206453 0.186725 0.401903 -0.600238
O10   O     O_3   0.785010 0.810753 0.599221 -0.608511
O11   O     O_3   0.164837 0.819241 0.257163 -0.627834
O12   O     O_R   0.378620 0.909540 0.438590 -0.569582
O13   O     O_3   0.886389 0.198049 0.720845 -0.647705
O14   O     O_R   0.617150 0.909540 0.438590 -0.630722
O15   O     O_R   0.382850 0.090460 0.561410 -0.637077
O16   O     O_R   0.619720 0.093230 0.440890 -0.568923
O17   O     O_R   0.380280 0.906770 0.559110 -0.562385
O18   O     O_R   0.618800 0.906770 0.559110 -0.583573
O19   O     O_R   0.381200 0.093230 0.440890 -0.610968
O20   O     O_R   0.087590 0.627480 0.058790 -0.628677
Zn1   Zn    Zn3+2 0.501730 0.123520 0.501540 1.039729
Zn2   Zn    Zn3+2 0.498270 0.876480 0.498460 1.064136
Zn3   Zn    Zn3+2 0.125690 0.504390 0.002180 0.945502
Zn4   Zn    Zn3+2 0.874310 0.495610 0.997820 0.942124

loop_
_geom_bond_atom_site_label_1
_geom_bond_atom_site_label_2
_ccdc_geom_bond_type
C66   C68   S    
C54   H49   S    
C1    C21   S    
O6    Zn4   S    
C14   C18   S    
C16   O16   A    
C58   H24   S    
C57   H21   S    
C47   H5    S    
C14   C31   S    
C55   H19   S    
C36   O7    A    
O14   Zn2   S    
C49   C51   A    
C10   H4    S    
C15   C32   S    
C15   C19   S    
C6    C19   A    
C62   C63   S    
C23   H9    S    
C17   C26   S    
C35   C37   S    
C7    F1    S    
C9    C22   A    
C64   H38   S    
C39   O6    A    
C11   C25   A    
C59   O10   S    
C33   C36   S    
C17   O15   A    
C34   C35   A    
C6    O13   S    
C3    C29   A    
C58   H22   S    
C18   C40   A    
C21   C43   A    
C28   C50   A    
C22   C44   A    
O12   Zn2   S    
C23   C33   A    
C66   H43   S    
C29   C38   S    
C45   C67   A    
C50   C52   A    
C14   C27   S    
C60   H29   S    
C61   H31   S    
C25   C47   A    
C69   H13   S    
C44   C47   A    
O18   Zn2   S    
C37   O2    A    
C70   H52   S    
C40   C42   A    
C59   C60   S    
C50   H34   S    
C59   H26   S    
C41   C43   A    
C12   C20   S    
C16   O14   A    
C34   H10   S    
C60   H28   S    
C32   C54   A    
O19   Zn1   S    
C23   C53   A    
C45   H50   S    
O17   Zn2   S    
C46   C48   A    
C67   H11   S    
C8    F2    S    
O7    Zn4   S    
C59   H27   S    
C38   O3    A    
C3    C70   A    
C64   H40   S    
C11   F3    S    
C68   H48   S    
C5    C7    A    
C6    C8    A    
C62   H33   S    
C10   C24   A    
O8    Zn3   S    
C7    C20   A    
C42   O9    S    
C12   O19   A    
C44   H1    S    
C2    C4    A    
C55   H18   S    
O20   Zn3   S    
C61   H30   S    
O4    Zn3   S    
C8    C21   A    
C9    H3    S    
C56   H51   S    
C31   C53   A    
C52   H8    S    
C61   H32   S    
C9    C11   A    
C27   C70   A    
O2    Zn4   S    
C15   C24   S    
C41   H17   S    
C65   C66   S    
C57   H20   S    
C55   C57   S    
C31   C45   A    
C65   H42   S    
C12   O12   A    
C13   C26   A    
O5    Zn3   S    
C15   C28   S    
C2    H2    S    
C33   C67   A    
C4    H15   S    
C29   C51   A    
C36   O20   A    
C16   C25   S    
C30   C52   A    
C64   H39   S    
C3    H14   S    
O16   Zn1   S    
C58   H25   S    
C1    O1    A    
C10   C13   A    
C68   H47   S    
C20   C42   A    
C53   H45   S    
C5    O11   S    
C5    C18   A    
C39   O4    A    
C26   C48   A    
C51   H7    S    
C17   O17   A    
C24   C46   A    
C38   O5    A    
C48   H6    S    
C63   H36   S    
C65   H41   S    
O3    Zn4   S    
C1    O18   A    
C68   H46   S    
C34   C54   A    
C14   C22   S    
C57   C58   S    
C62   H35   S    
C55   O9    S    
C30   C39   S    
C62   O11   S    
C63   H37   S    
C43   O10   S    
O15   Zn1   S    
C49   H23   S    
C63   C64   S    
C65   O13   S    
C19   C41   A    
C13   F4    S    
C35   C69   A    
C56   C69   A    
C66   H44   S    
C37   O8    A    
C60   C61   S    
C2    C28   A    
C40   H16   S    
C32   C56   A    
C4    C30   A    
C27   C49   A    
O1    Zn1   S    
C46   H12   S    
