data_mof_unit_46540.cif
_audit_creation_date              2012-12-11T14:44:09-0500
_audit_creation_method            fapswitch 2.2
_symmetry_space_group_name_H-M    P1
_symmetry_Int_Tables_number       1
_space_group_crystal_system       triclinic
_cell_length_a                    19.284819
_cell_length_b                    11.01234
_cell_length_c                    18.571774
_cell_angle_alpha                 90.10833
_cell_angle_beta                  89.22896
_cell_angle_gamma                 89.807116
_cell_volume                      3943.71904792

loop_
_atom_site_label
_atom_site_type_symbol
_atom_type_description
_atom_site_fract_x
_atom_site_fract_y
_atom_site_fract_z
_atom_type_partial_charge
C1    C     C_R   0.733579 0.388040 0.151054 0.522602
C2    C     C_R   0.000690 0.994666 0.038037 -0.164133
C3    C     C_R   0.996327 0.774871 0.038559 0.014455
C4    C     C_R   0.499145 0.053679 0.036852 -0.176310
C5    C     C_R   0.500456 0.053650 0.963278 -0.176686
C6    C     C_R   0.999146 0.553679 0.036852 -0.176311
C7    C     C_R   0.000457 0.553650 0.963278 -0.176686
C8    C     C_3   0.604349 0.331663 0.839008 -0.246523
C9    C     C_3   0.395373 0.331962 0.162119 -0.255520
C10   C     C_3   0.104349 0.831665 0.839008 -0.246523
C11   C     C_3   0.895371 0.831959 0.162118 -0.255522
C12   C     C_1   0.832959 0.116951 0.902383 0.227771
C13   C     C_R   0.498951 0.494748 0.963272 -0.165959
C14   C     C_1   0.166120 0.116870 0.097932 0.225626
C15   C     C_1   0.332959 0.616951 0.902383 0.227771
C16   C     C_1   0.666120 0.616870 0.097932 0.225626
C17   C     C_3   0.874880 0.169934 0.065174 -0.275868
C18   C     C_3   0.124387 0.170146 0.934683 -0.277036
C19   C     C_3   0.374881 0.669933 0.065174 -0.275867
C20   C     C_3   0.624388 0.670147 0.934683 -0.277035
C21   C     C_3   0.387053 0.012365 0.332187 -0.275690
C22   C     C_3   0.482426 0.861317 0.553922 -0.281219
C23   C     C_3   0.887053 0.512365 0.332186 -0.275691
C24   C     C_R   0.500691 0.494666 0.038036 -0.164133
C25   C     C_3   0.982425 0.361316 0.553922 -0.281220
C26   C     C_R   0.669582 0.962867 0.021270 -0.161549
C27   C     C_R   0.330336 0.963177 0.978939 -0.160668
C28   C     C_R   0.169582 0.462866 0.021270 -0.161549
C29   C     C_R   0.830336 0.463178 0.978939 -0.160668
C30   C     C_R   0.674591 0.943544 0.946088 -0.185575
C31   C     C_R   0.325303 0.943837 0.054094 -0.187114
C32   C     C_R   0.174591 0.443544 0.946088 -0.185575
C33   C     C_R   0.266417 0.387908 0.849041 0.530429
C34   C     C_R   0.825303 0.443838 0.054094 -0.187115
C35   C     C_R   0.737725 0.965002 0.909633 -0.024321
C36   C     C_R   0.261986 0.964984 0.090486 -0.026854
C37   C     C_R   0.237725 0.465002 0.909633 -0.024320
C38   C     C_R   0.761986 0.464984 0.090486 -0.026855
C39   C     C_R   0.782487 0.046418 0.942962 0.000958
C40   C     C_R   0.216901 0.046349 0.057241 0.002482
C41   C     C_R   0.282487 0.546418 0.942962 0.000957
C42   C     C_R   0.716901 0.546349 0.057241 0.002482
C43   C     C_R   0.783882 0.047446 0.017981 0.094442
C44   C     C_R   0.233579 0.888040 0.151054 0.522603
C45   C     C_R   0.215678 0.047718 0.982186 0.095267
C46   C     C_R   0.283882 0.547445 0.017982 0.094442
C47   C     C_R   0.715678 0.547718 0.982186 0.095267
C48   C     C_R   0.727261 0.006676 0.059109 0.025880
C49   C     C_R   0.272555 0.006965 0.941055 0.025651
C50   C     C_R   0.227261 0.506675 0.059109 0.025882
C51   C     C_R   0.772555 0.506965 0.941055 0.025651
C52   C     C_R   0.449415 0.068128 0.441192 0.149713
C53   C     C_R   0.439536 0.056669 0.516186 0.126755
C54   C     C_R   0.949415 0.568128 0.441192 0.149713
C55   C     C_R   0.766416 0.887908 0.849041 0.530429
C56   C     C_R   0.939535 0.556669 0.516186 0.126755
C57   C     C_R   0.450994 0.158653 0.561253 0.021085
C58   C     C_R   0.486068 0.170029 0.415759 0.021202
C59   C     C_R   0.950994 0.658652 0.561253 0.021085
C60   C     C_R   0.986068 0.670029 0.415759 0.021202
C61   C     C_R   0.531916 0.155003 0.146905 0.540194
C62   C     C_R   0.467990 0.154957 0.853199 0.554108
C63   C     C_R   0.031916 0.655003 0.146905 0.540196
C64   C     C_R   0.967990 0.654957 0.853199 0.554108
C65   C     C_R   0.474652 0.267831 0.531238 -0.187095
C66   C     C_R   0.511144 0.387379 0.925310 0.164835
C67   C     C_R   0.494025 0.272457 0.459410 -0.189150
C68   C     C_R   0.974652 0.767831 0.531238 -0.187095
C69   C     C_R   0.994025 0.772457 0.459410 -0.189150
C70   C     C_R   0.814906 0.936158 0.456114 -0.146125
C71   C     C_R   0.240072 0.039221 0.524973 -0.119369
C72   C     C_R   0.314906 0.436159 0.456114 -0.146125
C73   C     C_R   0.740073 0.539222 0.524973 -0.119369
C74   C     C_R   0.819346 0.932502 0.529530 -0.138147
C75   C     C_R   0.234106 0.018624 0.452378 -0.147968
C76   C     C_R   0.319345 0.432503 0.529530 -0.138147
C77   C     C_R   0.488254 0.387422 0.075629 0.167871
C78   C     C_R   0.734107 0.518624 0.452378 -0.147968
C79   C     C_R   0.760917 0.903099 0.571829 0.027084
C80   C     C_R   0.242471 0.901084 0.426666 0.033405
C81   C     C_R   0.260917 0.403100 0.571829 0.027084
C82   C     C_R   0.742471 0.401084 0.426666 0.033405
C83   C     C_R   0.697696 0.876836 0.539513 -0.154820
C84   C     C_R   0.255076 0.803186 0.473456 -0.139880
C85   C     C_R   0.197696 0.376836 0.539513 -0.154819
C86   C     C_R   0.755074 0.303186 0.473456 -0.139879
C87   C     C_R   0.692486 0.885272 0.465393 -0.144826
C88   C     C_R   0.011143 0.887380 0.925310 0.164835
C89   C     C_R   0.258871 0.823412 0.546878 -0.166750
C90   C     C_R   0.192486 0.385272 0.465393 -0.144826
C91   C     C_R   0.758869 0.323412 0.546878 -0.166750
C92   C     C_R   0.750795 0.919268 0.423938 0.019111
C93   C     C_R   0.251610 0.941749 0.572053 0.042667
C94   C     C_R   0.250795 0.419268 0.423938 0.019111
C95   C     C_R   0.751610 0.441749 0.572053 0.042667
C96   C     C_R   0.727638 0.020014 0.139585 0.576085
C97   C     C_R   0.272290 0.020202 0.860543 0.576097
C98   C     C_R   0.227638 0.520014 0.139585 0.576087
C99   C     C_R   0.988253 0.887420 0.075630 0.167871
C100  C     C_R   0.772290 0.520202 0.860543 0.576097
C101  C     C_R   0.728042 0.374885 0.353172 0.533161
C102  C     C_R   0.272161 0.375669 0.646541 0.534264
C103  C     C_R   0.228042 0.874885 0.353172 0.533161
C104  C     C_R   0.772161 0.875668 0.646540 0.534264
C105  C     C_R   0.529654 0.157910 0.351564 0.551175
C106  C     C_R   0.436267 0.152406 0.638875 0.579116
C107  C     C_R   0.029654 0.657910 0.351564 0.551176
C108  C     C_R   0.936267 0.652406 0.638875 0.579115
C109  C     C_R   0.741401 0.969457 0.353248 0.541353
C110  C     C_R   0.998950 0.994748 0.963273 -0.165960
C111  C     C_R   0.258566 0.971303 0.646295 0.542229
C112  C     C_R   0.241401 0.469457 0.353248 0.541352
C113  C     C_R   0.758566 0.471303 0.646295 0.542229
C114  C     C_R   0.497941 0.162594 0.925034 0.006254
C115  C     C_R   0.501623 0.162632 0.075274 0.009610
C116  C     C_R   0.997941 0.662594 0.925034 0.006254
C117  C     C_R   0.001623 0.662632 0.075273 0.009609
C118  C     C_R   0.503019 0.274852 0.962024 0.012038
C119  C     C_R   0.496327 0.274871 0.038559 0.014454
C120  C     C_R   0.003019 0.774852 0.962024 0.012038
Cr1   Cr    Cr6+3 0.772000 0.169640 0.250110 0.980699
Cr2   Cr    Cr6+3 0.383330 0.010620 0.749160 1.031449
Cr3   Cr    Cr6+3 0.116670 0.510620 0.250840 1.029885
Cr4   Cr    Cr6+3 0.883330 0.510620 0.749160 1.031449
Cr5   Cr    Cr6+3 0.228000 0.169640 0.749890 0.985027
Cr6   Cr    Cr6+3 0.272000 0.669640 0.250110 0.980697
Cr7   Cr    Cr6+3 0.728000 0.669640 0.749890 0.985027
Cr8   Cr    Cr6+3 0.614960 0.323350 0.249260 1.033971
Cr9   Cr    Cr6+3 0.385040 0.323350 0.750740 1.028699
Cr10  Cr    Cr6+3 0.114960 0.823350 0.249260 1.033971
Cr11  Cr    Cr6+3 0.885040 0.823350 0.750740 1.028699
Cr12  Cr    Cr6+3 0.616670 0.010620 0.250840 1.029885
H1    H     H_    0.500520 0.966263 0.063491 0.134743
H2    H     H_    0.223001 0.093526 0.416495 0.118012
H3    H     H_    0.369461 0.450253 0.552773 0.137329
H4    H     H_    0.723003 0.593526 0.416494 0.118011
H5    H     H_    0.652894 0.849923 0.571360 0.119160
H6    H     H_    0.259472 0.710980 0.453405 0.148608
H7    H     H_    0.152894 0.349923 0.571360 0.119159
H8    H     H_    0.759469 0.210979 0.453405 0.148608
H9    H     H_    0.642226 0.872033 0.441286 0.141753
H10   H     H_    0.268119 0.748592 0.583352 0.123472
H11   H     H_    0.142226 0.372033 0.441286 0.141753
H12   H     H_    0.499243 0.966204 0.936487 0.134862
H13   H     H_    0.768117 0.248591 0.583353 0.123472
H14   H     H_    0.997775 0.080606 0.935503 0.133128
H15   H     H_    0.001871 0.080449 0.066088 0.133471
H16   H     H_    0.497775 0.580606 0.935502 0.133128
H17   H     H_    0.501872 0.580450 0.066087 0.133471
H18   H     H_    0.623057 0.936333 0.049980 0.152081
H19   H     H_    0.376989 0.936583 0.950240 0.151156
H20   H     H_    0.123058 0.436332 0.049980 0.152081
H21   H     H_    0.876989 0.436584 0.950240 0.151156
H22   H     H_    0.630701 0.908195 0.917380 0.112261
H23   H     H_    0.000521 0.466263 0.063491 0.134743
H24   H     H_    0.369242 0.908141 0.082741 0.109191
H25   H     H_    0.130702 0.408194 0.917380 0.112260
H26   H     H_    0.869243 0.408143 0.082742 0.109191
H27   H     H_    0.483330 0.347347 0.564247 0.142776
H28   H     H_    0.519989 0.353075 0.439579 0.147213
H29   H     H_    0.983330 0.847347 0.564247 0.142775
H30   H     H_    0.019989 0.853075 0.439579 0.147213
H31   H     H_    0.538723 0.482064 0.831631 0.249190
H32   H     H_    0.595619 0.232963 0.833320 0.133396
H33   H     H_    0.642303 0.346300 0.882410 0.171093
H34   H     H_    0.999244 0.466204 0.936487 0.134862
H35   H     H_    0.627121 0.363512 0.787174 0.167784
H36   H     H_    0.460434 0.482412 0.169490 0.248386
H37   H     H_    0.404524 0.233338 0.167972 0.120618
H38   H     H_    0.357342 0.346172 0.118708 0.175124
H39   H     H_    0.372518 0.364212 0.213962 0.160410
H40   H     H_    0.038722 0.982066 0.831632 0.249189
H41   H     H_    0.095618 0.732965 0.833319 0.133396
H42   H     H_    0.142302 0.846301 0.882409 0.171094
H43   H     H_    0.127120 0.863514 0.787173 0.167783
H44   H     H_    0.960432 0.982409 0.169490 0.248388
H45   H     H_    0.860656 0.961170 0.425067 0.135091
H46   H     H_    0.904521 0.733333 0.167960 0.120617
H47   H     H_    0.857338 0.846183 0.118712 0.175133
H48   H     H_    0.872521 0.864197 0.213967 0.160400
H49   H     H_    0.880871 0.992402 0.023505 0.267549
H50   H     H_    0.906086 0.205478 0.019238 0.122667
H51   H     H_    0.905960 0.168212 0.114934 0.145463
H52   H     H_    0.830203 0.228001 0.075421 0.196035
H53   H     H_    0.118780 0.993129 0.976455 0.267885
H54   H     H_    0.093986 0.207021 0.981007 0.123232
H55   H     H_    0.092417 0.167668 0.885563 0.144972
H56   H     H_    0.235645 0.131466 0.544728 0.141468
H57   H     H_    0.168849 0.227417 0.923109 0.196144
H58   H     H_    0.380871 0.492401 0.023505 0.267549
H59   H     H_    0.406087 0.705477 0.019239 0.122666
H60   H     H_    0.405961 0.668211 0.114934 0.145462
H61   H     H_    0.330204 0.728000 0.075422 0.196034
H62   H     H_    0.618781 0.493129 0.976455 0.267884
H63   H     H_    0.593985 0.707021 0.981007 0.123231
H64   H     H_    0.592418 0.667669 0.885562 0.144973
H65   H     H_    0.668849 0.727418 0.923110 0.196143
H66   H     H_    0.414222 0.892052 0.413273 0.248804
H67   H     H_    0.360656 0.461171 0.425067 0.135091
H68   H     H_    0.374223 0.932587 0.298370 0.156050
H69   H     H_    0.414665 0.077986 0.297053 0.148128
H70   H     H_    0.338586 0.055754 0.352139 0.125443
H71   H     H_    0.382241 0.899329 0.523675 0.252221
H72   H     H_    0.502892 0.834189 0.500024 0.127466
H73   H     H_    0.466370 0.778372 0.583578 0.140260
H74   H     H_    0.524400 0.906206 0.584377 0.171986
H75   H     H_    0.914222 0.392052 0.413273 0.248804
H76   H     H_    0.874223 0.432586 0.298370 0.156050
H77   H     H_    0.914666 0.577986 0.297053 0.148129
H78   H     H_    0.735648 0.631467 0.544728 0.141467
H79   H     H_    0.838586 0.555754 0.352138 0.125442
H80   H     H_    0.882241 0.399330 0.523675 0.252221
H81   H     H_    0.002893 0.334192 0.500024 0.127467
H82   H     H_    0.966368 0.278370 0.583574 0.140258
H83   H     H_    0.024398 0.406202 0.584379 0.171989
H84   H     H_    0.869462 0.950251 0.552772 0.137329
N1    N     N_2   0.539879 0.396293 0.853850 -0.472071
N2    N     N_2   0.150693 0.051371 0.949960 -0.504721
N3    N     N_2   0.348912 0.551070 0.050047 -0.503946
N4    N     N_2   0.650693 0.551372 0.949959 -0.504721
N5    N     N_2   0.429386 0.974097 0.392124 -0.497426
N6    N     N_2   0.423371 0.941859 0.546981 -0.485440
N7    N     N_2   0.929386 0.474097 0.392124 -0.497426
N8    N     N_2   0.923371 0.441859 0.546981 -0.485440
N9    N     N_2   0.459542 0.396587 0.147149 -0.473404
N10   N     N_2   0.039879 0.896295 0.853850 -0.472071
N11   N     N_2   0.959540 0.896585 0.147149 -0.473405
N12   N     N_1   0.872996 0.173576 0.869954 -0.319154
N13   N     N_1   0.125852 0.173511 0.130465 -0.321024
N14   N     N_1   0.372996 0.673576 0.869954 -0.319155
N15   N     N_1   0.625852 0.673511 0.130465 -0.321025
N16   N     N_2   0.848912 0.051071 0.050047 -0.503949
O1    O     O_R   0.787540 0.042690 0.170470 -0.494165
O2    O     O_R   0.454130 0.051100 0.669160 -0.485193
O3    O     O_R   0.045870 0.551100 0.330840 -0.483367
O4    O     O_R   0.954130 0.551100 0.669160 -0.485194
O5    O     O_R   0.681340 0.959300 0.325510 -0.497935
O6    O     O_R   0.318660 0.959300 0.674490 -0.490343
O7    O     O_R   0.181340 0.459300 0.325510 -0.497935
O8    O     O_R   0.818660 0.459300 0.674490 -0.490343
O9    O     O_3   0.667880 0.167870 0.250070 -0.275823
O10   O     O_3   0.332120 0.167870 0.749930 -0.300718
O11   O     O_3   0.167880 0.667870 0.250070 -0.275823
O12   O     O_R   0.212460 0.042690 0.829530 -0.493464
O13   O     O_3   0.832120 0.667870 0.749930 -0.300718
O14   O     O_R   0.765660 0.292160 0.175050 -0.532688
O15   O     O_R   0.234340 0.292160 0.824950 -0.527736
O16   O     O_R   0.265660 0.792160 0.175050 -0.532689
O17   O     O_R   0.734340 0.792160 0.824950 -0.527735
O18   O     O_R   0.670190 0.408980 0.168550 -0.493293
O19   O     O_R   0.329810 0.408980 0.831450 -0.492511
O20   O     O_R   0.170190 0.908980 0.168550 -0.493293
O21   O     O_R   0.829810 0.908980 0.831450 -0.492511
O22   O     O_R   0.556580 0.251450 0.175160 -0.460784
O23   O     O_R   0.287540 0.542690 0.170470 -0.494166
O24   O     O_R   0.443420 0.251450 0.824840 -0.454577
O25   O     O_R   0.056580 0.751450 0.175160 -0.460784
O26   O     O_R   0.943420 0.751450 0.824840 -0.454577
O27   O     O_R   0.545920 0.049510 0.170320 -0.545109
O28   O     O_R   0.454080 0.049510 0.829680 -0.539692
O29   O     O_R   0.045920 0.549510 0.170320 -0.545110
O30   O     O_R   0.954080 0.549510 0.829680 -0.539692
O31   O     O_R   0.681390 0.957840 0.176710 -0.493872
O32   O     O_R   0.318610 0.957840 0.823290 -0.493855
O33   O     O_R   0.181390 0.457840 0.176710 -0.493872
O34   O     O_R   0.712460 0.542690 0.829530 -0.493464
O35   O     O_R   0.818610 0.457840 0.823290 -0.493855
O36   O     O_R   0.787500 0.044280 0.330990 -0.531361
O37   O     O_R   0.212500 0.044280 0.669010 -0.526449
O38   O     O_R   0.287500 0.544280 0.330990 -0.531362
O39   O     O_R   0.712500 0.544280 0.669010 -0.526449
O40   O     O_R   0.765610 0.293630 0.323860 -0.518092
O41   O     O_R   0.234390 0.293630 0.676140 -0.511145
O42   O     O_R   0.265610 0.793630 0.323860 -0.518093
O43   O     O_R   0.734390 0.793630 0.676140 -0.511145
O44   O     O_R   0.670140 0.410570 0.329080 -0.511688
O45   O     O_R   0.556540 0.252920 0.323970 -0.511050
O46   O     O_R   0.329860 0.410570 0.670920 -0.530962
O47   O     O_R   0.170140 0.910570 0.329080 -0.511688
O48   O     O_R   0.829860 0.910570 0.670920 -0.530961
O49   O     O_R   0.443460 0.252920 0.676030 -0.512558
O50   O     O_R   0.056540 0.752920 0.323970 -0.511050
O51   O     O_R   0.943460 0.752920 0.676030 -0.512558
O52   O     O_R   0.545870 0.051100 0.330840 -0.483367

loop_
_geom_bond_atom_site_label_1
_geom_bond_atom_site_label_2
_ccdc_geom_bond_type
C10   H42   S    
C83   C87   A    
Cr9   O19   S    
C18   H57   S    
C77   N9    S    
C61   O22   A    
C64   C116  S    
Cr7   O34   S    
C16   C42   S    
C5    C114  A    
H31   N1    S    
C91   H13   S    
C105  O45   A    
C4    C115  A    
C9    H37   S    
C103  O47   A    
C71   H56   S    
C65   H27   S    
H58   N3    S    
C104  O48   A    
C108  O4    A    
C31   H24   S    
C75   H2    S    
Cr2   O10   S    
C71   C75   A    
Cr5   O41   S    
C68   H29   S    
Cr1   O9    S    
C22   N6    S    
C21   N5    S    
C30   C35   A    
Cr5   O12   S    
Cr3   O29   S    
C25   H82   S    
Cr4   O35   S    
C62   C114  S    
C66   N1    S    
C86   C91   A    
C63   O25   A    
C20   H63   S    
C29   C51   A    
Cr4   O8    S    
C64   O30   A    
C92   C109  S    
C12   N12   T    
C113  O39   A    
Cr9   O10   S    
C98   O33   A    
C89   H10   S    
C18   H55   S    
Cr4   O13   S    
C105  O52   A    
C22   H74   S    
C25   N8    S    
Cr10  O47   S    
C33   O19   A    
Cr3   O33   S    
C118  C119  A    
Cr8   O44   S    
C14   N13   T    
C8    N1    S    
Cr11  O13   S    
C97   O32   A    
C28   C50   A    
C17   H50   S    
C44   O20   A    
C113  O8    A    
C88   N10   S    
C68   C69   A    
C65   C67   A    
C61   C115  S    
Cr8   O22   S    
C41   C46   A    
C55   O17   A    
C101  O44   A    
C67   H28   S    
Cr7   O13   S    
C45   C49   A    
C88   C120  A    
C3    C117  A    
C43   C48   A    
C85   H7    S    
C6    C117  A    
C90   H11   S    
C36   C44   S    
C86   H8    S    
C19   H60   S    
C13   C66   A    
C72   C94   A    
C112  O7    A    
C10   H41   S    
C57   C106  S    
Cr6   O42   S    
C84   H6    S    
C52   N5    S    
C74   H84   S    
Cr7   O39   S    
C87   C92   A    
C89   C93   A    
C45   N2    S    
C20   N4    S    
C111  O37   A    
C9    H38   S    
H40   N10   S    
C102  O46   A    
C109  O36   A    
Cr12  O9    S    
C63   O29   A    
Cr1   O36   S    
Cr11  O51   S    
C98   O23   A    
C76   H3    S    
C64   O26   A    
C90   C94   A    
Cr12  O27   S    
Cr3   O7    S    
C81   C102  S    
C40   C45   A    
C101  O40   A    
C54   C56   A    
C50   C98   S    
C111  O6    A    
H53   N2    S    
C80   C103  S    
C35   C55   S    
C80   C84   A    
C21   H69   S    
C73   H78   S    
C28   C32   A    
H66   N5    S    
C69   H30   S    
C15   C41   S    
C100  O34   A    
C8    H33   S    
C112  O38   A    
H36   N9    S    
C56   N8    S    
C53   C57   A    
H75   N7    S    
C5    H12   S    
C39   C43   A    
C36   C40   A    
C53   N6    S    
C82   C86   A    
C73   C78   A    
C27   C31   A    
C29   C34   A    
C18   H54   S    
Cr6   O16   S    
Cr8   O18   S    
C99   N11   S    
C116  C120  A    
C22   H73   S    
Cr5   O37   S    
Cr7   O17   S    
C34   C38   A    
C7    C116  A    
C24   H17   S    
C35   C39   A    
Cr12  O5    S    
C70   C74   A    
C8    H35   S    
C3    C99   A    
C59   C68   A    
Cr11  O26   S    
Cr10  O11   S    
C78   C82   A    
Cr1   O40   S    
Cr9   O24   S    
Cr4   O30   S    
C96   O1    A    
C26   H18   S    
C17   N16   S    
Cr5   O10   S    
C11   H46   S    
C106  O2    A    
C32   C37   A    
C87   H9    S    
Cr6   O23   S    
Cr9   O49   S    
C17   H51   S    
C60   C107  S    
C104  O43   A    
Cr11  O48   S    
C114  C118  A    
C108  O51   A    
C52   C58   A    
C1    C38   S    
C93   C111  S    
Cr12  O31   S    
Cr3   O3    S    
C34   H26   S    
Cr2   O28   S    
Cr1   O14   S    
Cr12  O52   S    
C7    H34   S    
C23   N7    S    
C2    C99   A    
C19   H61   S    
C96   O31   A    
C109  O5    A    
C74   C79   A    
C15   N14   T    
C8    H32   S    
Cr9   O46   S    
C13   C24   A    
C25   H83   S    
C79   C104  S    
Cr5   O15   S    
C107  O50   A    
C19   N3    S    
C84   C89   A    
C61   O27   A    
C21   H68   S    
C18   N2    S    
C62   O28   A    
Cr8   O45   S    
C83   H5    S    
Cr10  O25   S    
C52   C53   A    
C29   H21   S    
C32   H25   S    
H80   N8    S    
C62   O24   A    
C10   H43   S    
H44   N11   S    
C107  O3    A    
C2    C110  A    
C27   H19   S    
C46   N3    S    
C48   C96   S    
Cr2   O2    S    
C23   H76   S    
C43   N16   S    
Cr7   O43   S    
C21   H70   S    
Cr6   O38   S    
C70   C92   A    
C6    H23   S    
C103  O42   A    
C57   C65   A    
C4    C5    A    
C77   C119  A    
C76   C81   A    
C47   C51   A    
C85   C90   A    
Cr11  O21   S    
C70   H45   S    
C28   H20   S    
C6    C7    A    
C71   C93   A    
C100  O35   A    
C26   C48   A    
Cr10  O20   S    
C23   H77   S    
C47   N4    S    
C46   C50   A    
C16   N15   T    
C115  C119  A    
C59   C108  S    
H62   N4    S    
C56   C59   A    
C22   H72   S    
C51   C100  S    
C106  O49   A    
C58   C105  S    
C12   C39   S    
C25   H81   S    
C2    H15   S    
C88   C110  A    
C58   C67   A    
Cr10  O50   S    
C72   H67   S    
C79   C83   A    
Cr1   O1    S    
C17   H52   S    
Cr2   O32   S    
C54   N7    S    
Cr2   O6    S    
C23   H79   S    
C60   C69   A    
C95   C113  S    
C72   C76   A    
C63   C117  S    
Cr3   O11   S    
C94   C112  S    
C82   C101  S    
C20   H64   S    
C33   O15   A    
C1    O18   A    
C42   C47   A    
C102  O41   A    
C37   C41   A    
C54   C60   A    
C33   C37   S    
C20   H65   S    
C49   C97   S    
C9    H39   S    
C3    C120  A    
C44   O16   A    
C14   C40   S    
Cr4   O4    S    
C38   C42   A    
C55   O21   A    
C24   C77   A    
C30   H22   S    
C75   C80   A    
C11   H47   S    
H71   N6    S    
C91   C95   A    
C11   N11   S    
C66   C118  A    
Cr6   O11   S    
C10   N10   S    
C73   C95   A    
C31   C36   A    
C9    N9    S    
C11   H48   S    
H49   N16   S    
C13   H16   S    
C1    O14   A    
C110  H14   S    
C78   H4    S    
Cr8   O9    S    
C81   C85   A    
C27   C49   A    
C19   H59   S    
C4    H1    S    
C97   O12   A    
C26   C30   A    
