data_mof_unit_8577.cif
_audit_creation_date              2013-03-05T16:32:50-0500
_audit_creation_method            fapswitch 2.2
_symmetry_space_group_name_H-M    P1
_symmetry_Int_Tables_number       1
_space_group_crystal_system       triclinic
_cell_length_a                    19.354542
_cell_length_b                    10.845221
_cell_length_c                    9.574688
_cell_angle_alpha                 91.213847
_cell_angle_beta                  90.149842
_cell_angle_gamma                 91.080059
_cell_volume                      2008.9509111

loop_
_atom_site_label
_atom_site_type_symbol
_atom_site_description
_atom_site_fract_x
_atom_site_fract_y
_atom_site_fract_z
_atom_type_partial_charge
O1    O     O_R   0.500000 0.319640 0.618810 -0.543010
O2    O     O_R   0.500010 0.319680 0.381230 -0.553018
C1    C     C_R   0.499221 0.262616 0.498440 0.810187
O3    O     O_R   0.400140 0.499970 0.618830 -0.551350
O4    O     O_R   0.400150 0.500010 0.381250 -0.546131
C2    C     C_R   0.367509 0.502756 0.499430 0.845149
Cu1   Cu    Cu3+1 0.500000 0.499980 0.640670 0.998221
Cu2   Cu    Cu3+1 0.500000 0.500020 0.359330 0.977962
O5    O     O_R   0.499990 0.680320 0.618770 -0.586121
O6    O     O_R   0.500000 0.680360 0.381190 -0.589076
O7    O     O_R   0.599850 0.499990 0.618750 -0.523787
O8    O     O_R   0.599860 0.500030 0.381170 -0.593051
C3    C     C_R   0.500846 0.737767 0.501022 0.776440
C4    C     C_R   0.632716 0.500254 0.500306 0.800031
C5    C     C_R   0.254577 0.535634 0.618184 -0.289169
H1    H     H_    0.281469 0.545036 0.716671 0.160651
C6    C     C_R   0.182473 0.545325 0.615421 0.465876
C7    C     C_R   0.146696 0.532988 0.486531 -0.164383
C8    C     C_R   0.184757 0.518576 0.361050 0.292608
C9    C     C_R   0.256449 0.505723 0.367691 -0.234293
H2    H     H_    0.284915 0.493132 0.271314 0.205549
C10   C     C_R   0.291701 0.512961 0.495753 -0.163210
N1    N     N_R   0.034884 0.459877 0.388425 -0.166123
N2    N     N_R   0.966137 0.454827 0.388908 -0.212871
C11   C     C_R   0.930242 0.518171 0.487442 0.413849
N3    N     N_R   0.965407 0.587463 0.584472 -0.229811
N4    N     N_R   0.034052 0.593584 0.582836 -0.179992
C12   C     C_R   0.070228 0.529893 0.484921 0.505111
C13   C     C_R   0.820418 0.515933 0.619470 -0.236627
H3    H     H_    0.850327 0.518775 0.715254 0.164950
C14   C     C_R   0.747947 0.513701 0.625922 0.498746
C15   C     C_R   0.709214 0.502433 0.500303 -0.133176
C16   C     C_R   0.744322 0.495599 0.371849 -0.264534
H4    H     H_    0.716195 0.487483 0.274037 0.179672
C17   C     C_R   0.816248 0.499304 0.367328 -0.150808
H5    H     H_    0.841911 0.494971 0.266977 0.169256
C18   C     C_R   0.854579 0.510902 0.491019 0.001094
C19   C     C_R   0.455936 0.064649 0.588969 0.130391
C20   C     C_R   0.495631 0.129502 0.492924 -0.091580
C21   C     C_R   0.531020 0.063668 0.388547 -0.238526
H6    H     H_    0.560497 0.111464 0.309669 0.153808
C22   C     C_R   0.532745 0.935173 0.391724 -0.216152
H7    H     H_    0.562707 0.886422 0.313879 0.152765
C23   C     C_R   0.499954 0.871506 0.500267 -0.079574
C24   C     C_R   0.459210 0.937683 0.594415 0.120686
C25   C     C_3   0.460316 0.942297 0.750314 -0.534059
C26   C     C_3   0.452411 0.080282 0.743373 -0.421114
H8    H     H_    0.415072 0.894143 0.797180 0.199351
H9    H     H_    0.511958 0.919946 0.792136 0.209801
H10   H     H_    0.400576 0.110973 0.777537 0.220949
H11   H     H_    0.497077 0.133156 0.789155 0.218159
C27   C     C_R   0.546011 0.572270 0.075490 0.152350
N5    N     N_R   0.500440 0.500930 0.147930 -0.242318
C28   C     C_R   0.459893 0.417919 0.073264 0.441735
C29   C     C_R   0.456756 0.422952 0.922872 0.434384
N6    N     N_R   0.500440 0.500890 0.852020 -0.243512
C30   C     C_R   0.545992 0.572068 0.928184 0.206024
C31   C     C_3   0.548445 0.708864 0.927449 -0.495473
C32   C     C_3   0.551264 0.709128 0.084838 -0.485264
H12   H     H_    0.595650 0.747330 0.877726 0.194525
H13   H     H_    0.498590 0.743092 0.888980 0.209654
H14   H     H_    0.601973 0.741600 0.127819 0.188777
H15   H     H_    0.505155 0.752229 0.132782 0.220723
O9    O     O_3   0.419653 0.334462 0.145822 -0.553194
C33   C     C_3   0.443036 0.213693 0.118385 -0.274242
H16   H     H_    0.423443 0.152983 0.201798 0.192389
H17   H     H_    0.500487 0.208333 0.117872 0.139262
H18   H     H_    0.421794 0.176074 0.018592 0.171432
O10   O     O_3   0.411529 0.347793 0.845968 -0.577596
C34   C     C_3   0.342388 0.369132 0.885606 -0.238718
H19   H     H_    0.308471 0.344435 0.795439 0.186420
H20   H     H_    0.332934 0.467125 0.916197 0.143161
H21   H     H_    0.326296 0.307737 0.971139 0.202905
O11   O     O_3   0.146105 0.553080 0.739727 -0.544607
C35   C     C_3   0.160914 0.667449 0.807419 -0.166275
H22   H     H_    0.122679 0.681339 0.892136 0.231166
H23   H     H_    0.156284 0.746136 0.735179 0.131838
H24   H     H_    0.212907 0.668041 0.856876 0.142474
N7    N     N_R   0.152161 0.522229 0.226072 0.136837
O12   O     O_R   0.175291 0.455023 0.122763 -0.352558
O13   O     O_R   0.107743 0.607428 0.199982 -0.356651
O14   O     O_3   0.715166 0.510979 0.754407 -0.563116
C36   C     C_3   0.728392 0.622754 0.828713 -0.313188
H25   H     H_    0.697095 0.622742 0.925478 0.186331
H26   H     H_    0.713271 0.703787 0.766758 0.150209
H27   H     H_    0.783263 0.631860 0.862185 0.164399

loop_
_geom_bond_atom_site_label_1
_geom_bond_atom_site_label_2
_geom_bond_distance
_ccdc_geom_bond_type
C29   N6    1.374725 A    
C8    C9    1.398569 A    
Cu1   Cu2   2.693752 S    
N5    C28   1.371356 A    
C27   N5    1.363027 A    
Cu1   O7    1.944458 S    
C25   H9    1.108718 S    
N3    N4    1.329155 A    
C14   O14   1.386270 S    
C17   C18   1.397980 A    
O4    C2    1.297458 A    
O7    C4    1.301760 A    
C31   H12   1.109835 S    
C5    H1    1.077912 S    
C2    C10   1.473849 S    
N6    C30   1.360921 A    
Cu1   O5    1.971450 S    
C7    C8    1.418302 A    
O5    C3    1.299586 A    
C19   C24   1.381709 A    
C11   C18   1.465587 S    
C28   C29   1.443308 A    
C5    C10   1.396326 A    
C17   H5    1.083310 S    
C33   H17   1.114574 S    
N1    N2    1.330684 A    
C34   H19   1.108417 S    
C31   H13   1.105414 S    
C21   C22   1.395558 A    
C1    C20   1.443858 S    
C22   C23   1.406046 A    
Cu1   N6    2.023420 S    
O3    Cu1   1.943478 S    
C6    C7    1.416114 A    
C26   H10   1.110857 S    
C25   H8    1.111603 S    
O11   C35   1.411483 S    
C7    C12   1.479772 S    
N2    C11   1.355961 A    
O3    C2    1.305814 A    
C20   C21   1.403373 A    
N7    O13   1.301488 A    
C26   H11   1.112202 S    
C11   N3    1.356047 A    
C24   C25   1.492552 S    
O1    C1    1.296273 A    
C35   H22   1.109248 S    
C13   H3    1.082816 S    
C27   C32   1.486604 S    
C36   H25   1.108255 S    
Cu2   O8    1.943476 S    
C33   H18   1.106140 S    
C34   H21   1.107986 S    
C16   H4    1.083146 S    
N1    C12   1.358516 A    
C8    N7    1.438278 S    
C35   H23   1.114573 S    
C19   C26   1.486377 S    
C29   O10   1.384605 S    
C21   H6    1.082707 S    
C36   H26   1.113879 S    
O8    C4    1.304447 A    
C33   H16   1.108876 S    
C6    O11   1.386159 S    
C22   H7    1.080971 S    
C9    C10   1.401670 A    
C23   C24   1.395408 A    
C5    C6    1.401687 A    
C25   C26   1.509985 S    
C32   H14   1.111453 S    
O1    Cu1   1.962581 S    
C14   C15   1.417459 A    
O2    Cu2   1.971450 S    
C4    C15   1.480329 S    
O6    C3    1.293665 A    
Cu2   N5    2.024362 S    
O4    Cu2   1.944458 S    
C32   H15   1.111052 S    
C15   C16   1.407933 A    
O2    C1    1.292993 A    
C31   C32   1.507734 S    
C13   C14   1.403926 A    
O9    C33   1.413399 S    
C30   C31   1.483607 S    
C19   C20   1.393314 A    
C28   O9    1.382500 S    
C16   C17   1.392738 A    
O10   C34   1.413847 S    
C35   H24   1.110879 S    
C27   C30   1.410365 A    
N7    O12   1.301596 A    
C36   H27   1.110505 S    
C9    H2    1.083449 S    
Cu2   O6    1.962582 S    
O14   C36   1.411382 S    
C13   C18   1.398398 A    
N4    C12   1.356652 A    
C34   H20   1.114959 S    
C3    C23   1.451032 S    
