data_mof_unit_26342.cif
_audit_creation_date              2012-10-26T19:58:19-0400
_audit_creation_method            fapswitch 2.2
_symmetry_space_group_name_H-M    P1
_symmetry_Int_Tables_number       1
_space_group_crystal_system       triclinic
_cell_length_a                    7.50446
_cell_length_b                    8.68122
_cell_length_c                    13.324469
_cell_angle_alpha                 94.04383
_cell_angle_beta                  78.766235
_cell_angle_gamma                 103.114741
_cell_volume                      828.90713757

loop_
_atom_site_label
_atom_site_type_symbol
_atom_type_description
_atom_site_fract_x
_atom_site_fract_y
_atom_site_fract_z
_atom_type_partial_charge
C1    C     C_R   0.545005 0.799985 0.503477 0.546710
C2    C     C_R   0.349755 0.405837 0.797535 -0.019692
C3    C     C_2   0.569976 0.968085 0.505467 -0.168617
C4    C     C_R   0.400585 0.464931 0.691182 0.533805
C5    C     C_2   0.429773 0.031935 0.495144 -0.165388
C6    C     C_R   0.454917 0.200002 0.496690 0.538623
C7    C     C_R   0.599425 0.520269 0.306522 0.544028
C8    C     C_R   0.893111 0.571630 0.042916 -0.145550
C9    C     C_R   0.654722 0.543434 0.195362 0.012747
C10   C     C_R   0.169542 0.326849 0.838169 -0.161241
C11   C     C_R   0.118168 0.298895 0.943097 -0.145066
C12   C     C_R   0.428978 0.434115 0.967498 0.009311
C13   C     C_R   0.243848 0.359804 0.008358 -0.138411
C14   C     C_3   0.351739 0.615163 0.171139 -0.267189
C15   C     C_3   0.407026 0.783224 0.215144 -0.413803
C16   C     C_3   0.717588 0.289846 0.744320 -0.252452
C17   C     C_3   0.696035 0.134620 0.797637 -0.462701
C18   C     C_R   0.485447 0.424799 0.860551 0.045213
C19   C     C_R   0.565043 0.499100 0.028631 0.027577
C20   C     C_R   0.755829 0.526267 0.982532 0.018669
C21   C     C_R   0.807182 0.492383 0.878507 -0.129168
C22   C     C_R   0.672467 0.419475 0.821629 0.038928
C23   C     C_R   0.519853 0.540730 0.133369 0.009695
C24   C     C_R   0.842635 0.567423 0.148989 -0.161019
Cu1   Cu    Cu3+1 0.321300 0.483160 0.488710 0.923117
Cu2   Cu    Cu3+1 0.678700 0.516840 0.511290 0.924620
H1    H     H_    0.949935 0.583689 0.194770 0.122723
H2    H     H_    0.704885 0.039610 0.515375 0.130320
H3    H     H_    0.467731 0.784408 0.284664 0.174546
H4    H     H_    0.510017 0.858723 0.157059 0.145315
H5    H     H_    0.281860 0.834933 0.236287 0.135817
H6    H     H_    0.283469 0.628692 0.106707 0.130098
H7    H     H_    0.244685 0.539911 0.227244 0.165642
H8    H     H_    0.772883 0.151883 0.861907 0.150731
H9    H     H_    0.546641 0.085916 0.828618 0.159423
H10   H     H_    0.749173 0.047026 0.741761 0.145181
H11   H     H_    0.620729 0.260597 0.689981 0.187980
H12   H     H_    0.294835 0.960412 0.485311 0.134022
H13   H     H_    0.859795 0.326935 0.698697 0.158358
H14   H     H_    0.010910 0.618771 0.579767 0.241422
H15   H     H_    0.988984 0.381058 0.420349 0.237735
H16   H     H_    0.952025 0.509793 0.843759 0.121819
H17   H     H_    0.039112 0.595647 0.008172 0.123121
H18   H     H_    0.070499 0.287146 0.788412 0.126007
H19   H     H_    0.197737 0.341612 0.089565 0.112402
H20   H     H_    0.978437 0.237444 0.974936 0.125550
N1    N     N_2   0.947230 0.542220 0.528320 -0.267820
N2    N     N_2   0.052770 0.457780 0.471680 -0.268595
O1    O     O_R   0.383920 0.714220 0.492660 -0.503815
O2    O     O_R   0.685730 0.742660 0.511730 -0.491423
O3    O     O_R   0.275440 0.478800 0.636790 -0.507534
O4    O     O_R   0.577250 0.507240 0.655860 -0.504655
O5    O     O_R   0.314270 0.257340 0.488270 -0.497279
O6    O     O_R   0.616080 0.285780 0.507340 -0.521720
O7    O     O_R   0.422750 0.492760 0.344140 -0.503652
O8    O     O_R   0.724560 0.521200 0.363210 -0.504463

loop_
_geom_bond_atom_site_label_1
_geom_bond_atom_site_label_2
_ccdc_geom_bond_type
C14   C23   S    
H14   N1    S    
C2    C4    S    
Cu1   O3    S    
C9    C24   A    
C15   H5    S    
C17   H10   S    
Cu2   O4    S    
C2    C18   A    
C1    O2    A    
C19   C23   A    
N1    N2    D    
C8    H17   S    
C7    O7    A    
C16   H11   S    
C24   H1    S    
C14   H7    S    
Cu1   O7    S    
C21   C22   A    
C12   C13   A    
C13   H19   S    
C11   C13   A    
Cu1   N2    S    
C16   H13   S    
C8    C20   A    
C7    O8    A    
C4    O4    A    
Cu2   N1    S    
C12   C19   A    
C3    H2    S    
C8    C24   A    
H15   N2    S    
Cu1   O5    S    
C15   H3    S    
Cu2   O2    S    
C5    C6    S    
Cu1   O1    S    
C6    O5    A    
C10   C11   A    
C4    O3    A    
C10   H18   S    
C21   H16   S    
C2    C10   A    
Cu2   O6    S    
C5    H12   S    
C20   C21   A    
C15   H4    S    
C17   H8    S    
C12   C18   A    
C7    C9    S    
C14   C15   S    
C9    C23   A    
C11   H20   S    
C16   C22   S    
C17   H9    S    
C3    C5    D    
Cu1   Cu2   S    
C18   C22   A    
C1    O1    A    
C6    O6    A    
C19   C20   A    
C14   H6    S    
C16   C17   S    
C1    C3    S    
Cu2   O8    S    
