data_mof_unit_63698.cif
_audit_creation_date              2013-03-05T16:21:15-0500
_audit_creation_method            fapswitch 2.2
_symmetry_space_group_name_H-M    P1
_symmetry_Int_Tables_number       1
_space_group_crystal_system       triclinic
_cell_length_a                    18.745821
_cell_length_b                    18.73536
_cell_length_c                    18.846311
_cell_angle_alpha                 109.28977
_cell_angle_beta                  109.925419
_cell_angle_gamma                 109.161644
_cell_volume                      5097.43360022

loop_
_atom_site_label
_atom_site_type_symbol
_atom_site_description
_atom_site_fract_x
_atom_site_fract_y
_atom_site_fract_z
_atom_type_partial_charge
O1    O     O_R   0.590590 0.537990 0.448210 -0.590987
O2    O     O_R   0.589760 0.642350 0.551800 -0.590967
C1    C     C_R   0.618190 0.618969 0.499614 0.783618
O3    O     O_R   0.409550 0.447830 0.357350 -0.603090
O4    O     O_R   0.408710 0.552190 0.460940 -0.564345
C2    C     C_R   0.380521 0.499928 0.380458 0.809470
Cu1   Cu    Cu3+1 0.500490 0.438210 0.438660 0.932319
Cu2   Cu    Cu3+1 0.499510 0.561790 0.561340 0.982211
O5    O     O_R   0.410240 0.357650 0.448200 -0.597002
O6    O     O_R   0.409410 0.462010 0.551790 -0.570696
O7    O     O_R   0.591290 0.447810 0.539060 -0.595734
O8    O     O_R   0.590450 0.552170 0.642650 -0.567349
C3    C     C_R   0.381605 0.381375 0.500172 0.815760
C4    C     C_R   0.619549 0.500254 0.619473 0.868561
C5    C     C_3   0.323599 0.579528 0.300577 -0.211073
C6    C     C_3   0.232119 0.559632 0.289306 -0.220096
H1    H     H_    0.214155 0.607827 0.318757 0.137362
H2    H     H_    0.383621 0.644536 0.341730 0.146306
C7    C     C_3   0.191293 0.499665 0.190975 -0.042412
C8    C     C_3   0.281814 0.520100 0.201363 -0.120964
C9    C     C_3   0.272030 0.440453 0.213915 -0.225838
C10   C     C_3   0.180261 0.419437 0.202067 -0.246076
C11   C     C_3   0.222570 0.479840 0.300325 0.561293
C12   C     C_3   0.312836 0.499900 0.312159 -0.044543
H3    H     H_    0.304936 0.536659 0.159009 0.155058
H4    H     H_    0.289776 0.392185 0.184175 0.162583
H5    H     H_    0.120671 0.354103 0.160950 0.148695
C13   C     C_R   0.761778 0.684969 0.510755 0.099733
C14   C     C_R   0.685723 0.687036 0.501972 -0.075471
C15   C     C_R   0.679403 0.760372 0.504038 -0.205576
H6    H     H_    0.623146 0.765971 0.502124 0.152812
C16   C     C_R   0.743420 0.824301 0.503005 -0.216101
H7    H     H_    0.736036 0.878638 0.500804 0.152251
C17   C     C_R   0.815435 0.816540 0.502922 -0.075139
C18   C     C_R   0.826358 0.749423 0.512614 0.133807
C19   C     C_3   0.844266 0.685441 0.460200 -0.511677
C20   C     C_3   0.773011 0.614758 0.458034 -0.447392
H8    H     H_    0.827758 0.679596 0.395253 0.188062
H9    H     H_    0.910193 0.695428 0.498329 0.195903
H10   H     H_    0.714874 0.568028 0.391803 0.210826
H11   H     H_    0.798194 0.584546 0.494822 0.190294
C21   C     C_R   0.761346 0.509603 0.689670 0.012498
C22   C     C_R   0.683518 0.498267 0.686621 -0.132294
C23   C     C_R   0.669690 0.486225 0.752021 0.039350
C24   C     C_R   0.734109 0.483266 0.816614 0.405214
C25   C     C_R   0.815081 0.500008 0.819186 -0.230488
C26   C     C_R   0.824962 0.512931 0.754144 0.044832
C27   C     C_3   0.885852 0.530563 0.719776 0.002918
C28   C     C_3   0.813111 0.527957 0.646640 -0.515058
H12   H     H_    0.900728 0.477225 0.697678 0.143953
H13   H     H_    0.828678 0.591614 0.649022 0.189082
H14   H     H_    0.784072 0.471693 0.581218 0.189487
C29   C     C_R   0.243175 0.244288 0.425559 0.023030
C30   C     C_R   0.316650 0.315454 0.501762 -0.070625
C31   C     C_R   0.324719 0.322013 0.581214 -0.207487
H15   H     H_    0.381016 0.376385 0.642603 0.158775
C32   C     C_R   0.260138 0.256834 0.581305 -0.196377
H16   H     H_    0.267759 0.262211 0.642783 0.172068
C33   C     C_R   0.185542 0.186318 0.502007 -0.086591
C34   C     C_R   0.179605 0.183610 0.425742 0.069129
C35   C     C_3   0.124292 0.132100 0.328832 -0.049949
C36   C     C_3   0.197035 0.201731 0.328452 -0.107629
H17   H     H_    0.060031 0.129673 0.304272 0.177001
H18   H     H_    0.233118 0.178084 0.299600 0.172139
O9    O     O_R   0.951010 0.538020 0.093350 -0.599650
O10   O     O_R   0.055390 0.642370 0.093330 -0.560385
C37   C     C_R   0.002291 0.618853 0.120705 0.862556
O11   O     O_R   0.042570 0.447840 0.094710 -0.604349
O12   O     O_R   0.146960 0.552180 0.094690 -0.583276
C38   C     C_R   0.123414 0.499836 0.123133 0.801919
Cu3   Cu    Cu3+1 0.942090 0.438240 0.003860 0.948198
Cu4   Cu    Cu3+1 0.065700 0.561800 0.003830 0.995388
O13   O     O_R   0.952400 0.357670 0.914360 -0.587870
O14   O     O_R   0.056780 0.462020 0.914330 -0.557439
O15   O     O_R   0.860840 0.447860 0.913000 -0.573041
O16   O     O_R   0.965220 0.552200 0.912980 -0.561869
C39   C     C_R   0.005607 0.381353 0.886637 0.848915
C40   C     C_R   0.883916 0.500564 0.885041 0.860237
O17   O     O_R   0.946640 0.090180 0.536890 -0.591747
O18   O     O_R   0.051820 0.090220 0.642110 -0.582723
C41   C     C_R   0.999511 0.118818 0.617725 0.896458
O19   O     O_R   0.857230 0.909860 0.447430 -0.586894
O20   O     O_R   0.962420 0.909900 0.552660 -0.602596
C42   C     C_R   0.881232 0.880962 0.499821 0.782371
Cu5   Cu    Cu3+1 0.937720 0.000020 0.437750 0.948575
Cu6   Cu    Cu3+1 0.062280 0.000080 0.562350 0.916930
O21   O     O_R   0.948170 0.909880 0.357990 -0.582138
O22   O     O_R   0.053360 0.909920 0.463210 -0.606108
O23   O     O_R   0.037580 0.090200 0.447440 -0.585735
O24   O     O_R   0.142770 0.090240 0.552670 -0.586969
C43   C     C_R   0.001246 0.881137 0.382240 0.835132
C44   C     C_R   0.118720 0.118956 0.500426 0.847661
C45   C     C_R   0.037341 0.700902 0.270700 -0.043944
C46   C     C_R   0.002874 0.686728 0.186233 -0.171562
C47   C     C_R   0.979043 0.745492 0.168728 0.469436
C48   C     C_R   0.980592 0.810768 0.234289 -0.258615
H19   H     H_    0.959534 0.854080 0.219689 0.187480
C49   C     C_R   0.006564 0.817968 0.316973 -0.221964
C50   C     C_R   0.042399 0.767106 0.336406 0.108080
C51   C     C_3   0.023741 0.711988 0.377701 0.349437
C52   C     C_3   0.014690 0.638757 0.302571 -0.472055
H20   H     H_    0.961631 0.695615 0.379061 0.050215
H21   H     H_    0.065347 0.619617 0.321879 0.208744
H22   H     H_    0.946534 0.583397 0.257838 0.162357
C53   C     C_R   0.933079 0.235959 0.759023 -0.069275
C54   C     C_R   0.007781 0.315837 0.821084 -0.271448
C55   C     C_R   0.084365 0.332175 0.814597 0.381707
C56   C     C_R   0.083146 0.265250 0.749177 0.360381
C57   C     C_R   0.003127 0.187566 0.684568 -0.200080
C58   C     C_R   0.929852 0.176510 0.691751 -0.069932
C59   C     C_3   0.835068 0.113795 0.650134 -0.490371
C60   C     C_3   0.837568 0.181702 0.726291 0.424670
H23   H     H_    0.795913 0.106506 0.586110 0.168865
H24   H     H_    0.823090 0.051439 0.649604 0.194829
H25   H     H_    0.799788 0.212846 0.704943 0.075656
N1    N     N_3   0.591053 0.477665 0.752661 -0.576305
H26   H     H_    0.552613 0.414115 0.737352 0.207292
H27   H     H_    0.607650 0.520869 0.815114 0.247002
O25   O     O_3   0.721729 0.473154 0.881767 -0.591435
C61   C     C_3   0.673353 0.383445 0.852585 -0.260234
H28   H     H_    0.690623 0.374312 0.910148 0.185734
H29   H     H_    0.687557 0.341540 0.808069 0.154276
H30   H     H_    0.602323 0.360522 0.820678 0.142497
N2    N     N_3   0.963931 0.616846 0.779133 -0.546464
H31   H     H_    0.995275 0.630362 0.744939 0.213614
H32   H     H_    0.946118 0.664397 0.797627 0.238531
N3    N     N_3   0.116869 0.046037 0.293434 -0.585839
H33   H     H_    0.089709 0.019584 0.226127 0.235650
H34   H     H_    0.178967 0.051944 0.318026 0.227356
N4    N     N_3   0.168154 0.254221 0.296376 -0.579089
H35   H     H_    0.141690 0.281218 0.331042 0.248560
H36   H     H_    0.223351 0.306171 0.308952 0.244825
O26   O     O_3   0.954138 0.739070 0.087881 -0.574909
C62   C     C_3   0.862076 0.692707 0.038104 -0.301274
H37   H     H_    0.834501 0.627526 0.032905 0.190048
H38   H     H_    0.842064 0.681966 0.971214 0.198805
H39   H     H_    0.833909 0.730528 0.065538 0.155286
O27   O     O_3   0.098051 0.739280 0.455772 -0.559269
C63   C     C_3   0.105197 0.801491 0.528938 -0.244071
H40   H     H_    0.042073 0.797485 0.520487 0.146123
H41   H     H_    0.152009 0.867735 0.546888 0.193205
H42   H     H_    0.132924 0.791316 0.584538 0.161690
O28   O     O_3   0.161113 0.410582 0.875170 -0.571768
C64   C     C_3   0.176719 0.461545 0.835521 -0.236532
H43   H     H_    0.231582 0.528068 0.886791 0.171739
H44   H     H_    0.118934 0.467874 0.803102 0.147774
H45   H     H_    0.196524 0.434932 0.788251 0.189009
O29   O     O_3   0.157853 0.277932 0.743996 -0.587747
C65   C     C_3   0.213766 0.270274 0.809887 -0.269841
H46   H     H_    0.179300 0.208906 0.809411 0.155585
H47   H     H_    0.244236 0.327393 0.875104 0.193514
H48   H     H_    0.267321 0.268516 0.797941 0.168321
O30   O     O_3   0.814208 0.149953 0.778837 -0.557255
C66   C     C_3   0.877883 0.137967 0.832617 -0.239553
H49   H     H_    0.935646 0.201619 0.886874 0.174103
H50   H     H_    0.898249 0.097359 0.795604 0.147522
H51   H     H_    0.849084 0.103414 0.862044 0.170639
O31   O     O_3   0.197398 0.459587 0.356770 -0.589571
C67   C     C_3   0.110304 0.440822 0.329060 -0.325447
H52   H     H_    0.064610 0.381839 0.263517 0.160112
H53   H     H_    0.102528 0.497285 0.329474 0.163112
H54   H     H_    0.092088 0.426963 0.375118 0.193143

loop_
_geom_bond_atom_site_label_1
_geom_bond_atom_site_label_2
_geom_bond_distance
_ccdc_geom_bond_type
C5    H2    1.110140 S    
C15   C16   1.401006 A    
C53   C58   1.349857 A    
C45   C46   1.388931 A    
O21   C43   1.301224 A    
C36   N4    1.464537 S    
C47   C48   1.406078 A    
Cu4   O16   1.971745 S    
C62   H39   1.112574 S    
O26   C62   1.409587 S    
Cu1   Cu2   2.688263 S    
C59   H23   1.111296 S    
Cu5   Cu6   2.688064 S    
C56   C57   1.414930 A    
Cu1   O7    1.972012 S    
O20   C42   1.292475 A    
C13   C14   1.393273 A    
O16   C40   1.297921 A    
C20   H10   1.112062 S    
O12   C38   1.291642 A    
O3    Cu1   1.972435 S    
O4    C2    1.292829 A    
Cu2   O6    1.969153 S    
O7    C4    1.292305 A    
Cu6   O22   1.971986 S    
C32   C33   1.411601 A    
C8    H3    1.110147 S    
O28   C64   1.411603 S    
C11   O31   1.410505 S    
C47   O26   1.382447 S    
N1    H26   1.043164 S    
C35   H17   1.112445 S    
C17   C18   1.397061 A    
C1    C14   1.447517 S    
O5    C3    1.293235 A    
C58   C59   1.491147 S    
O18   Cu6   1.972592 S    
C30   C31   1.411374 A    
C29   C34   1.352237 A    
O10   Cu4   1.972958 S    
C18   C19   1.494414 S    
C13   C18   1.381471 A    
C6    H1    1.110254 S    
O9    C37   1.293864 A    
O14   C39   1.289412 A    
C48   C49   1.408672 A    
C37   C46   1.444462 S    
C36   H18   1.112533 S    
C55   C56   1.425981 A    
C67   H53   1.112174 S    
C45   C50   1.381614 A    
C66   H50   1.110273 S    
C61   H30   1.107791 S    
C21   C26   1.347571 A    
C24   O25   1.384377 S    
C27   H12   1.112172 S    
O10   C37   1.289724 A    
C33   C34   1.385619 A    
C52   H21   1.112193 S    
C9    C10   1.549085 S    
C46   C47   1.408156 A    
C17   C42   1.449125 S    
C64   H45   1.110663 S    
C9    H4    1.110108 S    
C61   H29   1.116012 S    
Cu5   O21   1.972474 S    
C5    C8    1.550205 S    
C26   C27   1.493075 S    
C7    C10   1.542350 S    
O29   C65   1.410866 S    
C66   H51   1.109043 S    
C64   H44   1.114375 S    
Cu6   O24   1.970102 S    
C65   H48   1.109275 S    
C45   C52   1.485952 S    
C25   C40   1.447960 S    
Cu5   O23   1.969530 S    
O18   C41   1.288510 A    
C62   H38   1.109469 S    
C21   C28   1.489653 S    
C28   H13   1.112096 S    
C29   C30   1.385069 A    
C34   C35   1.493309 S    
O1    C1    1.296148 A    
C16   C17   1.404905 A    
O12   Cu4   1.972653 S    
N4    H36   1.045672 S    
C22   C23   1.414331 A    
N3    H34   1.046867 S    
C14   C15   1.406408 A    
C29   C36   1.495792 S    
O24   C44   1.291822 A    
C67   H52   1.111880 S    
O22   C43   1.291578 A    
Cu2   O8    1.972433 S    
C28   H14   1.111234 S    
C2    C12   1.467200 S    
C48   H19   1.083430 S    
C31   H15   1.083227 S    
C51   H20   1.114196 S    
C67   H54   1.109151 S    
C35   N3    1.463919 S    
O23   C44   1.293184 A    
C66   H49   1.110057 S    
C51   O27   1.416025 S    
Cu4   O14   1.971554 S    
C5    C12   1.536734 S    
C53   C60   1.502529 S    
C41   C57   1.436318 S    
C49   C50   1.405886 A    
C6    C11   1.537785 S    
O19   C42   1.296458 A    
C10   H5    1.110099 S    
C31   C32   1.410361 A    
O31   C67   1.408051 S    
O3    C2    1.291461 A    
C21   C22   1.381437 A    
C55   O28   1.384263 S    
N3    H33   1.045313 S    
O17   Cu5   1.971984 S    
C61   H28   1.109330 S    
N2    H32   1.046956 S    
C3    C30   1.439084 S    
Cu1   O5    1.970514 S    
C25   C26   1.384517 A    
C39   C54   1.449088 S    
C59   C60   1.545767 S    
O1    Cu1   1.969154 S    
C19   H9    1.110310 S    
O2    Cu2   1.970514 S    
C23   C24   1.424728 A    
O8    C4    1.290126 A    
C64   H43   1.109177 S    
O6    C3    1.291054 A    
C27   N2    1.463859 S    
O4    Cu2   1.972014 S    
C63   H40   1.112021 S    
O11   Cu3   1.971745 S    
C62   H37   1.113598 S    
C52   H22   1.112241 S    
O19   Cu5   1.970101 S    
C53   C54   1.385663 A    
O17   C41   1.293359 A    
C50   C51   1.507913 S    
C60   O30   1.428295 S    
C16   H7    1.083392 S    
C7    C8    1.536852 S    
C65   H47   1.110569 S    
N4    H35   1.046950 S    
Cu3   Cu4   2.684885 S    
O9    Cu3   1.971458 S    
C57   C58   1.380758 A    
Cu3   O15   1.972560 S    
C63   H41   1.109118 S    
C32   H16   1.083336 S    
C15   H6    1.083367 S    
C13   C20   1.490925 S    
C6    C7    1.541264 S    
C27   C28   1.546745 S    
C19   H8    1.112196 S    
C51   C52   1.521835 S    
C63   H42   1.109165 S    
N1    H27   1.045455 S    
O2    C1    1.291933 A    
C59   H24   1.110823 S    
C33   C44   1.440364 S    
C43   C49   1.457016 S    
C20   H11   1.111553 S    
C35   C36   1.551271 S    
O15   C40   1.287828 A    
O27   C63   1.409813 S    
C11   C12   1.524511 S    
C24   C25   1.425490 A    
O20   Cu6   1.969529 S    
C8    C9    1.549009 S    
C23   N1    1.434255 S    
C19   C20   1.518363 S    
O25   C61   1.413673 S    
C54   C55   1.423223 A    
C9    C12   1.538407 S    
Cu3   O13   1.972958 S    
O11   C38   1.290501 A    
O13   C39   1.297117 A    
C10   C11   1.537543 S    
C4    C22   1.437687 S    
C7    C38   1.466399 S    
O30   C66   1.415708 S    
C65   H46   1.114031 S    
C60   H25   1.111796 S    
C5    C6    1.550683 S    
N2    H31   1.045408 S    
C56   O29   1.384666 S    
