data_mof_unit_45944.cif
_audit_creation_date              2012-12-11T17:41:19-0500
_audit_creation_method            fapswitch 2.2
_symmetry_space_group_name_H-M    P1
_symmetry_Int_Tables_number       1
_space_group_crystal_system       triclinic
_cell_length_a                    15.478672
_cell_length_b                    14.879789
_cell_length_c                    15.057866
_cell_angle_alpha                 109.844306
_cell_angle_beta                  121.515596
_cell_angle_gamma                 59.250433
_cell_volume                      2528.53293627

loop_
_atom_site_label
_atom_site_type_symbol
_atom_type_description
_atom_site_fract_x
_atom_site_fract_y
_atom_site_fract_z
_atom_type_partial_charge
C1    C     C_R   0.755798 0.993409 0.791128 -0.121885
C2    C     C_R   0.196315 0.063018 0.227293 -0.139308
C3    C     C_R   0.212676 0.300077 0.566516 0.148109
C4    C     C_R   0.863208 0.726353 0.519273 0.154629
C5    C     C_R   0.502709 0.296235 0.427173 0.072071
C6    C     C_R   0.494134 0.675026 0.446514 0.043925
C7    C     C_R   0.495245 0.931552 0.794392 0.063059
C8    C     C_R   0.495964 0.965347 0.173207 0.049880
C9    C     C_R   0.711205 0.596798 0.800194 -0.115580
C10   C     C_R   0.255529 0.296079 0.096567 -0.124251
C11   C     C_R   0.629037 0.685766 0.825336 -0.134774
C12   C     C_R   0.338507 0.199622 0.082009 -0.137993
C13   C     C_R   0.658438 0.745355 0.922980 0.119096
C14   C     C_R   0.310211 0.117819 0.012466 0.117686
C15   C     C_R   0.771431 0.713481 0.995181 -0.172297
C16   C     C_R   0.197476 0.134535 0.956546 -0.185775
C17   C     C_R   0.853288 0.624297 0.969717 -0.111101
C18   C     C_R   0.114800 0.230879 0.971984 -0.125878
C19   C     C_R   0.823229 0.566059 0.872337 -0.106068
C20   C     C_R   0.143823 0.311618 0.041967 -0.098999
C21   C     C_R   0.570944 0.856493 0.045481 -0.244113
C22   C     C_R   0.396116 0.997919 0.897938 -0.235983
C23   C     C_R   0.244109 0.290528 0.491234 -0.117848
C24   C     C_R   0.801133 0.725827 0.559716 -0.130202
C25   C     C_R   0.487531 0.945539 0.069341 0.065868
C26   C     C_R   0.485809 0.917100 0.878216 0.052668
C27   C     C_R   0.397491 0.016266 0.993624 0.014717
C28   C     C_R   0.571075 0.840821 0.948872 0.020396
C29   C     C_2   0.151853 0.398093 0.614776 -0.212168
C30   C     C_2   0.978160 0.653465 0.537981 -0.227883
C31   C     C_2   0.133841 0.490226 0.598584 -0.118618
C32   C     C_2   0.039391 0.584053 0.608576 -0.100530
C33   C     C_2   0.847253 0.120170 0.899732 -0.211380
C34   C     C_2   0.014351 0.048202 0.156515 -0.224408
C35   C     C_R   0.126664 0.765774 0.388538 -0.182782
C36   C     C_R   0.836837 0.117773 0.397493 -0.166267
C37   C     C_R   0.237440 0.690693 0.414469 0.165666
C38   C     C_R   0.730536 0.201915 0.363330 0.174848
C39   C     C_R   0.275855 0.643713 0.335130 0.043839
C40   C     C_R   0.708519 0.293963 0.433661 0.060982
C41   C     C_R   0.202509 0.671940 0.232510 -0.185175
C42   C     C_R   0.795157 0.300597 0.533020 -0.201695
C43   C     C_R   0.092938 0.746970 0.208486 -0.118897
C44   C     C_R   0.900504 0.217151 0.564038 -0.116509
C45   C     C_R   0.593609 0.215331 0.486428 -0.147093
C46   C     C_R   0.404855 0.771402 0.438753 -0.146181
C47   C     C_R   0.055077 0.793665 0.286265 -0.146518
C48   C     C_R   0.921046 0.125642 0.496717 -0.127070
C49   C     C_R   0.396920 0.459654 0.346028 -0.243154
C50   C     C_R   0.588711 0.482926 0.411751 -0.235414
C51   C     C_R   0.500472 0.376280 0.388090 0.037368
C52   C     C_R   0.488353 0.572593 0.398901 0.056020
C53   C     C_R   0.596899 0.383703 0.407821 0.032190
C54   C     C_R   0.388913 0.558805 0.355663 0.044553
C55   C     C_2   0.860761 0.107668 0.990804 -0.112366
C56   C     C_2   0.955636 0.117847 0.086351 -0.111382
C57   C     C_R   0.405452 0.983627 0.710183 -0.146582
C58   C     C_R   0.591409 0.953674 0.267016 -0.154344
C59   C     C_R   0.409718 0.287019 0.408870 -0.136484
C60   C     C_R   0.589600 0.693290 0.517798 -0.122059
C61   C     C_R   0.589846 0.913178 0.789942 -0.134335
C62   C     C_R   0.405565 0.019640 0.195333 -0.111037
C63   C     C_R   0.243249 0.199596 0.583102 -0.142764
C64   C     C_R   0.801373 0.815795 0.467867 -0.152588
C65   C     C_R   0.756841 0.085739 0.701006 -0.147722
C66   C     C_R   0.194339 0.972760 0.316524 -0.159691
C67   C     C_R   0.786989 0.070108 0.801148 0.144957
C68   C     C_R   0.131469 0.025946 0.228455 0.162807
H1    H     H_    0.768408 0.960102 0.852595 0.089938
H2    H     H_    0.168946 0.120212 0.178814 0.095545
H3    H     H_    0.980546 0.997777 0.152844 0.128798
H4    H     H_    0.892331 0.156401 0.898514 0.126084
H5    H     H_    0.886756 0.497107 0.852803 0.099520
H6    H     H_    0.079736 0.386372 0.053457 0.101148
H7    H     H_    0.687961 0.551662 0.724763 0.106416
H8    H     H_    0.277738 0.358967 0.149628 0.110846
H9    H     H_    0.542544 0.708161 0.768687 0.113556
H10   H     H_    0.424549 0.188345 0.124776 0.121766
H11   H     H_    0.796396 0.758435 0.070461 0.107854
H12   H     H_    0.173975 0.072701 0.901702 0.116940
H13   H     H_    0.940134 0.600550 0.025410 0.108740
H14   H     H_    0.028222 0.243109 0.929340 0.103694
H15   H     H_    0.636225 0.800338 0.102630 0.132574
H16   H     H_    0.330433 0.056973 0.843880 0.130919
H17   H     H_    0.009813 0.586248 0.660934 0.125375
H18   H     H_    0.173526 0.493749 0.559007 0.129428
H19   H     H_    0.008718 0.649825 0.485633 0.125319
H20   H     H_    0.110305 0.395009 0.653023 0.130906
H21   H     H_    0.970074 0.851785 0.267307 0.104554
H22   H     H_    0.002499 0.060513 0.521417 0.107022
H23   H     H_    0.231930 0.352242 0.458014 0.087324
H24   H     H_    0.829023 0.675183 0.615058 0.083930
H25   H     H_    0.095940 0.803411 0.447989 0.112628
H26   H     H_    0.854820 0.045483 0.346981 0.104703
H27   H     H_    0.230297 0.635363 0.171018 0.127047
H28   H     H_    0.780312 0.370067 0.587594 0.117015
H29   H     H_    0.037060 0.768580 0.129267 0.112537
H30   H     H_    0.966022 0.223038 0.640979 0.110320
H31   H     H_    0.320339 0.453600 0.319513 0.116877
H32   H     H_    0.663511 0.490689 0.433885 0.129912
H33   H     H_    0.680125 0.189520 0.507551 0.117271
H34   H     H_    0.318968 0.791870 0.386890 0.130424
H35   H     H_    0.319427 0.998437 0.681507 0.086833
H36   H     H_    0.676956 0.916713 0.278322 0.097999
H37   H     H_    0.324485 0.325900 0.353918 0.085518
H38   H     H_    0.675213 0.636185 0.544179 0.092460
H39   H     H_    0.675329 0.866366 0.839047 0.107092
H40   H     H_    0.319310 0.038572 0.141855 0.115892
H41   H     H_    0.230735 0.178751 0.636319 0.098978
H42   H     H_    0.831533 0.847367 0.440297 0.091761
H43   H     H_    0.769625 0.139711 0.680820 0.104360
H44   H     H_    0.162471 0.948354 0.349018 0.109631
H45   H     H_    0.988485 0.168311 0.088750 0.129905
H46   H     H_    0.816714 0.071050 0.992996 0.127144
N1    N     N_R   0.705410 0.966550 0.689210 -0.045270
N2    N     N_R   0.294590 0.033450 0.310790 -0.043565
N3    N     N_R   0.294590 0.188320 0.465660 -0.044829
N4    N     N_R   0.705410 0.811680 0.534340 -0.042830
N5    N     N_R   0.556610 0.157790 0.497330 -0.039684
N6    N     N_R   0.443390 0.842210 0.502670 -0.041852
N7    N     N_R   0.443390 0.997080 0.657540 -0.036346
N8    N     N_R   0.556610 0.002920 0.342460 -0.037635
N9    N     N_R   0.443390 0.203250 0.451380 -0.038111
N10   N     N_R   0.556610 0.796750 0.548620 -0.037684
N11   N     N_R   0.556610 0.951620 0.703500 -0.040008
N12   N     N_R   0.443390 0.048380 0.296500 -0.041475
N13   N     N_R   0.294590 0.131500 0.522480 -0.042553
N14   N     N_R   0.705410 0.868500 0.477520 -0.038794
N15   N     N_R   0.705410 0.023370 0.632390 -0.042363
N16   N     N_R   0.294590 0.976630 0.367610 -0.042725
Ni1   Ni    Ni4+2 0.629830 0.882720 0.617850 0.214423
Ni2   Ni    Ni4+2 0.370170 0.117280 0.382150 0.214417
Ni3   Ni    Ni4+2 0.629830 0.013030 0.487540 0.213106
Ni4   Ni    Ni4+2 0.370170 0.986970 0.512460 0.208154
C69   C     C_3   0.313507 0.666393 0.527308 -0.448458
C70   C     C_3   0.290017 0.594155 0.555549 -0.259894
C71   C     C_3   0.373791 0.561662 0.665979 -0.887937
H47   H     H_    0.459740 0.517835 0.671608 0.260552
H48   H     H_    0.369313 0.632081 0.724039 0.259701
H49   H     H_    0.354825 0.509843 0.684987 0.252191
H50   H     H_    0.204608 0.635825 0.551093 0.191833
H51   H     H_    0.295370 0.522281 0.499263 0.197791
H52   H     H_    0.402490 0.628899 0.542769 0.202427
H53   H     H_    0.301267 0.741110 0.579555 0.181512
C72   C     C_3   0.643875 0.189206 0.253495 -0.479012
C73   C     C_3   0.678822 0.177071 0.170017 -0.233906
C74   C     C_3   0.593589 0.159078 0.059975 -0.917931
H54   H     H_    0.585307 0.086532 0.052113 0.266813
H55   H     H_    0.511094 0.227111 0.043140 0.264715
H56   H     H_    0.621406 0.149830 0.001502 0.250925
H57   H     H_    0.686704 0.249247 0.175720 0.208744
H58   H     H_    0.760778 0.109231 0.182362 0.189674
H59   H     H_    0.632368 0.118629 0.245841 0.192714
H60   H     H_    0.562052 0.257383 0.237812 0.198480

loop_
_geom_bond_atom_site_label_1
_geom_bond_atom_site_label_2
_ccdc_geom_bond_type
C33   C55   D    
C66   C68   A    
C55   C56   S    
C34   C56   D    
C23   H23   S    
N9    Ni2   S    
C47   H21   S    
C3    C23   A    
C74   H54   S    
N13   Ni4   S    
C35   C47   A    
C49   C51   A    
C72   C73   S    
C4    C30   S    
C69   C70   S    
C39   C41   A    
N1    Ni1   S    
C46   H34   S    
N5    Ni3   S    
C7    C26   S    
N4    N14   A    
C42   H28   S    
C74   H55   S    
C2    C68   A    
C4    C24   A    
C39   C54   S    
C62   H40   S    
C49   C54   A    
C6    C52   S    
C60   N10   A    
C3    C29   S    
N3    Ni2   S    
C65   H43   S    
C29   H20   S    
C70   H51   S    
N4    Ni1   S    
C11   H9    S    
C33   H4    S    
C8    C58   A    
C2    N2    A    
C9    C19   A    
C15   H11   S    
C21   H15   S    
C10   C20   A    
C65   C67   A    
C12   H10   S    
C50   C52   A    
C56   H45   S    
C37   C69   S    
C13   C28   S    
C14   C27   S    
C17   H13   S    
N6    Ni4   S    
C72   H59   S    
C45   N5    A    
C40   C42   A    
C31   H18   S    
C48   H22   S    
C8    C25   S    
C41   C43   A    
N16   Ni4   S    
C42   C44   A    
C24   H24   S    
C52   C54   A    
C10   C12   A    
C35   H25   S    
C59   N9    A    
C57   H35   S    
C71   H49   S    
C58   N8    A    
C50   C53   A    
C5    C59   A    
C20   H6    S    
C6    C60   A    
C19   H5    S    
C74   H56   S    
C34   C68   S    
C62   N12   A    
C64   N14   A    
C5    C45   A    
C1    H1    S    
N10   Ni1   S    
C16   H12   S    
C22   H16   S    
N8    N12   A    
N8    Ni3   S    
N7    N11   A    
C70   H50   S    
C49   H31   S    
C9    C11   A    
N11   Ni1   S    
C64   H42   S    
C31   C32   S    
N2    Ni2   S    
N12   Ni2   S    
C46   N6    A    
C59   H37   S    
N3    N13   A    
C45   H33   S    
C73   H58   S    
C72   H60   S    
C16   C18   A    
C69   H53   S    
C21   C28   A    
C12   C14   A    
N15   Ni3   S    
C18   H14   S    
C3    C63   A    
C22   C27   A    
C13   C15   A    
N7    Ni4   S    
C14   C16   A    
C58   H36   S    
C60   H38   S    
C33   C67   S    
C73   C74   S    
N1    N15   A    
C15   C17   A    
C21   C25   A    
C44   H30   S    
C6    C46   A    
C35   C37   A    
C71   H48   S    
C38   C72   S    
C10   H8    S    
C43   H29   S    
C70   C71   S    
C23   N3    A    
C65   N15   A    
C1    C67   A    
C55   H46   S    
N5    N9    A    
C25   C27   A    
C9    H7    S    
C71   H47   S    
C4    C64   A    
C26   C28   A    
C66   H44   S    
C36   C38   A    
C29   C31   D    
C44   C48   A    
N14   Ni3   S    
C30   C32   D    
C11   C13   A    
C41   H27   S    
C38   C40   A    
C32   H17   S    
C69   H52   S    
C24   N4    A    
C17   C19   A    
C36   C48   A    
C18   C20   A    
C61   H39   S    
C63   N13   A    
C50   H32   S    
C57   N7    A    
C73   H57   S    
C36   H26   S    
N2    N16   A    
C37   C39   A    
C40   C53   S    
C22   C26   A    
C5    C51   S    
C61   N11   A    
C1    N1    A    
C51   C53   A    
C30   H19   S    
C2    H2    S    
C43   C47   A    
C34   H3    S    
C7    C57   A    
C7    C61   A    
N6    N10   A    
C8    C62   A    
C63   H41   S    
C66   N16   A    
