data_mof_unit_47856.cif
_audit_creation_date              2012-12-11T15:44:51-0500
_audit_creation_method            fapswitch 2.2
_symmetry_space_group_name_H-M    P1
_symmetry_Int_Tables_number       1
_space_group_crystal_system       triclinic
_cell_length_a                    19.355915
_cell_length_b                    11.058683
_cell_length_c                    18.682093
_cell_angle_alpha                 90.362563
_cell_angle_beta                  90.486532
_cell_angle_gamma                 89.840931
_cell_volume                      3998.68029079

loop_
_atom_site_label
_atom_site_type_symbol
_atom_type_description
_atom_site_fract_x
_atom_site_fract_y
_atom_site_fract_z
_atom_type_partial_charge
C1    C     C_R   0.761087 0.533175 0.646727 0.536856
C2    C     C_R   0.225677 0.483471 0.361323 0.546145
C3    C     C_R   0.261086 0.033172 0.646725 0.536803
C4    C     C_R   0.725669 0.983446 0.361321 0.545055
C5    C     C_R   0.772472 0.963304 0.554902 -0.145693
C6    C     C_R   0.174532 0.107711 0.476004 -0.157661
C7    C     C_R   0.272444 0.463303 0.554911 -0.145111
C8    C     C_R   0.674559 0.607787 0.476007 -0.156668
C9    C     C_R   0.763724 0.933000 0.482925 -0.161027
C10   C     C_R   0.182734 0.098347 0.549905 -0.164189
C11   C     C_R   0.263718 0.433031 0.482926 -0.161329
C12   C     C_R   0.682758 0.598422 0.549905 -0.164647
C13   C     C_3   0.714546 0.247346 0.437216 -0.260361
C14   C     C_3   0.373246 0.053490 0.526862 -0.239438
C15   C     C_3   0.214670 0.747421 0.437215 -0.259667
C16   C     C_3   0.873245 0.553207 0.526887 -0.238081
C17   C     C_3   0.725452 0.282303 0.515077 -0.259018
C18   C     C_3   0.363086 0.064320 0.446450 -0.276658
C19   C     C_3   0.225558 0.782352 0.515084 -0.259801
C20   C     C_3   0.863091 0.563967 0.446477 -0.278748
C21   C     C_R   0.750009 0.076693 0.579332 0.021165
C22   C     C_R   0.233051 0.111750 0.431478 0.014250
C23   C     C_R   0.250005 0.576703 0.579340 0.020532
C24   C     C_R   0.733076 0.611715 0.431475 0.016836
C25   C     C_R   0.010066 0.348652 0.431341 -0.037361
C26   C     C_R   0.012802 0.328229 0.581741 -0.040956
C27   C     C_R   0.509880 0.848673 0.431233 -0.035339
C28   C     C_R   0.512667 0.828266 0.581629 -0.041905
C29   C     C_R   0.966354 0.139078 0.422946 -0.087639
C30   C     C_R   0.992785 0.107749 0.568187 -0.080704
C31   C     C_R   0.466188 0.639115 0.422822 -0.087002
C32   C     C_R   0.492613 0.607773 0.568064 -0.081185
C33   C     C_R   0.955386 0.026822 0.454329 -0.117862
C34   C     C_R   0.970615 0.010264 0.526392 -0.129818
C35   C     C_R   0.455217 0.526857 0.454196 -0.117272
C36   C     C_R   0.470438 0.510295 0.526261 -0.130552
C37   C     C_R   0.999834 0.224527 0.538496 0.000791
C38   C     C_R   0.992544 0.237574 0.463607 -0.016434
C39   C     C_R   0.499659 0.724561 0.538385 0.000041
C40   C     C_R   0.492361 0.737607 0.463496 -0.016198
C41   C     C_R   0.036880 0.434475 0.550098 0.003122
C42   C     C_R   0.026551 0.451798 0.476154 0.015179
C43   C     C_R   0.536703 0.934535 0.549957 0.002844
C44   C     C_R   0.526339 0.951836 0.476023 0.015693
C45   C     C_R   0.773294 0.124780 0.646772 0.537864
C46   C     C_R   0.223988 0.130839 0.355935 0.546123
C47   C     C_R   0.273283 0.624755 0.646789 0.551730
C48   C     C_R   0.723994 0.630832 0.355935 0.533153
C49   C     C_R   0.062939 0.529876 0.593293 -0.069498
C50   C     C_R   0.029711 0.573860 0.451558 -0.086732
C51   C     C_R   0.562802 0.029961 0.593099 -0.070478
C52   C     C_R   0.529485 0.073886 0.451393 -0.086181
C53   C     C_R   0.064516 0.647380 0.567887 -0.115559
C54   C     C_R   0.046552 0.669648 0.497319 -0.155900
C55   C     C_R   0.564397 0.147451 0.567659 -0.116558
C56   C     C_R   0.546389 0.169692 0.497105 -0.155562
C57   C     C_R   0.751076 0.086181 0.079303 -0.000488
C58   C     C_R   0.236027 0.115615 0.910852 0.000651
C59   C     C_R   0.263702 0.615062 0.089422 0.000856
C60   C     C_R   0.748672 0.586841 0.920880 -0.000310
C61   C     C_R   0.813047 0.059686 0.045687 0.044105
C62   C     C_R   0.171417 0.097703 0.942654 0.061101
C63   C     C_R   0.328253 0.597119 0.057330 0.061454
C64   C     C_R   0.686815 0.559917 0.954391 0.043982
C65   C     C_R   0.821124 0.073995 0.973183 -0.060717
C66   C     C_R   0.160563 0.126482 0.015013 -0.064615
C67   C     C_R   0.339038 0.626240 0.985214 -0.062765
C68   C     C_R   0.678962 0.573527 0.027048 -0.062026
C69   C     C_R   0.703430 0.142430 0.964029 -0.158811
C70   C     C_R   0.274705 0.203426 0.023351 -0.167097
C71   C     C_R   0.224804 0.703577 0.977594 -0.167113
C72   C     C_R   0.796583 0.641704 0.036457 -0.158276
C73   C     C_R   0.696631 0.134410 0.038310 -0.170797
C74   C     C_R   0.282018 0.189874 0.948352 -0.171488
C75   C     C_R   0.217719 0.690053 0.052592 -0.171260
C76   C     C_R   0.803130 0.634596 0.962132 -0.171518
C77   C     C_3   0.850551 0.942043 0.046039 0.162069
C78   C     C_3   0.133740 0.981619 0.950395 0.179336
C79   C     C_3   0.366647 0.481485 0.048865 0.178268
C80   C     C_3   0.650179 0.441632 0.953419 0.164035
C81   C     C_3   0.866600 0.964120 0.968329 -0.230075
C82   C     C_3   0.115629 0.020247 0.025190 -0.209018
C83   C     C_3   0.384592 0.520333 0.974320 -0.208863
C84   C     C_3   0.634236 0.463272 0.031293 -0.230579
C85   C     C_R   0.764280 0.106174 0.930288 0.007072
C86   C     C_R   0.215067 0.165663 0.059204 -0.009553
C87   C     C_R   0.284458 0.665629 0.941229 -0.007372
C88   C     C_R   0.735874 0.605225 0.069928 0.006635
C89   C     C_R   0.973755 0.343864 0.649161 0.528803
C90   C     C_R   0.031719 0.348491 0.355214 0.535404
C91   C     C_R   0.473721 0.843868 0.649124 0.536878
C92   C     C_R   0.531636 0.848485 0.355156 0.528891
C93   C     C_R   0.042202 0.344979 0.064577 0.019835
C94   C     C_R   0.002009 0.333587 0.921277 0.048472
C95   C     C_R   0.497455 0.833498 0.078807 0.047542
C96   C     C_R   0.457907 0.846159 0.935375 0.021314
C97   C     C_R   0.068300 0.428034 0.015274 -0.029101
C98   C     C_R   0.046471 0.421988 0.944706 0.009242
C99   C     C_R   0.453589 0.923313 0.055714 0.009584
C100  C     C_R   0.431917 0.929809 0.985111 -0.029539
C101  C     C_R   0.976410 0.250390 0.969924 -0.111924
C102  C     C_R   0.996507 0.255652 0.040859 -0.149153
C103  C     C_R   0.503174 0.755826 0.958645 -0.149550
C104  C     C_R   0.522927 0.749918 0.029608 -0.113894
C105  C     C_3   0.058587 0.563064 0.012058 -0.010346
C106  C     C_3   0.034461 0.552385 0.936007 -0.002449
C107  C     C_3   0.466544 0.053580 0.064861 -0.001970
C108  C     C_3   0.442274 0.064613 0.988982 -0.010009
C109  C     C_R   0.760899 0.532475 0.851615 0.542764
C110  C     C_R   0.241469 0.537923 0.150267 0.525535
C111  C     C_R   0.258481 0.038102 0.849765 0.516059
C112  C     C_R   0.739008 0.032114 0.148352 0.552061
C113  C     C_R   0.775169 0.131150 0.854977 0.543508
C114  C     C_R   0.209152 0.171906 0.139357 0.544828
C115  C     C_R   0.290585 0.671937 0.860962 0.543400
C116  C     C_R   0.724946 0.630543 0.145204 0.548147
C117  C     C_R   0.968617 0.346291 0.853473 0.567803
C118  C     C_R   0.061470 0.351304 0.139216 0.549734
C119  C     C_R   0.438551 0.852008 0.860783 0.548604
C120  C     C_R   0.531136 0.846090 0.146614 0.572488
C121  C     C_R   0.731027 0.013486 0.435948 0.021649
C122  C     C_R   0.249443 0.092481 0.579346 0.015084
C123  C     C_R   0.231054 0.513542 0.435944 0.021081
C124  C     C_R   0.749466 0.592467 0.579341 0.014933
C125  C     C_R   0.703594 0.120760 0.462314 0.045489
C126  C     C_R   0.305736 0.117410 0.535600 -0.000484
C127  C     C_R   0.203656 0.620846 0.462301 0.045037
C128  C     C_R   0.805776 0.617283 0.535592 -0.000544
C129  C     C_R   0.713990 0.152425 0.532675 0.021372
C130  C     C_R   0.297290 0.125924 0.462839 -0.011264
C131  C     C_R   0.214039 0.652487 0.532669 0.020033
C132  C     C_R   0.797337 0.625790 0.462826 -0.010756
Cr1   Cr    Cr6+3 0.885860 0.491680 0.749630 1.025388
Cr2   Cr    Cr6+3 0.114140 0.491680 0.250370 1.035637
Cr3   Cr    Cr6+3 0.385860 0.991680 0.749630 1.036408
Cr4   Cr    Cr6+3 0.614140 0.991680 0.250370 1.024517
Cr5   Cr    Cr6+3 0.730490 0.332970 0.748720 1.096176
Cr6   Cr    Cr6+3 0.269510 0.332970 0.251280 1.090144
Cr7   Cr    Cr6+3 0.230490 0.832970 0.748720 1.088207
Cr8   Cr    Cr6+3 0.769510 0.832970 0.251280 1.098723
Cr9   Cr    Cr6+3 0.887570 0.179310 0.750150 1.067567
Cr10  Cr    Cr6+3 0.112430 0.179310 0.249850 1.042015
Cr11  Cr    Cr6+3 0.387570 0.679310 0.750150 1.041522
Cr12  Cr    Cr6+3 0.612430 0.679310 0.249850 1.067734
H1    H     H_    0.801249 0.902976 0.589640 0.137836
H2    H     H_    0.122737 0.107310 0.453751 0.158830
H3    H     H_    0.301190 0.402943 0.589656 0.138770
H4    H     H_    0.622759 0.607489 0.453760 0.159105
H5    H     H_    0.079835 0.721109 0.602911 0.134313
H6    H     H_    0.046441 0.761482 0.477558 0.107443
H7    H     H_    0.579763 0.221198 0.602647 0.131294
H8    H     H_    0.546277 0.261511 0.477322 0.107690
H9    H     H_    0.661514 0.176309 0.932209 0.199718
H10   H     H_    0.318857 0.229329 0.054275 0.173852
H11   H     H_    0.180411 0.729478 0.947128 0.175038
H12   H     H_    0.838570 0.675210 0.068478 0.199307
H13   H     H_    0.647334 0.156006 0.062261 0.150265
H14   H     H_    0.328411 0.220560 0.922260 0.139803
H15   H     H_    0.171358 0.721182 0.078999 0.140891
H16   H     H_    0.852318 0.656259 0.938259 0.150144
H17   H     H_    0.813186 0.867940 0.052251 0.111875
H18   H     H_    0.171735 0.909584 0.950477 0.100142
H19   H     H_    0.329280 0.408875 0.048068 0.098178
H20   H     H_    0.688199 0.368212 0.946511 0.113087
H21   H     H_    0.920927 0.988794 0.959358 0.235390
H22   H     H_    0.062252 0.052952 0.030212 0.217372
H23   H     H_    0.437798 0.553414 0.969497 0.217290
H24   H     H_    0.579816 0.487453 0.040725 0.235838
H25   H     H_    0.845666 0.893518 0.931571 0.117228
H26   H     H_    0.134661 0.956166 0.066505 0.136717
H27   H     H_    0.365902 0.456181 0.932496 0.136057
H28   H     H_    0.655772 0.392844 0.067399 0.117845
H29   H     H_    0.936731 0.188038 0.954024 0.162284
H30   H     H_    0.973875 0.193604 0.077440 0.211849
H31   H     H_    0.525724 0.693280 0.921702 0.212369
H32   H     H_    0.562336 0.686726 0.045108 0.162733
H33   H     H_    0.106371 0.611631 0.015528 0.143407
H34   H     H_    0.979138 0.577484 0.929827 0.172915
H35   H     H_    0.522053 0.077064 0.070881 0.171621
H36   H     H_    0.394816 0.114859 0.985964 0.143519
H37   H     H_    0.786460 0.851314 0.462610 0.136748
H38   H     H_    0.137807 0.083680 0.582766 0.137438
H39   H     H_    0.286447 0.351347 0.462609 0.136650
H40   H     H_    0.637822 0.583847 0.582770 0.137956
H41   H     H_    0.167087 0.787416 0.413380 0.149395
H42   H     H_    0.872177 0.458161 0.545777 0.147262
H43   H     H_    0.666940 0.287280 0.413397 0.148953
H44   H     H_    0.372239 0.958420 0.545715 0.146883
H45   H     H_    0.761858 0.256983 0.404365 0.146707
H46   H     H_    0.416288 0.109046 0.548456 0.169838
H47   H     H_    0.261999 0.757004 0.404384 0.147251
H48   H     H_    0.916331 0.608693 0.548456 0.170200
H49   H     H_    0.778905 0.312782 0.527467 0.133434
H50   H     H_    0.398500 0.128489 0.420281 0.143875
H51   H     H_    0.279017 0.812772 0.527501 0.133072
H52   H     H_    0.898603 0.627956 0.420295 0.141753
H53   H     H_    0.683623 0.341007 0.536252 0.156648
H54   H     H_    0.355744 0.975967 0.418665 0.140437
H55   H     H_    0.183738 0.841087 0.536248 0.157055
H56   H     H_    0.855670 0.475591 0.418742 0.138411
H57   H     H_    0.935985 0.952051 0.422395 0.131539
H58   H     H_    0.964434 0.922006 0.550227 0.112276
H59   H     H_    0.435827 0.452087 0.422254 0.132746
H60   H     H_    0.464260 0.422030 0.550089 0.111859
H61   H     H_    0.952781 0.148564 0.366979 0.155483
H62   H     H_    0.006150 0.089932 0.623448 0.147766
H63   H     H_    0.452643 0.648613 0.366846 0.152963
H64   H     H_    0.505993 0.589928 0.623316 0.148055
H65   H     H_    0.012978 0.602106 0.399277 0.155076
H66   H     H_    0.077361 0.514743 0.648709 0.149709
H67   H     H_    0.512696 0.102101 0.399121 0.156816
H68   H     H_    0.577281 0.014851 0.648496 0.142525
O1    O     O_R   0.957020 0.451640 0.669920 -0.516130
O2    O     O_R   0.042980 0.451640 0.330080 -0.528002
O3    O     O_R   0.457020 0.951640 0.669920 -0.515995
O4    O     O_R   0.542980 0.951640 0.330080 -0.528474
O5    O     O_R   0.736470 0.210100 0.823360 -0.482045
O6    O     O_R   0.263530 0.210100 0.176640 -0.455381
O7    O     O_R   0.236470 0.710100 0.823360 -0.456370
O8    O     O_R   0.763530 0.710100 0.176640 -0.480490
O9    O     O_R   0.831960 0.093290 0.830130 -0.509953
O10   O     O_R   0.168040 0.093290 0.169870 -0.512261
O11   O     O_R   0.331960 0.593290 0.830130 -0.516858
O12   O     O_R   0.668040 0.593290 0.169870 -0.505606
O13   O     O_R   0.945600 0.250580 0.824860 -0.462162
O14   O     O_R   0.054400 0.250580 0.175140 -0.490897
O15   O     O_R   0.445600 0.750580 0.824860 -0.496775
O16   O     O_R   0.554400 0.750580 0.175140 -0.457112
O17   O     O_3   0.834640 0.334650 0.749500 -0.282863
O18   O     O_3   0.165360 0.334650 0.250500 -0.336940
O19   O     O_3   0.334640 0.834650 0.749500 -0.313802
O20   O     O_3   0.665360 0.834650 0.250500 -0.305349
O21   O     O_R   0.821450 0.543440 0.674610 -0.503926
O22   O     O_R   0.178550 0.543440 0.325390 -0.500143
O23   O     O_R   0.321450 0.043440 0.674610 -0.502787
O24   O     O_R   0.678550 0.043440 0.325390 -0.500790
O25   O     O_R   0.715320 0.458650 0.668100 -0.514457
O26   O     O_R   0.284680 0.458650 0.331900 -0.502899
O27   O     O_R   0.215320 0.958650 0.668100 -0.513392
O28   O     O_R   0.784680 0.958650 0.331900 -0.503494
O29   O     O_R   0.737170 0.209590 0.674530 -0.501162
O30   O     O_R   0.262830 0.209590 0.325470 -0.499678
O31   O     O_R   0.237170 0.709590 0.674530 -0.491147
O32   O     O_R   0.762830 0.709590 0.325470 -0.510328
O33   O     O_R   0.832710 0.092740 0.669580 -0.518083
O34   O     O_R   0.167290 0.092740 0.330420 -0.519854
O35   O     O_R   0.332710 0.592740 0.669580 -0.515189
O36   O     O_R   0.667290 0.592740 0.330420 -0.523539
O37   O     O_R   0.946290 0.250060 0.676040 -0.502585
O38   O     O_R   0.053710 0.250060 0.323960 -0.497714
O39   O     O_R   0.446290 0.750060 0.676040 -0.498187
O40   O     O_R   0.553710 0.750060 0.323960 -0.502468
O41   O     O_R   0.956270 0.452200 0.830470 -0.523443
O42   O     O_R   0.043730 0.452200 0.169530 -0.457735
O43   O     O_R   0.456270 0.952200 0.830470 -0.461467
O44   O     O_R   0.543730 0.952200 0.169530 -0.522118
O45   O     O_R   0.820760 0.543950 0.823440 -0.520099
O46   O     O_R   0.179240 0.543950 0.176560 -0.516423
O47   O     O_R   0.320760 0.043950 0.823440 -0.519298
O48   O     O_R   0.679240 0.043950 0.176560 -0.516806
O49   O     O_R   0.714570 0.459210 0.828640 -0.441893
O50   O     O_R   0.285430 0.459210 0.171360 -0.462925
O51   O     O_R   0.214570 0.959210 0.828640 -0.465928
O52   O     O_R   0.785430 0.959210 0.171360 -0.438632
S1    S     S_3+6 0.919229 0.936668 0.111767 0.008778
O53   O     O_2   0.924162 0.053577 0.152774 -0.301759
O54   O     O_2   0.903310 0.838438 0.164321 -0.247764
O55   O     O_3   0.994658 0.903964 0.074158 -0.510759
H69   H     H_    0.026425 0.889918 0.115173 0.363111
S2    S     S_3+6 0.062138 0.952801 0.890949 0.006143
O56   O     O_2   0.021140 0.065388 0.878661 -0.310686
O57   O     O_2   0.086373 0.906519 0.819726 -0.247235
O58   O     O_3   0.012236 0.846258 0.927708 -0.504082
H70   H     H_    0.979202 0.822334 0.889412 0.353855
S3    S     S_3+6 0.438261 0.454024 0.108400 0.008116
O59   O     O_2   0.478990 0.566784 0.120450 -0.309745
O60   O     O_2   0.414119 0.409968 0.179749 -0.243533
O61   O     O_3   0.488448 0.346357 0.071927 -0.504457
H71   H     H_    0.521690 0.323772 0.110212 0.353698
S4    S     S_3+6 0.581226 0.434679 0.888038 0.006578
O62   O     O_2   0.575770 0.550592 0.846934 -0.305689
O63   O     O_2   0.597262 0.335159 0.835529 -0.251272
O64   O     O_3   0.506049 0.403031 0.926020 -0.509972
H72   H     H_    0.474244 0.387504 0.885155 0.362938
I1    I     I_    0.977783 0.629703 0.076942 -0.286955
I2    I     I_    0.094564 0.607809 0.847653 -0.284359
I3    I     I_    0.407141 0.112718 0.153435 -0.263790
I4    I     I_    0.523115 0.128676 0.924065 -0.292735

loop_
_geom_bond_atom_site_label_1
_geom_bond_atom_site_label_2
_ccdc_geom_bond_type
Cr9   O37   S    
C47   O35   A    
C2    C123  S    
C90   O38   A    
Cr11  O39   S    
C6    H2    S    
C94   C117  S    
C95   C99   A    
C29   C33   A    
Cr8   O28   S    
C91   O3    A    
C3    O23   A    
Cr8   O8    S    
C35   C36   A    
C50   H65   S    
C1    O21   A    
Cr10  O34   S    
C83   H27   S    
C70   C74   A    
C9    C121  A    
C17   H53   S    
C81   H25   S    
C87   C115  S    
C80   C84   S    
C97   C105  S    
C15   C127  S    
C22   C130  A    
Cr9   O13   S    
C20   C132  S    
C41   C49   A    
C5    H1    S    
Cr1   O41   S    
C30   C34   A    
C17   C129  S    
C60   C76   A    
C7    H3    S    
Cr8   O32   S    
C93   C102  A    
C43   C44   A    
C31   H63   S    
C37   C38   A    
C84   H24   S    
C66   C82   S    
C15   H41   S    
C78   C82   S    
C16   C20   S    
Cr4   O48   S    
C55   H7    S    
C113  O9    A    
C112  O52   A    
C105  H33   S    
C10   H38   S    
S2    O57   D    
C18   C130  S    
C90   O2    A    
C15   H47   S    
C107  H35   S    
Cr11  O15   S    
C10   C122  A    
C14   C126  S    
C57   C61   A    
C59   C63   A    
C98   C106  S    
C60   C64   A    
C1    C124  S    
C48   O36   A    
C49   C53   A    
C51   C55   A    
Cr5   O25   S    
C127  C131  A    
C61   C65   A    
C5    C21   A    
Cr5   O5    S    
C94   C98   A    
Cr7   O19   S    
Cr9   O9    S    
C79   C83   S    
C88   C116  S    
C72   H12   S    
Cr7   O51   S    
C18   H50   S    
C101  H29   S    
C97   C98   A    
C104  H32   S    
C53   C54   A    
C118  O14   A    
C121  C125  A    
C25   C90   S    
C64   C68   A    
C110  O46   A    
Cr10  O18   S    
C73   H13   S    
C29   H61   S    
C57   C73   A    
C20   H56   S    
C60   C109  S    
C117  O41   A    
C27   C44   A    
C61   C77   S    
C29   C38   A    
Cr9   O33   S    
C107  C108  S    
C116  O8    A    
Cr7   O31   S    
C44   C52   A    
C53   H5    S    
C4    O24   A    
C114  O6    A    
C33   C34   A    
C21   C45   S    
C92   O40   A    
C100  C108  S    
C23   C47   S    
C62   C66   A    
C24   C48   S    
Cr6   O18   S    
S3    O61   S    
S4    O62   D    
C46   O34   A    
C39   C40   A    
C1    O25   A    
C83   H23   S    
C105  I1    S    
C107  I3    S    
C5    C9    A    
C108  I4    S    
C125  C129  A    
C25   C38   A    
C123  C127  A    
C27   C40   A    
C8    C12   A    
Cr2   O22   S    
C23   C131  A    
S1    O54   D    
C21   C129  A    
C42   C50   A    
C93   C97   A    
C69   C85   A    
C58   C74   A    
C79   S3    S    
C62   C78   S    
C84   H28   S    
C66   C86   A    
Cr3   O47   S    
C13   C17   S    
C85   C113  S    
Cr5   O29   S    
C112  O48   A    
C34   H58   S    
C7    C23   A    
C96   C100  A    
C8    C24   A    
C28   C91   S    
Cr2   O18   S    
C9    H37   S    
C14   H46   S    
Cr7   O7    S    
Cr8   O52   S    
O64   H72   S    
O61   H71   S    
Cr11  O19   S    
C106  H34   S    
Cr5   O49   S    
C58   C62   A    
C55   C56   A    
C101  C102  A    
C59   C75   A    
C41   C42   A    
C96   C119  S    
S3    O59   D    
S4    O64   S    
C48   O32   A    
C91   O39   A    
C15   C19   S    
C50   C54   A    
C89   O37   A    
C13   H43   S    
C115  O11   A    
C126  C130  A    
Cr9   O17   S    
C6    C22   A    
C31   C40   A    
C32   C39   A    
C80   H20   S    
C51   H68   S    
C2    O22   A    
Cr6   O50   S    
C18   H54   S    
C69   C73   A    
C56   H8    S    
C120  O16   A    
C77   S1    S    
C124  C128  A    
Cr1   O45   S    
Cr3   O19   S    
C64   C80   S    
S2    O58   S    
C8    H4    S    
C111  O47   A    
Cr10  O14   S    
C77   H17   S    
C74   H14   S    
C58   C111  S    
C68   C84   S    
C49   H66   S    
C54   H6    S    
C45   O33   A    
C28   C39   A    
C69   H9    S    
C30   C37   A    
C116  O12   A    
C14   H44   S    
C24   C132  A    
C65   C81   S    
C77   C81   S    
C71   H11   S    
C103  H31   S    
C4    O28   A    
Cr1   O21   S    
C114  O10   A    
C71   C87   A    
Cr5   O17   S    
C22   C46   S    
Cr8   O20   S    
Cr3   O23   S    
C46   O30   A    
C109  O49   A    
C32   C36   A    
C89   O1    A    
C82   H22   S    
C106  I2    S    
C19   H55   S    
Cr12  O20   S    
C11   C123  A    
C119  O43   A    
C25   C42   A    
C6    C10   A    
C26   C37   A    
C95   C120  S    
C99   C107  S    
C105  C106  S    
C28   C43   A    
Cr2   O2    S    
C47   O31   A    
C43   C51   A    
C12   H40   S    
Cr11  O35   S    
C4    C121  S    
C92   O4    A    
C78   S2    S    
Cr1   O17   S    
O55   H69   S    
C96   C103  A    
C103  C104  A    
C80   S4    S    
S2    O56   D    
Cr3   O43   S    
C13   C125  S    
C3    O27   A    
C82   H26   S    
C19   H51   S    
Cr10  O38   S    
C14   C18   S    
C17   H49   S    
C72   C76   A    
C119  O15   A    
C63   C79   S    
C26   C89   S    
C7    C11   A    
Cr4   O20   S    
C117  O13   A    
S3    O60   D    
S4    O63   D    
Cr11  O11   S    
C57   C112  S    
C30   H62   S    
Cr4   O24   S    
C59   C110  S    
C13   H45   S    
C108  H36   S    
C118  O42   A    
Cr3   O3    S    
C94   C101  A    
C52   H67   S    
C16   H48   S    
S1    O53   D    
Cr6   O30   S    
C3    C122  S    
Cr2   O46   S    
Cr12  O40   S    
C115  O7    A    
C128  C132  A    
C113  O5    A    
C72   C88   A    
C19   C131  S    
C63   C67   A    
Cr12  O12   S    
Cr7   O27   S    
C11   H39   S    
Cr2   O42   S    
C2    O26   A    
C122  C126  A    
C120  O44   A    
C99   C100  A    
C12   C124  A    
O58   H70   S    
C27   C92   S    
C67   C83   S    
C16   C128  S    
C111  O51   A    
C78   H18   S    
Cr12  O36   S    
C68   C88   A    
C32   H64   S    
C93   C118  S    
C70   C86   A    
C45   O29   A    
C95   C104  A    
C75   H15   S    
C76   H16   S    
C70   H10   S    
Cr4   O44   S    
C79   H19   S    
C65   C85   A    
C102  H30   S    
C67   C87   A    
C86   C114  S    
Cr1   O1    S    
C16   H42   S    
C71   C75   A    
C35   H59   S    
C33   H57   S    
Cr10  O10   S    
Cr6   O26   S    
C31   C35   A    
C109  O45   A    
S1    O55   S    
C110  O50   A    
Cr6   O6    S    
C81   H21   S    
Cr12  O16   S    
C36   H60   S    
C20   H52   S    
C52   C56   A    
C26   C41   A    
Cr4   O4    S    
