data_mof_unit_59988.cif
_audit_creation_date              2013-03-05T16:36:12-0500
_audit_creation_method            fapswitch 2.2
_symmetry_space_group_name_H-M    P1
_symmetry_Int_Tables_number       1
_space_group_crystal_system       triclinic
_cell_length_a                    27.839391
_cell_length_b                    9.158087
_cell_length_c                    7.778515
_cell_angle_alpha                 89.995551
_cell_angle_beta                  90.000158
_cell_angle_gamma                 90.000751
_cell_volume                      1983.17567901

loop_
_atom_site_label
_atom_site_type_symbol
_atom_site_description
_atom_site_fract_x
_atom_site_fract_y
_atom_site_fract_z
_atom_type_partial_charge
O1    O     O_R   0.500000 0.288390 0.642760 -0.564472
O2    O     O_R   0.500000 0.711610 0.357240 -0.564656
O3    O     O_R   0.500000 0.711610 0.642760 -0.564428
O4    O     O_R   0.500000 0.288390 0.357240 -0.564623
C1    C     C_R   0.499999 0.219902 0.500006 0.860601
C2    C     C_R   0.499990 0.780098 0.499997 0.860204
O5    O     O_R   0.430260 0.500000 0.642770 -0.563697
O6    O     O_R   0.569740 0.500000 0.357230 -0.563631
O7    O     O_R   0.569740 0.500000 0.642770 -0.563595
O8    O     O_R   0.430260 0.500000 0.357230 -0.563463
C3    C     C_R   0.407405 0.499980 0.500001 0.839096
C4    C     C_R   0.592596 0.500021 0.500002 0.839025
Cu1   Cu    Cu3+1 0.500000 0.500000 0.669080 1.097159
Cu2   Cu    Cu3+1 0.500000 0.500000 0.330920 1.097057
C5    C     C_R   0.176179 0.381550 0.437576 0.596675
C6    C     C_R   0.823808 0.619153 0.438216 0.596903
C7    C     C_R   0.176338 0.618046 0.565866 0.596856
C8    C     C_R   0.823678 0.382439 0.565990 0.596843
O9    O     O_2   0.199747 0.272180 0.357631 -0.497604
O10   O     O_2   0.800225 0.728672 0.358600 -0.497724
O11   O     O_2   0.200090 0.727355 0.645228 -0.497675
O12   O     O_2   0.799937 0.272990 0.645146 -0.497662
N1    N     N_R   0.200960 0.499744 0.501466 -0.438439
N2    N     N_R   0.799043 0.500809 0.501817 -0.438353
C9    C     C_R   0.278919 0.619628 0.429445 -0.050477
C10   C     C_R   0.721133 0.380857 0.429324 -0.050500
C11   C     C_R   0.279040 0.379758 0.571590 -0.050621
C12   C     C_R   0.720915 0.620481 0.572001 -0.050722
C13   C     C_R   0.329274 0.625620 0.449770 -0.123192
C14   C     C_R   0.670776 0.374676 0.449544 -0.123337
C15   C     C_R   0.329370 0.373913 0.550479 -0.123236
C16   C     C_R   0.670589 0.626218 0.550749 -0.123261
C17   C     C_R   0.253193 0.499698 0.500820 0.206251
C18   C     C_R   0.746810 0.500730 0.501039 0.206334
C19   C     C_R   0.100891 0.499981 0.502427 -0.038950
C20   C     C_R   0.899111 0.500645 0.502697 -0.038961
C21   C     C_R   0.126108 0.373547 0.455196 -0.020280
C22   C     C_R   0.873882 0.627147 0.455775 -0.020220
C23   C     C_R   0.126245 0.626279 0.549237 -0.020176
C24   C     C_R   0.873769 0.374267 0.549311 -0.020194
C25   C     C_R   0.100789 0.243473 0.425967 -0.139164
C26   C     C_R   0.899194 0.757272 0.426747 -0.139134
C27   C     C_R   0.101041 0.756494 0.578870 -0.139058
C28   C     C_R   0.898982 0.244019 0.578663 -0.139104
C29   C     C_R   0.354398 0.499831 0.500034 -0.152167
C30   C     C_R   0.645606 0.500302 0.500053 -0.152144
H1    H     H_    0.119454 0.144170 0.390354 0.186456
H2    H     H_    0.880521 0.856626 0.391371 0.186445
H3    H     H_    0.119808 0.855688 0.614213 0.186534
H4    H     H_    0.880224 0.144767 0.613861 0.186519
C31   C     C_R   0.974794 0.366415 0.515336 0.044423
C32   C     C_R   0.025212 0.634205 0.515508 0.044399
C33   C     C_R   0.974896 0.634405 0.490495 0.044458
C34   C     C_R   0.025103 0.366250 0.490171 0.044443
C35   C     C_R   0.949742 0.500494 0.502886 0.074255
C36   C     C_R   0.050260 0.500141 0.502741 0.074272
C37   C     C_R   0.948653 0.238543 0.554473 -0.207629
C38   C     C_R   0.051365 0.762018 0.554797 -0.207672
C39   C     C_R   0.948855 0.762455 0.451308 -0.207558
C40   C     C_R   0.051134 0.238257 0.450660 -0.207602
H5    H     H_    0.966333 0.135000 0.575414 0.134411
H6    H     H_    0.033692 0.865538 0.575954 0.134500
H7    H     H_    0.966612 0.865892 0.430474 0.134287
H8    H     H_    0.033371 0.134851 0.429684 0.134385
C41   C     C_1   0.499992 0.065225 0.500013 -0.165317
C42   C     C_1   0.499988 0.934776 0.500002 -0.165391
N3    N     N_1   0.500000 0.500000 0.076820 -0.017808
N4    N     N_1   0.500000 0.500000 0.923180 -0.017850
C43   C     C_2   0.356325 0.235355 0.560427 0.907627
O13   O     O_2   0.358068 0.164759 0.693651 -0.523021
O14   O     O_R   0.381438 0.190530 0.414065 -0.716940
H9    H     H_    0.402008 0.101682 0.433393 0.323704
C44   C     C_2   0.643595 0.764700 0.560564 0.907818
O15   O     O_2   0.641655 0.835046 0.693919 -0.522930
O16   O     O_R   0.618629 0.809635 0.413923 -0.716708
H10   H     H_    0.597891 0.898118 0.433223 0.323352
C45   C     C_2   0.356176 0.764228 0.439250 0.908156
O17   O     O_2   0.357955 0.834298 0.305655 -0.522941
O18   O     O_R   0.381244 0.809627 0.585450 -0.716502
H11   H     H_    0.401901 0.898202 0.565591 0.323679
C46   C     C_2   0.643913 0.236023 0.438629 0.908519
O19   O     O_2   0.642240 0.166066 0.304941 -0.522475
O20   O     O_R   0.618755 0.190447 0.584563 -0.716680
H12   H     H_    0.598113 0.101905 0.564382 0.323594
C47   C     C_2   0.253357 0.264086 0.669692 0.944462
O21   O     O_2   0.261083 0.134915 0.640925 -0.477811
O22   O     O_R   0.219218 0.304111 0.792872 -0.737611
H13   H     H_    0.203504 0.216573 0.849498 0.351753
C48   C     C_2   0.746538 0.735989 0.670556 0.944593
O23   O     O_2   0.738676 0.865199 0.642540 -0.478048
O24   O     O_R   0.780754 0.695780 0.793395 -0.737751
H14   H     H_    0.796368 0.783214 0.850567 0.351906
C49   C     C_2   0.253073 0.735078 0.331492 0.944386
O25   O     O_2   0.261007 0.864306 0.359059 -0.478152
O26   O     O_R   0.218580 0.694782 0.209713 -0.738036
H15   H     H_    0.202853 0.782163 0.152821 0.351609
C50   C     C_2   0.747035 0.265656 0.331178 0.944235
O27   O     O_2   0.739152 0.136358 0.358490 -0.478336
O28   O     O_R   0.781530 0.306264 0.209544 -0.738079
H16   H     H_    0.797313 0.219027 0.152560 0.351588

loop_
_geom_bond_atom_site_label_1
_geom_bond_atom_site_label_2
_geom_bond_distance
_ccdc_geom_bond_type
C38   H6    1.080728 S    
O22   H13   1.013901 S    
C9    C49   1.488634 S    
C49   O25   1.222877 D    
C44   O15   1.222315 D    
C33   C35   1.415491 A    
O26   H15   1.013842 S    
O3    C2    1.275328 A    
C46   O19   1.222337 D    
C33   C39   1.411965 A    
C34   C40   1.411975 A    
C45   O17   1.222295 D    
C11   C17   1.423826 A    
C5    O9    1.349262 S    
C7    N1    1.376474 A    
C2    C42   1.416552 S    
O1    C1    1.275356 A    
C19   C21   1.403076 A    
C22   C26   1.402716 A    
C50   O27   1.222866 D    
C43   O14   1.397679 S    
C7    C23   1.402581 A    
C11   C47   1.488480 S    
O7    Cu1   1.952273 S    
C5    C21   1.402580 A    
C20   C24   1.403080 A    
C8    C24   1.402551 A    
C27   C38   1.396485 A    
C46   O20   1.397580 S    
C10   C18   1.423877 A    
O20   H12   1.006186 S    
N1    C17   1.454158 S    
Cu2   N3    1.976520 S    
C12   C48   1.488510 S    
C31   C37   1.411950 A    
C48   O24   1.398537 S    
O3    Cu1   1.948711 S    
C6    O10   1.349258 S    
C47   O22   1.398506 S    
C12   C18   1.423806 A    
C6    N2    1.376455 A    
Cu1   Cu2   2.630383 S    
O4    Cu2   1.948712 S    
C44   O16   1.397656 S    
O2    C2    1.275377 A    
C50   O28   1.398440 S    
O5    C3    1.279883 A    
C45   O18   1.397575 S    
C9    C13   1.411816 A    
C34   C36   1.415484 A    
C11   C15   1.411755 A    
N3    N4    1.195092 T    
C12   C16   1.411744 A    
C1    C41   1.416549 S    
O8    Cu2   1.952276 S    
C16   C44   1.476148 S    
C27   H3    1.083437 S    
C23   C27   1.402720 A    
C47   O21   1.223014 D    
C7    O11   1.349270 S    
C13   C29   1.403249 A    
C19   C23   1.403078 A    
O16   H10   1.006240 S    
C15   C43   1.476240 S    
O28   H16   1.013850 S    
O5    Cu1   1.952275 S    
C28   C37   1.396453 A    
O6    C4    1.279922 A    
C25   H1    1.083439 S    
C26   H2    1.083437 S    
C32   C38   1.411966 A    
C4    C30   1.475777 S    
C10   C14   1.411838 A    
C8    N2    1.376442 A    
C3    C29   1.475697 S    
O1    Cu1   1.948744 S    
O24   H14   1.013872 S    
C32   C33   1.414220 A    
C28   H4    1.083436 S    
O6    Cu2   1.952272 S    
C19   C36   1.409542 A    
C8    O12   1.349271 S    
C16   C30   1.403221 A    
C14   C30   1.403246 A    
C25   C40   1.396473 A    
O4    C1    1.275349 A    
C26   C39   1.396478 A    
C37   H5    1.080725 S    
C39   H7    1.080719 S    
C40   H8    1.080727 S    
C31   C34   1.414194 A    
C14   C46   1.476091 S    
C20   C22   1.403075 A    
O14   H9    1.006293 S    
C20   C35   1.409546 A    
C5    N1    1.376456 A    
C31   C35   1.415470 A    
C21   C25   1.402710 A    
C43   O13   1.222350 D    
O2    Cu2   1.948743 S    
O7    C4    1.279893 A    
N2    C18   1.454148 S    
O8    C3    1.279905 A    
C10   C50   1.488626 S    
O18   H11   1.006254 S    
C24   C28   1.402710 A    
C13   C45   1.476110 S    
C49   O26   1.398445 S    
C41   C42   1.194664 T    
C15   C29   1.403261 A    
C9    C17   1.423857 A    
C48   O23   1.222948 D    
C32   C36   1.415474 A    
C6    C22   1.402605 A    
Cu1   N4    1.976520 S    
