data_mof_unit_16958.cif
_audit_creation_date              2013-03-05T16:13:32-0500
_audit_creation_method            fapswitch 2.2
_symmetry_space_group_name_H-M    P1
_symmetry_Int_Tables_number       1
_space_group_crystal_system       triclinic
_cell_length_a                    10.778595
_cell_length_b                    9.851258
_cell_length_c                    10.854608
_cell_angle_alpha                 89.99935
_cell_angle_beta                  92.056081
_cell_angle_gamma                 90.11305
_cell_volume                      1151.82752154

loop_
_atom_site_label
_atom_site_type_symbol
_atom_site_description
_atom_site_fract_x
_atom_site_fract_y
_atom_site_fract_z
_atom_type_partial_charge
O1    O     O_R   0.316770 0.614620 0.499990 -0.624734
O2    O     O_R   0.683230 0.614620 0.500010 -0.624993
O3    O     O_R   0.316800 0.385290 0.500000 -0.568712
O4    O     O_R   0.683200 0.385290 0.500000 -0.568209
C1    C     C_R   0.260126 0.499250 0.506748 0.935138
C2    C     C_R   0.739814 0.499563 0.493167 0.936057
O5    O     O_R   0.500000 0.614690 0.316780 -0.604373
O6    O     O_R   0.500000 0.614690 0.683220 -0.604548
O7    O     O_R   0.500020 0.385360 0.316780 -0.559806
O8    O     O_R   0.499980 0.385360 0.683220 -0.560117
C3    C     C_R   0.504084 0.499098 0.260549 0.971219
C4    C     C_R   0.496022 0.499074 0.739457 0.970495
Zn1   Zn    Zn3+2 0.500000 0.653120 0.500000 1.062896
Zn2   Zn    Zn3+2 0.500000 0.346880 0.500000 1.159256
C5    C     C_R   0.498315 0.612769 0.061715 -0.101510
C6    C     C_R   0.502121 0.612760 0.938265 -0.101140
C7    C     C_R   0.506326 0.494214 0.129308 -0.206972
C8    C     C_R   0.494068 0.494161 0.870703 -0.206995
C9    C     C_R   0.511044 0.369462 0.063843 0.368159
C10   C     C_R   0.489605 0.369380 0.936188 0.366535
C11   C     C_3   0.502440 0.764494 0.928236 0.360146
C12   C     C_3   0.497764 0.764515 0.071652 0.359447
C13   C     C_R   0.062584 0.371490 0.512158 0.236157
C14   C     C_R   0.936366 0.372468 0.482184 0.236265
C15   C     C_R   0.872584 0.497386 0.486829 -0.196594
C16   C     C_R   0.127252 0.496508 0.512939 -0.196923
C17   C     C_R   0.936713 0.620271 0.498497 -0.119694
C18   C     C_R   0.063813 0.619951 0.506728 -0.120145
H1    H     H_    0.888987 0.716950 0.500221 0.218936
H2    H     H_    0.112073 0.716582 0.509505 0.219305
C19   C     C_R   0.579962 0.071396 0.576634 0.477925
C20   C     C_R   0.420212 0.071070 0.423226 0.476150
C21   C     C_R   0.581960 0.927880 0.573902 -0.035474
C22   C     C_R   0.418124 0.927548 0.426013 -0.035890
H3    H     H_    0.647819 0.873034 0.632155 0.210102
H4    H     H_    0.352388 0.872438 0.367609 0.210890
N1    N     N_R   0.500000 0.857200 0.500000 -0.149985
N2    N     N_R   0.500000 0.142810 0.500000 -0.176092
Cl1   Cl    Cl    0.556715 0.213533 0.132885 -0.315745
Cl2   Cl    Cl    0.444328 0.213101 0.867163 -0.318539
N3    N     N_R   0.617908 0.820917 0.881650 0.215893
O9    O     O_R   0.642074 0.949402 0.896402 -0.216876
O10   O     O_R   0.702185 0.742306 0.836815 -0.346715
N4    N     N_R   0.382215 0.820280 0.118179 0.215964
O11   O     O_R   0.357837 0.948586 0.103260 -0.216741
O12   O     O_R   0.298054 0.741208 0.163065 -0.345979
N5    N     N_R   0.390367 0.815823 0.862258 0.232406
O13   O     O_R   0.283127 0.757729 0.876216 -0.296959
O14   O     O_R   0.398362 0.912610 0.781485 -0.292439
N6    N     N_R   0.609753 0.816554 0.137610 0.232715
O15   O     O_R   0.717114 0.759240 0.123524 -0.295079
O16   O     O_R   0.601576 0.913090 0.218545 -0.291629
N7    N     N_R   0.122390 0.246793 0.549431 0.251047
O17   O     O_R   0.177867 0.238509 0.657674 -0.287529
O18   O     O_R   0.114764 0.139055 0.480359 -0.269871
N8    N     N_R   0.875414 0.250138 0.439733 0.252990
O19   O     O_R   0.820048 0.247480 0.331229 -0.287083
O20   O     O_R   0.877665 0.140563 0.506524 -0.271918
Cl3   Cl    Cl    0.680033 0.155745 0.682094 -0.380570
Cl4   Cl    Cl    0.321152 0.155068 0.316980 -0.379518

loop_
_geom_bond_atom_site_label_1
_geom_bond_atom_site_label_2
_geom_bond_distance
_ccdc_geom_bond_type
N5    O13   1.302512 A    
N6    O16   1.299953 A    
O7    Zn2   2.024590 S    
C19   C21   1.414356 A    
C6    C11   1.498740 S    
C20   N2    1.371029 A    
C1    C16   1.436381 S    
C17   H1    1.083829 S    
C22   N1    1.362209 A    
N3    O10   1.302405 A    
N3    O9    1.300500 A    
C16   C18   1.396743 A    
C9    C10   1.396583 A    
C19   N2    1.371361 A    
O6    C4    1.293585 A    
C13   C14   1.387472 A    
C18   H2    1.083790 S    
N6    O15   1.302521 A    
N5    O14   1.300123 A    
N7    O17   1.301717 A    
N8    O19   1.301333 A    
O5    C3    1.293567 A    
O7    C3    1.277345 A    
O2    C2    1.291582 A    
O3    Zn2   2.011299 S    
O8    C4    1.277272 A    
C11   N3    1.468350 S    
C9    Cl1   1.772022 S    
C6    C8    1.380375 A    
C21   H3    1.079331 S    
N4    O12   1.302292 A    
C21   N1    1.362150 A    
C13   N7    1.439667 S    
C22   H4    1.079320 S    
N7    O18   1.300236 A    
O4    Zn2   2.009832 S    
C15   C17   1.396324 A    
C10   Cl2   1.772159 S    
O1    C1    1.292411 A    
C2    C15   1.435390 S    
C14   N8    1.439232 S    
C20   Cl4   1.752110 S    
C19   Cl3   1.752772 S    
Zn2   N2    2.010347 S    
O6    Zn1   2.024490 S    
C12   N6    1.472413 S    
O5    Zn1   2.024499 S    
O1    Zn1   2.010312 S    
C14   C15   1.412576 A    
C8    C10   1.421565 A    
O4    C2    1.282846 A    
O8    Zn2   2.024598 S    
C13   C16   1.413827 A    
C4    C8    1.426353 S    
C17   C18   1.369682 A    
C5    C7    1.380445 A    
O2    Zn1   2.011781 S    
C11   N5    1.472462 S    
C3    C7    1.426455 S    
C7    C9    1.421529 A    
C11   C12   1.559348 S    
Zn1   N1    2.010445 S    
C5    C12   1.498812 S    
C12   N4    1.468279 S    
N4    O11   1.300451 A    
C5    C6    1.342099 A    
N8    O20   1.300089 A    
O3    C1    1.282496 A    
C20   C22   1.414351 A    
