data_mof_unit_5200.cif
_audit_creation_date              2012-12-11T15:13:48-0500
_audit_creation_method            fapswitch 2.2
_symmetry_space_group_name_H-M    P1
_symmetry_Int_Tables_number       1
_space_group_crystal_system       triclinic
_cell_length_a                    6.971912
_cell_length_b                    13.744552
_cell_length_c                    20.015461
_cell_angle_alpha                 104.32882
_cell_angle_beta                  90.674194
_cell_angle_gamma                 89.829785
_cell_volume                      1858.20276305

loop_
_atom_site_label
_atom_site_type_symbol
_atom_type_description
_atom_site_fract_x
_atom_site_fract_y
_atom_site_fract_z
_atom_type_partial_charge
O1    O     O_R   0.506780 0.600060 0.449950 -0.543681
O2    O     O_R   0.179840 0.597110 0.589410 -0.546015
O3    O     O_R   0.004570 0.399940 0.550050 -0.534916
C1    C     C_R   0.348807 0.618854 0.616810 0.700234
O4    O     O_R   0.177380 0.612160 0.452890 -0.547881
O5    O     O_R   0.002100 0.415100 0.412560 -0.519371
C2    C     C_R   0.344158 0.633454 0.433195 0.717106
O6    O     O_R   0.509250 0.584900 0.587440 -0.542365
O7    O     O_3   0.337570 0.435330 0.486930 -0.363387
V1    V     V_3+5 0.064650 0.512000 0.502430 1.469755
O8    O     O_R   0.672090 0.402890 0.410590 -0.551918
C3    C     C_R   0.839432 0.388788 0.381002 0.763349
O9    O     O_R   0.674540 0.387840 0.547110 -0.543043
C4    C     C_R   0.845234 0.362103 0.564091 0.719344
V2    V     V_3+5 0.564040 0.488000 0.497570 1.448049
O10   O     O_3   0.840990 0.564670 0.513070 -0.378543
C5    C     C_R   0.016988 0.131143 0.613885 -0.111384
H1    H     H_    0.024775 0.184957 0.522460 0.197947
H2    H     H_    0.091123 0.014714 0.698281 0.139648
H3    H     H_    0.096617 0.063791 0.590307 0.167263
C6    C     C_R   0.865905 0.285146 0.602933 -0.068109
C7    C     C_R   0.765224 0.306868 0.930526 -0.160299
C8    C     C_R   0.720556 0.378057 0.894185 -0.083572
C9    C     C_R   0.754003 0.358273 0.823630 -0.145412
C10   C     C_R   0.836304 0.266171 0.787530 0.075449
C11   C     C_R   0.889328 0.195069 0.825819 0.068379
C12   C     C_R   0.869630 0.242728 0.714950 0.082369
C13   C     C_R   0.967063 0.152164 0.683583 0.111600
C14   C     C_R   0.018428 0.084194 0.722192 -0.113907
C15   C     C_R   0.977815 0.104434 0.791913 -0.108699
C16   C     C_R   0.813253 0.306656 0.672373 -0.209051
C17   C     C_R   0.972693 0.198892 0.574715 -0.150696
C18   C     C_R   0.849656 0.215578 0.897245 -0.069634
H4    H     H_    0.736034 0.375654 0.692069 0.098645
H5    H     H_    0.731525 0.322476 0.984881 0.107767
H6    H     H_    0.715404 0.417107 0.799093 0.113270
H7    H     H_    0.656456 0.448713 0.920724 0.168202
H8    H     H_    0.019424 0.048674 0.819165 0.130080
C19   C     C_3   0.752579 0.179211 0.246246 -0.169469
C20   C     C_3   0.926929 0.217328 0.292853 0.370420
H9    H     H_    0.679544 0.106676 0.240989 0.140396
C21   C     C_3   0.848756 0.324400 0.308209 -0.161106
C22   C     C_3   0.673557 0.288247 0.261518 -0.072623
C23   C     C_3   0.784959 0.306683 0.198938 -0.163850
C24   C     C_3   0.961150 0.344477 0.246768 -0.243414
C25   C     C_3   0.037602 0.235619 0.231547 0.398440
C26   C     C_3   0.863718 0.198220 0.184600 -0.111972
H10   H     H_    0.529205 0.317510 0.278195 0.186143
H11   H     H_    0.725068 0.342677 0.159344 0.135314
H12   H     H_    0.047726 0.412474 0.247712 0.138245
C27   C     C_3   0.538600 0.729017 0.729336 -0.172696
C28   C     C_3   0.446570 0.834342 0.748450 0.408530
H13   H     H_    0.688691 0.712122 0.712301 0.134159
C29   C     C_3   0.356237 0.811576 0.812426 -0.072177
C30   C     C_3   0.446839 0.705955 0.794012 -0.159441
C31   C     C_3   0.264665 0.665052 0.751146 -0.110275
C32   C     C_3   0.174292 0.771489 0.770210 -0.162830
C33   C     C_3   0.265508 0.794576 0.705458 -0.167074
C34   C     C_3   0.356327 0.689020 0.687343 -0.070131
H14   H     H_    0.521063 0.669564 0.830801 0.172890
H15   H     H_    0.189554 0.594169 0.751751 0.125008
H16   H     H_    0.024398 0.789067 0.787255 0.145774
H17   H     H_    0.192397 0.830829 0.668367 0.130882
C35   C     C_R   0.251648 0.875525 0.390597 0.381959
H18   H     H_    0.230407 0.819137 0.480527 0.150511
C36   C     C_R   0.344966 0.709386 0.394910 -0.093807
C37   C     C_R   0.364040 0.683273 0.065459 0.378964
C38   C     C_R   0.361727 0.606784 0.099787 -0.147496
C39   C     C_R   0.358109 0.628996 0.171489 -0.225167
C40   C     C_R   0.358248 0.729522 0.211317 0.111214
C41   C     C_R   0.360816 0.808042 0.176454 -0.027918
C42   C     C_R   0.347970 0.754402 0.284664 0.025041
C43   C     C_R   0.311871 0.855405 0.320856 0.026561
C44   C     C_R   0.352499 0.932156 0.287725 0.117991
C45   C     C_R   0.369161 0.908341 0.215769 -0.191108
C46   C     C_R   0.373805 0.682771 0.323783 -0.228302
C47   C     C_R   0.274995 0.803377 0.427147 -0.187588
C48   C     C_R   0.363136 0.784234 0.103149 -0.152820
H19   H     H_    0.416184 0.606363 0.300600 0.108424
H20   H     H_    0.348914 0.565855 0.194304 0.127923
H21   H     H_    0.360660 0.529065 0.070621 0.154299
H22   H     H_    0.393544 0.968644 0.190839 0.145736
O11   O     O_R   0.203580 0.914920 0.912610 -0.548546
O12   O     O_R   0.535710 0.887810 0.047120 -0.540057
O13   O     O_R   0.710730 0.084950 0.087430 -0.537735
C49   C     C_R   0.368361 0.863305 0.065288 0.775819
O14   O     O_R   0.533010 0.902850 0.910600 -0.530303
O15   O     O_R   0.708010 0.100090 0.949930 -0.533689
C50   C     C_R   0.364008 0.881326 0.883126 0.770805
O16   O     O_R   0.206300 0.899780 0.050100 -0.533065
O17   O     O_3   0.375170 0.064580 0.013100 -0.366265
V3    V     V_3+5 0.648200 0.988020 0.997570 1.532883
O18   O     O_R   0.038030 0.112330 0.952840 -0.553106
C51   C     C_R   0.867641 0.138044 0.935967 0.679114
O19   O     O_R   0.040730 0.097300 0.089360 -0.513615
C52   C     C_R   0.872103 0.122491 0.115600 0.730358
V4    V     V_3+5 0.148780 0.012220 0.002360 1.530226
O20   O     O_3   0.871930 0.935430 0.986900 -0.374372
Cl1   Cl    Cl    0.273022 0.193495 0.207965 -0.732843
Cl2   Cl    Cl    0.566152 0.947828 0.746385 -0.708560
C53   C     C_3   0.413933 0.035027 0.328908 -0.348921
C54   C     C_3   0.598919 0.031567 0.370482 -0.311266
C55   C     C_3   0.615943 0.125224 0.430074 -0.576546
H23   H     H_    0.616601 0.194038 0.410431 0.237852
H24   H     H_    0.494563 0.129359 0.466152 0.227885
H25   H     H_    0.750359 0.121209 0.459027 0.258416
H26   H     H_    0.601519 0.965298 0.392881 0.221526
H27   H     H_    0.724111 0.025070 0.335999 0.252256
H28   H     H_    0.303525 0.068225 0.364684 0.304932
H29   H     H_    0.429307 0.087812 0.296020 0.219560
Cl3   Cl    Cl    0.106957 0.977565 0.431354 -0.710029
Cl4   Cl    Cl    0.366865 0.649883 0.974560 -0.722318
Cl5   Cl    Cl    0.013609 0.171139 0.361782 -0.710528

loop_
_geom_bond_atom_site_label_1
_geom_bond_atom_site_label_2
_ccdc_geom_bond_type
C23   H11   S    
C30   C31   S    
O18   C51   A    
C31   H15   S    
C35   C47   A    
O19   C52   A    
C46   H19   S    
C42   C46   A    
C18   C51   S    
V4    O20   S    
V3    O20   S    
C32   H16   S    
C19   H9    S    
C24   C25   S    
C20   C25   S    
C7    H5    S    
C6    C16   A    
C9    H6    S    
C38   H21   S    
C4    C6    S    
C13   C14   A    
O12   C49   A    
O5    C3    A    
O13   C52   A    
C53   H28   S    
V2    O10   S    
C5    H3    S    
C31   C32   S    
C15   H8    S    
C43   C44   A    
C36   C47   A    
C3    C21   S    
C29   C30   S    
O8    V2    S    
O15   V3    S    
C38   C39   A    
C35   C43   A    
C54   H27   S    
C40   C41   A    
O1    V2    S    
C22   H10   S    
O16   V4    S    
C23   C26   S    
C1    O6    A    
C30   H14   S    
C48   C49   S    
C20   C21   S    
O9    C4    A    
C54   C55   S    
C37   C48   A    
O13   V3    S    
C28   C29   S    
O11   C50   A    
C6    C17   A    
O15   C51   A    
H18   C47   S    
C44   C45   A    
C12   C16   A    
C37   C38   A    
C53   C54   S    
C9    C10   A    
C29   C50   S    
C49   O16   A    
C26   C52   S    
O17   V3    S    
O4    C2    A    
C35   Cl3   S    
C19   C22   S    
C53   H29   S    
C8    H7    S    
C28   Cl2   S    
C27   C28   S    
C27   H13   S    
C21   C24   S    
O2    C1    A    
C22   C23   S    
C14   C15   A    
C11   C18   A    
C20   Cl5   S    
C8    C9    A    
C36   C46   A    
C16   H4    S    
C54   H26   S    
C55   H24   S    
O17   V4    S    
O3    C4    A    
C28   C33   S    
C44   C53   S    
C11   C15   A    
O6    V2    S    
O14   C50   A    
C33   C34   S    
H1    C17   S    
C21   C22   S    
O2    V1    S    
O18   V4    S    
C19   C20   S    
C23   C24   S    
C19   C26   S    
O7    V1    S    
C33   H17   S    
C7    C18   A    
C25   C26   S    
O1    C2    A    
C5    C13   A    
C42   C43   A    
O5    V1    S    
O8    C3    A    
O19   V4    S    
C45   H22   S    
C10   C12   A    
C31   C34   S    
C25   Cl1   S    
O9    V2    S    
C10   C11   A    
O4    V1    S    
O3    V1    S    
V1    O10   S    
C2    C36   S    
C41   C45   A    
C32   C33   S    
C24   H12   S    
C1    C34   S    
C55   H25   S    
C27   C30   S    
O7    V2    S    
C39   C40   A    
C37   Cl4   S    
C27   C34   S    
O11   V4    S    
C55   H23   S    
C5    C17   A    
C7    C8    A    
C39   H20   S    
C40   C42   A    
O12   V3    S    
O14   V3    S    
C41   C48   A    
C12   C13   A    
C29   C32   S    
H2    C14   S    
