data_mof_unit_40593.cif
_audit_creation_date              2012-12-10T18:09:05-0500
_audit_creation_method            fapswitch 2.2
_symmetry_space_group_name_H-M    P1
_symmetry_Int_Tables_number       1
_space_group_crystal_system       triclinic
_cell_length_a                    12.645111
_cell_length_b                    13.090815
_cell_length_c                    13.628453
_cell_angle_alpha                 90.232809
_cell_angle_beta                  95.349016
_cell_angle_gamma                 96.762186
_cell_volume                      2230.27562346

loop_
_atom_site_label
_atom_site_type_symbol
_atom_type_description
_atom_site_fract_x
_atom_site_fract_y
_atom_site_fract_z
_atom_type_partial_charge
C1    C     C_R   0.559275 0.691276 0.511782 0.949477
C2    C     C_1   0.524536 0.480756 0.217189 -0.100864
C3    C     C_R   0.354441 0.074298 0.332496 -0.129469
C4    C     C_R   0.409876 0.200210 0.462648 -0.114643
C5    C     C_R   0.659132 0.827083 0.622423 0.114814
C6    C     C_R   0.683097 0.930409 0.648904 -0.212830
C7    C     C_R   0.639576 0.006218 0.591939 0.406010
C8    C     C_R   0.561413 0.976582 0.511160 -0.093327
C9    C     C_R   0.556818 0.876330 0.472994 -0.186366
C10   C     C_R   0.487659 0.039893 0.466341 0.045146
C11   C     C_R   0.425957 0.008587 0.375882 -0.076476
C12   C     C_R   0.515500 0.490770 0.318491 0.967237
C13   C     C_R   0.441865 0.915555 0.329000 0.349287
C14   C     C_R   0.519093 0.857055 0.373401 0.343955
C15   C     C_R   0.468510 0.130300 0.512512 -0.144605
C16   C     C_R   0.347127 0.170466 0.374455 0.154526
C17   C     C_R   0.596263 0.799672 0.533230 -0.060657
C18   C     C_R   0.899107 0.373012 0.660487 -0.139262
C19   C     C_R   0.214701 0.633375 0.388899 0.045382
C20   C     C_R   0.117411 0.672579 0.376578 -0.223916
C21   C     C_R   0.032834 0.626473 0.425091 -0.148783
C22   C     C_R   0.043825 0.537281 0.481910 0.025527
C23   C     C_R   0.441059 0.308515 0.488093 0.866927
C24   C     C_R   0.146582 0.506794 0.499143 0.167836
C25   C     C_R   0.958772 0.481415 0.526718 -0.089673
C26   C     C_R   0.982058 0.413602 0.605255 -0.029278
C27   C     C_R   0.087291 0.388683 0.625786 0.358044
C28   C     C_R   0.166325 0.431843 0.568906 -0.320889
C29   C     C_R   0.850670 0.488193 0.494941 0.277955
C30   C     C_R   0.795752 0.394222 0.633576 0.077283
C31   C     C_R   0.482336 0.502901 0.681605 0.901922
C32   C     C_1   0.468388 0.502064 0.782410 -0.138687
C33   C     C_2   0.444382 0.499199 0.970160 0.272365
C34   C     C_2   0.529192 0.474494 0.027231 -0.219337
C35   C     C_1   0.529740 0.475349 0.130886 0.027680
C36   C     C_1   0.455161 0.500955 0.867484 0.011269
H1    H     H_    0.601247 0.457302 0.995848 0.151501
H2    H     H_    0.732382 0.368512 0.678676 0.195399
H3    H     H_    0.912641 0.326599 0.724741 0.236668
H4    H     H_    0.282237 0.669911 0.353775 0.190228
H5    H     H_    0.961928 0.665212 0.421155 0.184832
H6    H     H_    0.108367 0.739915 0.332203 0.208389
H7    H     H_    0.244203 0.408478 0.582378 0.237061
H8    H     H_    0.308038 0.055510 0.262983 0.218576
H9    H     H_    0.503800 0.151167 0.585702 0.208824
H10   H     H_    0.739198 0.951845 0.712728 0.199589
N1    N     N_R   0.773270 0.445590 0.549770 -0.126500
N2    N     N_R   0.227520 0.553880 0.450750 -0.127726
O1    O     O_R   0.631100 0.627590 0.523760 -0.604185
O2    O     O_R   0.455900 0.662370 0.491970 -0.628669
O3    O     O_R   0.600200 0.480080 0.377830 -0.627540
O4    O     O_R   0.425000 0.514870 0.346040 -0.590715
O5    O     O_R   0.544100 0.337630 0.508030 -0.540283
O6    O     O_R   0.368900 0.372410 0.476240 -0.628150
O7    O     O_R   0.575000 0.485130 0.653960 -0.620953
O8    O     O_R   0.399800 0.519920 0.622170 -0.621873
Zn1   Zn    Zn3+2 0.616980 0.476780 0.521230 0.993133
Zn2   Zn    Zn3+2 0.383020 0.523220 0.478770 0.965456
S1    S     S_3+6 0.607577 0.805447 0.297977 0.054982
O9    O     O_2   0.717286 0.809020 0.351938 -0.326670
O10   O     O_2   0.567119 0.696366 0.270448 -0.315670
O11   O     O_3   0.616336 0.874637 0.194726 -0.477644
H11   H     H_    0.659794 0.836969 0.153428 0.384254
S2    S     S_3+6 0.123436 0.301504 0.719016 0.032993
O12   O     O_2   0.103875 0.343589 0.817607 -0.270580
O13   O     O_2   0.056201 0.199435 0.701051 -0.243977
O14   O     O_3   0.253481 0.284299 0.721209 -0.538956
H12   H     H_    0.257768 0.238735 0.663833 0.345849
N3    N     N_2   0.821477 0.533092 0.403433 -0.321300
H13   H     H_    0.763085 0.581425 0.403023 0.288399
C37   C     C_3   0.819134 0.466792 0.317862 -0.673158
H14   H     H_    0.795998 0.509146 0.250302 0.240732
H15   H     H_    0.760581 0.397252 0.323196 0.256080
H16   H     H_    0.899559 0.442534 0.311676 0.234599
N4    N     N_2   0.346977 0.520241 0.008570 -0.282575
H17   H     H_    0.351558 0.540689 0.082084 0.246230
C38   C     C_3   0.273557 0.574182 0.946093 -0.678555
H18   H     H_    0.201294 0.582540 0.984513 0.239391
H19   H     H_    0.247570 0.530128 0.876453 0.280214
H20   H     H_    0.312292 0.652007 0.929434 0.231163
N5    N     N_2   0.282735 0.239470 0.323995 -0.300360
H21   H     H_    0.278620 0.233067 0.248214 0.236659
C39   C     C_3   0.178060 0.238880 0.358901 -0.666076
H22   H     H_    0.137010 0.301333 0.323002 0.233892
H23   H     H_    0.184769 0.252011 0.439945 0.246823
H24   H     H_    0.129073 0.163911 0.340537 0.241213
S3    S     S_3+6 0.364321 0.870439 0.217783 0.036247
O15   O     O_2   0.247660 0.873084 0.229669 -0.358684
O16   O     O_2   0.395620 0.939820 0.135063 -0.245862
O17   O     O_3   0.381772 0.749052 0.188984 -0.512885
H25   H     H_    0.337183 0.733392 0.125870 0.375334
N6    N     N_2   0.700169 0.751212 0.684878 -0.302600
H26   H     H_    0.690450 0.763073 0.758217 0.227316
C40   C     C_3   0.808940 0.734496 0.670779 -0.665773
H27   H     H_    0.830902 0.667666 0.714809 0.223220
H28   H     H_    0.865114 0.803534 0.695324 0.239393
H29   H     H_    0.817085 0.717718 0.592020 0.255193
S4    S     S_3+6 0.709929 0.130917 0.608360 -0.006185
O18   O     O_2   0.668883 0.183294 0.692920 -0.331003
O19   O     O_2   0.826917 0.122939 0.633638 -0.259110
O20   O     O_3   0.695885 0.200241 0.505392 -0.541847
H30   H     H_    0.726869 0.161711 0.454622 0.362650

loop_
_geom_bond_atom_site_label_1
_geom_bond_atom_site_label_2
_ccdc_geom_bond_type
C2    C35   T    
S3    O15   D    
O20   H30   S    
C7    S4    S    
C34   H1    S    
C19   C20   A    
C18   C26   A    
C18   H3    S    
C2    C12   S    
N5    H21   S    
C7    C8    A    
C38   H18   S    
C14   S1    S    
C26   C27   A    
C29   N1    A    
C32   C36   T    
C10   C15   A    
C5    C6    A    
C5    C17   A    
C33   C36   S    
O1    Zn1   S    
C30   H2    S    
C34   C35   S    
N3    C37   S    
N6    H26   S    
N5    C39   S    
C33   N4    S    
C39   H22   S    
C8    C9    A    
C22   C25   A    
C18   C30   A    
C31   O8    A    
C1    O2    A    
S1    O9    D    
C21   C22   A    
C40   H27   S    
C12   O4    A    
C23   O5    A    
C29   N3    S    
C38   H19   S    
C25   C29   A    
C3    H8    S    
S1    O10   D    
O14   H12   S    
C24   N2    A    
S2    O14   S    
C30   N1    A    
C19   H4    S    
C37   H15   S    
C4    C23   S    
O5    Zn1   S    
C19   N2    A    
C40   H29   S    
C25   C26   A    
O2    Zn2   S    
C4    C16   A    
N4    H17   S    
O11   H11   S    
N1    Zn1   S    
C31   C32   S    
C13   S3    S    
N6    C40   S    
C33   C34   D    
C9    C14   A    
C40   H28   S    
N4    C38   S    
O4    Zn2   S    
C21   H5    S    
C9    C17   A    
C39   H23   S    
S4    O19   D    
C10   C11   A    
S3    O16   D    
C22   C24   A    
C15   H9    S    
C12   O3    A    
C23   O6    A    
O6    Zn2   S    
C38   H20   S    
S1    O11   S    
C6    H10   S    
C24   C28   A    
C37   H16   S    
C20   H6    S    
N2    Zn2   S    
C6    C7    A    
S4    O20   S    
C28   H7    S    
C1    C17   S    
S2    O12   D    
C4    C15   A    
O7    Zn1   S    
C37   H14   S    
C11   C13   A    
O17   H25   S    
C16   N5    S    
O8    Zn2   S    
N3    H13   S    
C5    N6    S    
C3    C11   A    
C27   S2    S    
O3    Zn1   S    
C39   H24   S    
C20   C21   A    
C8    C10   A    
S4    O18   D    
S3    O17   S    
C27   C28   A    
C31   O7    A    
C13   C14   A    
C1    O1    A    
C3    C16   A    
S2    O13   D    
