data_mof_unit_23228.cif
_audit_creation_date              2013-03-05T15:44:35-0500
_audit_creation_method            fapswitch 2.2
_symmetry_space_group_name_H-M    P1
_symmetry_Int_Tables_number       1
_space_group_crystal_system       triclinic
_cell_length_a                    27.776406
_cell_length_b                    10.915952
_cell_length_c                    9.674528
_cell_angle_alpha                 89.837499
_cell_angle_beta                  89.717373
_cell_angle_gamma                 90.222347
_cell_volume                      2933.30437761

loop_
_atom_site_label
_atom_site_type_symbol
_atom_site_description
_atom_site_fract_x
_atom_site_fract_y
_atom_site_fract_z
_atom_type_partial_charge
O1    O     O_R   0.500010 0.321960 0.617040 -0.538692
O2    O     O_R   0.499990 0.321920 0.382900 -0.579459
C1    C     C_R   0.500676 0.265293 0.500180 0.847291
O3    O     O_R   0.430270 0.500040 0.617060 -0.539824
O4    O     O_R   0.430260 0.500000 0.382910 -0.585731
C2    C     C_R   0.407409 0.499695 0.500435 0.831773
Cu1   Cu    Cu3+1 0.500010 0.500020 0.638630 0.983705
Cu2   Cu    Cu3+1 0.499990 0.499980 0.361370 0.963312
O5    O     O_R   0.500010 0.678080 0.617100 -0.588607
O6    O     O_R   0.499990 0.678040 0.382960 -0.571774
O7    O     O_R   0.569740 0.500000 0.617090 -0.590959
O8    O     O_R   0.569730 0.499960 0.382940 -0.529397
C3    C     C_R   0.499409 0.734720 0.499957 0.847030
C4    C     C_R   0.592568 0.498751 0.499633 0.818324
C5    C     C_R   0.177532 0.388773 0.518749 0.546647
O9    O     O_2   0.202151 0.282398 0.518030 -0.552097
N1    N     N_R   0.201821 0.497479 0.511160 -0.451933
C6    C     C_R   0.178308 0.607209 0.512359 0.634485
C7    C     C_R   0.277959 0.487767 0.382372 -0.180810
C8    C     C_R   0.328170 0.488307 0.379229 -0.214454
C9    C     C_R   0.329479 0.507274 0.628992 -0.280846
C10   C     C_R   0.279031 0.504114 0.632871 0.526725
C11   C     C_R   0.253391 0.496675 0.508567 0.274595
C12   C     C_R   0.101862 0.499157 0.529420 -0.117405
C13   C     C_R   0.127170 0.387381 0.527215 0.021916
C14   C     C_R   0.101828 0.276603 0.532899 -0.143256
C15   C     C_R   0.127640 0.610988 0.525525 -0.219930
C16   C     C_R   0.354368 0.498412 0.502552 -0.103924
H1    H     H_    0.349043 0.517872 0.724785 0.183714
H2    H     H_    0.120510 0.189648 0.530823 0.197858
C17   C     C_R   0.645626 0.495908 0.499214 -0.142193
C18   C     C_R   0.974217 0.386292 0.547320 0.067987
C19   C     C_R   0.975065 0.608140 0.504136 -0.008996
C20   C     C_R   0.949298 0.497378 0.522673 0.071191
C21   C     C_R   0.947010 0.279423 0.575484 -0.220472
C22   C     C_R   0.897033 0.280811 0.572840 -0.150479
C23   C     C_R   0.872301 0.388452 0.540863 0.013446
C24   C     C_R   0.898280 0.497372 0.514785 -0.121565
C25   C     C_R   0.873236 0.605775 0.480413 -0.128752
C26   C     C_R   0.822419 0.602291 0.477025 0.582163
N2    N     N_R   0.798210 0.495676 0.504823 -0.465873
C27   C     C_R   0.821908 0.389772 0.535446 0.541750
C28   C     C_R   0.722182 0.452094 0.386743 -0.182095
C29   C     C_R   0.671785 0.450433 0.384536 0.458313
C30   C     C_R   0.670720 0.537885 0.615787 -0.279062
C31   C     C_R   0.720866 0.537660 0.617423 -0.108473
C32   C     C_R   0.746654 0.495173 0.502923 0.287369
O10   O     O_2   0.796667 0.286219 0.561276 -0.544029
C33   C     C_R   0.025319 0.385567 0.540888 0.082071
C34   C     C_R   0.050801 0.498604 0.532913 0.018585
C35   C     C_R   0.025546 0.610886 0.527096 -0.127595
C36   C     C_R   0.051906 0.275451 0.539808 -0.213578
H3    H     H_    0.742325 0.419338 0.298200 0.155856
H4    H     H_    0.877826 0.196516 0.595575 0.169632
H5    H     H_    0.963348 0.193608 0.603293 0.136858
H6    H     H_    0.035089 0.186311 0.539139 0.158061
O11   O     O_2   0.204130 0.711660 0.500726 -0.483551
C37   C     C_R   0.102282 0.722366 0.539885 0.439187
H7    H     H_    0.346425 0.481187 0.280411 0.168030
H8    H     H_    0.258055 0.480895 0.286718 0.156486
C38   C     C_R   0.949901 0.711677 0.456605 -0.265041
C39   C     C_R   0.899552 0.713383 0.449379 0.491817
O12   O     O_2   0.797158 0.704184 0.447007 -0.472958
C40   C     C_R   0.051791 0.721833 0.547018 0.341277
H9    H     H_    0.969076 0.791282 0.418931 0.212452
H10   H     H_    0.651554 0.572422 0.705231 0.183490
H11   H     H_    0.739777 0.570875 0.707556 0.152802
C41   C     C_2   0.501800 0.933350 0.386297 -0.149107
C42   C     C_2   0.496851 0.866700 0.501950 -0.304605
H12   H     H_    0.506890 0.888877 0.287000 0.167258
H13   H     H_    0.489802 0.907480 0.601762 0.145184
C43   C     C_2   0.499624 0.067345 0.386418 -0.162232
C44   C     C_2   0.503287 0.133332 0.502496 -0.316729
H14   H     H_    0.495599 0.112391 0.286862 0.163475
H15   H     H_    0.509376 0.092095 0.602676 0.146187
C45   C     C_2   0.472309 0.427397 0.921740 0.573837
N3    N     N_2   0.499480 0.498660 0.846910 -0.310268
H16   H     H_    0.518347 0.567459 0.894772 0.144348
C46   C     C_2   0.468602 0.440009 0.078260 -0.194264
N4    N     N_2   0.499460 0.498630 0.153040 -0.297750
H17   H     H_    0.438806 0.395003 0.130678 0.170779
H18   H     H_    0.529658 0.533517 0.105313 0.200259
O13   O     O_3   0.126256 0.833884 0.539782 -0.513480
C47   C     C_3   0.139013 0.864889 0.676461 -0.173276
H19   H     H_    0.151857 0.785115 0.738183 0.141624
H20   H     H_    0.108469 0.909890 0.729774 0.149902
H21   H     H_    0.168933 0.932412 0.672034 0.201719
O14   O     O_3   0.876304 0.816501 0.399363 -0.527630
C48   C     C_3   0.883925 0.916231 0.489387 -0.239181
H22   H     H_    0.878727 0.890221 0.599988 0.148276
H23   H     H_    0.857139 0.988196 0.465261 0.208481
H24   H     H_    0.920190 0.957045 0.472807 0.147795
O15   O     O_3   0.029244 0.831265 0.578881 -0.572256
C49   C     C_3   0.011733 0.825633 0.716463 0.059636
H25   H     H_    0.039950 0.793990 0.789774 0.127747
H26   H     H_    0.980282 0.762754 0.724902 0.158650
C50   C     C_3   0.995525 0.952550 0.760725 -0.796720
H27   H     H_    0.965420 0.983532 0.694522 0.228716
H28   H     H_    0.982974 0.949906 0.869843 0.215737
H29   H     H_    0.025850 0.018727 0.751492 0.246923
O16   O     O_3   0.254144 0.517881 0.756101 -0.580059
C51   C     C_3   0.260869 0.412702 0.838696 -0.305796
H30   H     H_    0.298149 0.408695 0.879664 0.165047
H31   H     H_    0.252024 0.327095 0.781486 0.188487
H32   H     H_    0.236058 0.417793 0.928691 0.193168
O17   O     O_3   0.442374 0.345785 0.853427 -0.540147
C52   C     C_3   0.447366 0.226973 0.909228 -0.332140
H33   H     H_    0.426294 0.217089 0.006485 0.149813
H34   H     H_    0.485777 0.202053 0.926168 0.149775
H35   H     H_    0.432460 0.160325 0.834225 0.194052
O18   O     O_3   0.648522 0.408245 0.267956 -0.567299
C53   C     C_3   0.642298 0.280469 0.280926 -0.268443
H36   H     H_    0.620156 0.256577 0.373520 0.146928
H37   H     H_    0.677581 0.232583 0.284681 0.167549
H38   H     H_    0.622760 0.246658 0.188777 0.187642

loop_
_geom_bond_atom_site_label_1
_geom_bond_atom_site_label_2
_geom_bond_distance
_ccdc_geom_bond_type
O15   C49   1.415961 S    
C44   H15   1.081797 S    
N2    C27   1.365063 A    
O18   C53   1.409969 S    
C12   C15   1.413157 A    
C4    C17   1.474180 S    
C53   H37   1.113228 S    
C50   H27   1.109105 S    
Cu1   Cu2   2.682364 S    
C30   C31   1.393064 A    
Cu1   O7    1.947003 S    
N1    C11   1.432589 S    
C10   O16   1.383998 S    
C3    C42   1.442886 S    
C22   C23   1.398050 A    
C47   H20   1.107904 S    
C40   O15   1.385707 S    
O4    C2    1.299411 A    
O7    C4    1.298683 A    
C5    C13   1.400903 A    
O17   C52   1.410991 S    
C5    O9    1.349874 S    
C51   H32   1.109381 S    
C5    N1    1.364347 A    
C23   C27   1.401107 A    
C42   H13   1.081757 S    
O5    C3    1.289658 A    
C49   H26   1.111446 S    
C28   H3    1.083153 S    
C2    C16   1.473366 S    
C21   C22   1.388662 A    
C41   C42   1.339116 D    
C52   H33   1.110428 S    
C47   H21   1.109295 S    
C48   H23   1.109240 S    
C38   C39   1.400804 A    
C41   C43   1.464160 S    
Cu1   N3    2.015003 S    
O1    Cu1   1.955474 S    
C9    C10   1.401867 A    
C37   C40   1.403795 A    
C52   H34   1.114864 S    
C51   H30   1.111553 S    
O3    Cu1   1.949361 S    
C53   H36   1.113875 S    
C50   H28   1.110370 S    
N1    C6    1.366561 A    
C45   N3    1.298335 D    
C12   C34   1.418510 A    
C17   C29   1.415358 A    
C6    C15   1.413282 A    
C21   H5    1.076526 S    
O16   C51   1.410507 S    
C12   C13   1.410679 A    
N4    H18   1.026894 S    
C25   C26   1.412426 A    
C46   H17   1.083885 S    
C8    C16   1.404928 A    
C49   C50   1.520447 S    
C13   C14   1.397634 A    
N3    H16   1.026831 S    
C39   O14   1.387009 S    
O6    C3    1.291559 A    
C8    H7    1.083080 S    
C18   C20   1.418741 A    
C7    C11   1.399525 A    
C28   C29   1.400169 A    
C18   C21   1.412647 A    
C23   C24   1.409901 A    
C14   C36   1.387957 A    
C6    O11   1.348804 S    
O13   C47   1.412380 S    
Cu2   O8    1.949355 S    
C33   C36   1.413226 A    
C34   C35   1.415695 A    
N2    C32   1.432250 S    
C27   O10   1.349929 S    
C47   H19   1.115228 S    
C48   H24   1.110593 S    
C51   H31   1.114657 S    
C26   O12   1.349077 S    
C43   H14   1.086632 S    
C26   N2    1.367224 A    
C9    C16   1.405860 A    
O8    C4    1.297758 A    
C14   H2    1.083723 S    
C52   H35   1.109446 S    
O3    C2    1.297433 A    
C50   H29   1.110608 S    
Cu1   O5    1.954237 S    
C25   C39   1.411881 A    
C31   C32   1.397468 A    
C45   O17   1.387372 S    
C20   C24   1.419545 A    
Cu2   O6    1.955474 S    
O2    Cu2   1.954237 S    
C35   C40   1.425204 A    
C43   C44   1.339958 D    
C15   C37   1.414288 A    
O4    Cu2   1.947006 S    
C7    H8    1.082947 S    
C19   C35   1.420969 A    
C7    C8    1.394863 A    
O2    C1    1.290799 A    
C31   H11   1.082863 S    
C37   O13   1.385281 S    
C24   C25   1.414623 A    
C9    H1    1.082877 S    
C19   C20   1.413163 A    
C49   H25   1.114811 S    
C1    C44   1.442705 S    
C18   C33   1.420563 A    
C22   H4    1.083328 S    
C46   N4    1.293061 D    
C29   O18   1.381844 S    
C38   H9    1.079036 S    
C45   C46   1.523907 S    
O14   C48   1.412049 S    
C19   C38   1.408442 A    
C33   C34   1.421820 A    
C17   C30   1.405665 A    
C30   H10   1.083139 S    
Cu2   N4    2.015716 S    
C41   H12   1.086444 S    
C10   C11   1.403058 A    
O1    C1    1.290348 A    
C48   H22   1.114817 S    
C28   C32   1.398059 A    
C53   H38   1.109323 S    
C36   H6    1.077769 S    
