data_mof_unit_14177.cif
_audit_creation_date              2012-12-10T18:48:23-0500
_audit_creation_method            fapswitch 2.2
_symmetry_space_group_name_H-M    P1
_symmetry_Int_Tables_number       1
_space_group_crystal_system       triclinic
_cell_length_a                    10.61405
_cell_length_b                    9.922957
_cell_length_c                    11.524702
_cell_angle_alpha                 89.999815
_cell_angle_beta                  91.420637
_cell_angle_gamma                 90.000055
_cell_volume                      1213.44034686

loop_
_atom_site_label
_atom_site_type_symbol
_atom_type_description
_atom_site_fract_x
_atom_site_fract_y
_atom_site_fract_z
_atom_type_partial_charge
C1    C     C_R   0.260710 0.499916 0.515327 0.867553
C2    C     C_R   0.939957 0.622540 0.474768 0.143141
C3    C     C_R   0.939384 0.375713 0.475856 0.138313
C4    C     C_R   0.060042 0.622541 0.525227 0.143143
C5    C     C_R   0.874335 0.499365 0.467106 -0.162348
C6    C     C_R   0.125664 0.499366 0.532892 -0.162345
C7    C     C_R   0.535779 0.071672 0.597630 0.376078
C8    C     C_R   0.466326 0.928195 0.401796 0.364300
C9    C     C_R   0.464222 0.071673 0.402369 0.376090
C10   C     C_R   0.533677 0.928194 0.598203 0.364327
C11   C     C_3   0.114292 0.246006 0.574423 -0.842683
C12   C     C_R   0.739289 0.499916 0.484673 0.867552
C13   C     C_3   0.889743 0.751050 0.419534 -0.845605
C14   C     C_3   0.885706 0.246002 0.425585 -0.842681
C15   C     C_3   0.110253 0.751052 0.580459 -0.845624
C16   C     C_3   0.694605 0.162602 0.710605 -0.199730
C17   C     C_3   0.315611 0.833683 0.280823 -0.158169
C18   C     C_3   0.305390 0.162607 0.289404 -0.199750
C19   C     C_3   0.684405 0.833696 0.719172 -0.158112
C20   C     C_R   0.499644 0.499987 0.282071 0.868194
C21   C     C_R   0.500356 0.499987 0.717928 0.868191
C22   C     C_1   0.499708 0.499964 0.161592 -0.158486
C23   C     C_1   0.500292 0.499964 0.838408 -0.158478
C24   C     C_1   0.499868 0.499966 0.059350 0.011260
C25   C     C_1   0.500133 0.499966 0.940650 0.011262
C26   C     C_R   0.060616 0.375714 0.524144 0.138310
H1    H     H_    0.150237 0.180805 0.504696 0.231927
H2    H     H_    0.192683 0.732259 0.639346 0.255100
H3    H     H_    0.134994 0.825793 0.513586 0.228802
H4    H     H_    0.036723 0.795758 0.635574 0.219354
H5    H     H_    0.753965 0.093534 0.658910 0.075456
H6    H     H_    0.723919 0.150592 0.803072 0.160740
H7    H     H_    0.715921 0.267906 0.686672 0.192966
H8    H     H_    0.258652 0.842684 0.360013 0.104069
H9    H     H_    0.303920 0.729314 0.247992 0.169423
H10   H     H_    0.276239 0.901012 0.212336 0.146118
H11   H     H_    0.246031 0.093530 0.341096 0.075455
H12   H     H_    0.040281 0.190347 0.621191 0.222209
H13   H     H_    0.276072 0.150609 0.196936 0.160741
H14   H     H_    0.284078 0.267909 0.313346 0.192980
H15   H     H_    0.741380 0.842803 0.639999 0.103968
H16   H     H_    0.696114 0.729297 0.751927 0.169428
H17   H     H_    0.723746 0.900969 0.787717 0.146139
H18   H     H_    0.190493 0.266028 0.639907 0.253110
H19   H     H_    0.807314 0.732254 0.360648 0.255098
H20   H     H_    0.865000 0.825790 0.486407 0.228813
H21   H     H_    0.963273 0.795757 0.364419 0.219349
H22   H     H_    0.849757 0.180808 0.495317 0.231928
H23   H     H_    0.959717 0.190335 0.378824 0.222209
H24   H     H_    0.809507 0.266020 0.360098 0.253110
N1    N     N_R   0.500000 0.857200 0.500000 -0.210804
N2    N     N_R   0.500000 0.142800 0.500000 -0.211417
O1    O     O_R   0.316770 0.614620 0.499990 -0.611303
O2    O     O_3   0.445482 0.861033 0.298078 -0.538482
O3    O     O_3   0.436501 0.138420 0.299807 -0.536995
O4    O     O_3   0.554531 0.861031 0.701918 -0.538494
O5    O     O_R   0.683230 0.385380 0.500010 -0.621084
O6    O     O_R   0.683230 0.614620 0.500010 -0.611292
O7    O     O_R   0.316770 0.385380 0.499990 -0.621088
O8    O     O_R   0.500020 0.614670 0.334450 -0.562046
O9    O     O_R   0.499980 0.385330 0.665550 -0.561925
O10   O     O_R   0.499980 0.614670 0.665550 -0.562048
O11   O     O_R   0.500020 0.385330 0.334450 -0.561926
O12   O     O_3   0.563495 0.138419 0.700193 -0.536998
Zn1   Zn    Zn3+2 0.500000 0.653120 0.500000 0.983896
Zn2   Zn    Zn3+2 0.500000 0.346880 0.500000 0.979811

loop_
_geom_bond_atom_site_label_1
_geom_bond_atom_site_label_2
_ccdc_geom_bond_type
C19   O4    S    
C7    N2    A    
C7    C10   A    
C2    C4    A    
C18   H13   S    
C9    O3    S    
C17   H10   S    
C16   O12   S    
C16   H7    S    
C20   O8    A    
O1    Zn1   S    
O6    Zn1   S    
C21   O9    A    
C11   C26   S    
C19   H16   S    
C11   H1    S    
O5    Zn2   S    
C12   O6    A    
C20   O11   A    
C1    O7    A    
C15   H2    S    
O11   Zn2   S    
C11   H18   S    
C14   H24   S    
C16   H5    S    
C13   H19   S    
C9    N2    A    
C8    N1    A    
C21   O10   A    
C6    C26   A    
C3    C14   S    
C18   O3    S    
C15   H4    S    
C14   H22   S    
C10   N1    A    
C17   O2    S    
C10   O4    S    
C18   H11   S    
C20   C22   S    
O8    Zn1   S    
C15   H3    S    
C21   C23   S    
O7    Zn2   S    
C13   H20   S    
C22   C24   T    
C7    O12   S    
C14   H23   S    
C16   H6    S    
C17   H8    S    
C12   O5    A    
C1    C6    S    
C2    C5    A    
C23   C25   T    
N2    Zn2   S    
C24   C25   S    
C5    C12   S    
C4    C6    A    
N1    Zn1   S    
C8    O2    S    
C13   H21   S    
C2    C13   S    
C1    O1    A    
C4    C15   S    
C11   H12   S    
C18   H14   S    
C17   H9    S    
O10   Zn1   S    
O9    Zn2   S    
C3    C26   A    
C19   H15   S    
C19   H17   S    
C8    C9    A    
C3    C5    A    
