data_mof_unit_53225.cif
_audit_creation_date              2012-12-10T18:11:38-0500
_audit_creation_method            fapswitch 2.2
_symmetry_space_group_name_H-M    P1
_symmetry_Int_Tables_number       1
_space_group_crystal_system       triclinic
_cell_length_a                    10.538812
_cell_length_b                    12.643675
_cell_length_c                    13.067096
_cell_angle_alpha                 81.924832
_cell_angle_beta                  90.823448
_cell_angle_gamma                 102.316064
_cell_volume                      1684.02374292

loop_
_atom_site_label
_atom_site_type_symbol
_atom_type_description
_atom_site_fract_x
_atom_site_fract_y
_atom_site_fract_z
_atom_type_partial_charge
C1    C     C_R   0.479887 0.438670 0.691334 0.882442
C2    C     C_3   0.064808 0.595785 0.522540 0.346189
C3    C     C_3   0.964424 0.515527 0.594864 0.331372
C4    C     C_3   0.876223 0.499483 0.501532 -0.242630
C5    C     C_R   0.398959 0.698042 0.065855 -0.043484
C6    C     C_R   0.505258 0.597973 0.199124 -0.109406
C7    C     C_R   0.486848 0.297011 0.841485 -0.213123
C8    C     C_R   0.488712 0.266230 0.947919 0.449903
C9    C     C_R   0.476965 0.341147 0.014076 -0.102925
C10   C     C_R   0.459624 0.446868 0.974018 0.048783
C11   C     C_R   0.429866 0.467679 0.869194 0.034581
C12   C     C_R   0.741692 0.500099 0.500805 1.019119
C13   C     C_R   0.464921 0.530822 0.035485 -0.038428
C14   C     C_R   0.405803 0.620419 0.000187 0.036300
C15   C     C_R   0.354694 0.630767 0.900431 0.461938
C16   C     C_R   0.369609 0.555523 0.834936 -0.246975
C17   C     C_R   0.530254 0.530501 0.129914 0.349968
C18   C     C_R   0.444232 0.684297 0.166181 -0.220499
C19   C     C_R   0.460546 0.399011 0.801567 -0.139264
C20   C     C_R   0.294156 0.084073 0.362941 0.319543
C21   C     C_R   0.651001 0.797382 0.632707 0.586571
C22   C     C_R   0.666525 0.896227 0.672479 -0.439946
C23   C     C_R   0.514718 0.561197 0.308617 0.944725
C24   C     C_R   0.598152 0.975380 0.630286 0.449219
C25   C     C_R   0.522080 0.958066 0.540731 0.014290
C26   C     C_R   0.502547 0.853482 0.508578 0.014096
C27   C     C_R   0.460789 0.037906 0.484058 -0.064219
C28   C     C_R   0.364166 0.006363 0.409379 -0.115788
C29   C     C_R   0.345575 0.899947 0.381926 0.432302
C30   C     C_R   0.416393 0.827509 0.429947 -0.152950
C31   C     C_R   0.496561 0.149478 0.495382 -0.039087
C32   C     C_R   0.334246 0.192647 0.379168 0.428306
C33   C     C_R   0.258184 0.499881 0.499438 0.943866
C34   C     C_3   0.932667 0.401611 0.478715 -0.235846
C35   C     C_3   0.023262 0.418438 0.572937 -0.308676
C36   C     C_3   0.123419 0.500167 0.500118 -0.163543
C37   C     C_3   0.034231 0.484062 0.408013 0.378037
C38   C     C_3   0.976729 0.579655 0.430045 0.273720
H1    H     H_    0.046278 0.353033 0.631609 0.205928
H2    H     H_    0.507329 0.242048 0.790381 0.214385
H3    H     H_    0.477578 0.314876 0.096428 0.215616
H4    H     H_    0.329679 0.564024 0.758181 0.167121
H5    H     H_    0.578155 0.182351 0.540112 0.217569
H6    H     H_    0.875877 0.322387 0.459726 0.213606
H7    H     H_    0.727522 0.909603 0.738884 0.173394
H8    H     H_    0.402292 0.749766 0.403884 0.216738
H9    H     H_    0.427947 0.738610 0.218981 0.208505
H10   H     H_    0.353180 0.766298 0.041845 0.239829
N1    N     N_R   0.432930 0.222190 0.444670 -0.178608
N2    N     N_R   0.566370 0.776980 0.554790 -0.135154
O1    O     O_R   0.467970 0.366730 0.627150 -0.625878
O2    O     O_R   0.510820 0.544830 0.662520 -0.566878
O3    O     O_R   0.664630 0.410960 0.482340 -0.635916
O4    O     O_R   0.707470 0.589060 0.517710 -0.526485
O5    O     O_R   0.489180 0.455170 0.337480 -0.543080
O6    O     O_R   0.532030 0.633270 0.372850 -0.650577
O7    O     O_R   0.292530 0.410940 0.482290 -0.561858
O8    O     O_R   0.335370 0.589040 0.517660 -0.626618
Zn1   Zn    Zn3+2 0.471390 0.381080 0.476380 1.037914
Zn2   Zn    Zn3+2 0.528610 0.618920 0.523620 1.037619
Cl1   Cl    Cl    0.661595 0.463460 0.157130 -0.565211
Cl2   Cl    Cl    0.513546 0.136209 0.998386 -0.504077
Cl3   Cl    Cl    0.258256 0.291974 0.311111 -0.448091
Cl4   Cl    Cl    0.250100 0.852742 0.278774 -0.534712
Cl5   Cl    Cl    0.147731 0.050254 0.294725 -0.389196
O9    O     O_3   0.714800 0.717309 0.674495 -0.674044
H11   H     H_    0.771813 0.744166 0.730573 0.348462
O10   O     O_3   0.595723 0.063388 0.681532 -0.771436
H12   H     H_    0.652257 0.061250 0.742810 0.365642
O11   O     O_3   0.075611 0.469394 0.310855 -0.676216
H13   H     H_    0.996252 0.459113 0.268560 0.380520
O12   O     O_3   0.946747 0.662482 0.357206 -0.678727
H14   H     H_    0.018824 0.681000 0.305644 0.400700
O13   O     O_3   0.136001 0.696347 0.544877 -0.712149
H15   H     H_    0.070876 0.741155 0.551788 0.378157
Cl6   Cl    Cl    0.914998 0.536600 0.718859 -0.523910
O14   O     O_3   0.294342 0.716246 0.867498 -0.727196
H16   H     H_    0.265514 0.711961 0.795319 0.365829

loop_
_geom_bond_atom_site_label_1
_geom_bond_atom_site_label_2
_ccdc_geom_bond_type
C33   O8    A    
O5    Zn1   S    
C21   O9    S    
C34   C37   S    
C35   C36   S    
C18   H9    S    
O3    Zn1   S    
C7    C8    A    
O4    Zn2   S    
O14   H16   S    
C11   C19   A    
C37   C38   S    
C31   H5    S    
C36   C37   S    
C26   N2    A    
O7    Zn1   S    
O8    Zn2   S    
C15   C16   A    
C33   C36   S    
C34   C35   S    
O2    Zn2   S    
C17   Cl1   S    
C8    C9    A    
C7    H2    S    
O11   H13   S    
C4    C12   S    
C9    C10   A    
C12   O3    A    
C2    O13   S    
O9    H11   S    
C29   Cl4   S    
C13   C14   A    
C31   N1    A    
C21   N2    A    
C38   O12   S    
C6    C18   A    
C5    H10   S    
C4    C34   S    
C1    C19   S    
O13   H15   S    
C27   C31   A    
C20   Cl5   S    
C23   O6    A    
C34   H6    S    
C24   C25   A    
O10   H12   S    
C5    C18   A    
C20   C28   A    
C25   C26   A    
O6    Zn2   S    
C35   H1    S    
C29   C30   A    
C11   C16   A    
C2    C38   S    
C3    C35   S    
C3    Cl6   S    
C1    O1    A    
C5    C14   A    
C4    C38   S    
C26   C30   A    
C7    C19   A    
C22   C24   A    
O1    Zn1   S    
C3    C4    S    
C16   H4    S    
C20   C32   A    
C2    C36   S    
C6    C17   A    
C28   C29   A    
C33   O7    A    
C30   H8    S    
C32   Cl3   S    
O12   H14   S    
C10   C13   A    
C23   O5    A    
C25   C27   A    
C9    H3    S    
N1    Zn1   S    
C13   C17   A    
N2    Zn2   S    
C2    C3    S    
C37   O11   S    
C15   O14   S    
C6    C23   S    
C1    O2    A    
C32   N1    A    
C10   C11   A    
C24   O10   S    
C22   H7    S    
C27   C28   A    
C14   C15   A    
C21   C22   A    
C12   O4    A    
C8    Cl2   S    
