data_mof_unit_52219.cif
_audit_creation_date              2012-12-11T14:06:44-0500
_audit_creation_method            fapswitch 2.2
_symmetry_space_group_name_H-M    P1
_symmetry_Int_Tables_number       1
_space_group_crystal_system       triclinic
_cell_length_a                    27.787672
_cell_length_b                    27.878617
_cell_length_c                    27.791886
_cell_angle_alpha                 90.445601
_cell_angle_beta                  89.794229
_cell_angle_gamma                 89.515237
_cell_volume                      21528.3044106

loop_
_atom_site_label
_atom_site_type_symbol
_atom_type_description
_atom_site_fract_x
_atom_site_fract_y
_atom_site_fract_z
_atom_type_partial_charge
C1    C     C_R   0.708887 0.349660 0.350129 -0.157862
C2    C     C_R   0.208410 0.725332 0.726151 -0.172603
C3    C     C_R   0.729376 0.791142 0.273011 -0.042295
C4    C     C_R   0.266604 0.206641 0.732032 -0.057389
C5    C     C_R   0.204522 0.733030 0.269511 -0.057801
C6    C     C_R   0.790068 0.272755 0.727425 -0.068459
C7    C     C_R   0.272767 0.211006 0.271860 -0.059695
C8    C     C_R   0.722930 0.786381 0.731835 -0.085202
C9    C     C_R   0.789514 0.728738 0.735227 -0.074656
C10   C     C_R   0.211028 0.273516 0.272315 -0.051962
C11   C     C_R   0.729180 0.209592 0.730328 -0.068817
C12   C     C_R   0.266857 0.794435 0.269279 -0.071234
C13   C     C_R   0.204912 0.269244 0.733138 -0.053019
C14   C     C_R   0.790731 0.728566 0.272479 -0.064147
C15   C     C_R   0.274604 0.781870 0.721725 -0.187642
C16   C     C_R   0.645754 0.290028 0.352352 -0.161717
C17   C     C_R   0.275313 0.717680 0.781362 -0.184001
C18   C     C_R   0.643347 0.352181 0.292511 -0.158444
C19   C     C_R   0.273167 0.273197 0.210343 -0.060379
C20   C     C_R   0.727457 0.728768 0.797334 -0.156154
C21   C     C_R   0.730694 0.731877 0.208039 -0.066950
C22   C     C_R   0.267636 0.268898 0.794571 -0.078381
C23   C     C_R   0.728316 0.274507 0.789448 -0.043272
C24   C     C_R   0.265564 0.732811 0.206174 -0.059618
C25   C     C_R   0.692367 0.304575 0.365261 0.363209
C26   C     C_R   0.228363 0.767313 0.707245 0.386707
C27   C     C_R   0.773340 0.772908 0.289732 0.290768
C28   C     C_R   0.221863 0.224488 0.716361 0.270615
C29   C     C_R   0.222761 0.776836 0.286912 0.287632
C30   C     C_R   0.772537 0.227956 0.711408 0.311639
C31   C     C_R   0.228216 0.228957 0.288475 0.293539
C32   C     C_R   0.770300 0.772625 0.718947 0.251362
C33   C     C_R   0.283039 0.776568 0.224319 0.305341
C34   C     C_R   0.712495 0.229266 0.774265 0.281770
C35   C     C_R   0.298153 0.756533 0.759049 0.362821
C36   C     C_R   0.630065 0.306199 0.307388 0.344728
C37   C     C_R   0.284425 0.224477 0.775917 0.313162
C38   C     C_R   0.713805 0.775790 0.227463 0.283729
C39   C     C_R   0.290169 0.228867 0.227835 0.289188
C40   C     C_R   0.704341 0.767736 0.775216 0.371164
C41   C     C_R   0.223141 0.286242 0.777209 0.289189
C42   C     C_R   0.773924 0.712936 0.227131 0.300776
C43   C     C_R   0.772596 0.290333 0.771723 0.284598
C44   C     C_R   0.221250 0.716678 0.224370 0.278232
C45   C     C_R   0.690012 0.366133 0.306202 0.363945
C46   C     C_R   0.230207 0.702388 0.765288 0.378737
C47   C     C_R   0.228601 0.289999 0.228030 0.293961
C48   C     C_R   0.771161 0.710850 0.778925 0.367480
C49   C     C_R   0.917018 0.387639 0.557201 0.415851
C50   C     C_R   0.076238 0.615197 0.438779 0.470708
C51   C     C_R   0.615326 0.922637 0.559902 0.427057
C52   C     C_R   0.387156 0.083028 0.442975 0.413323
C53   C     C_R   0.081469 0.613322 0.558433 0.420793
C54   C     C_R   0.927359 0.383569 0.437638 0.359236
C55   C     C_R   0.384316 0.076652 0.560430 0.421973
C56   C     C_R   0.611835 0.915099 0.443731 0.420581
C57   C     C_R   0.916576 0.612554 0.443244 0.422434
C58   C     C_R   0.077204 0.384731 0.560410 0.441984
C59   C     C_R   0.616429 0.072769 0.437781 0.365134
C60   C     C_R   0.386773 0.919328 0.560542 0.444801
C61   C     C_R   0.085461 0.388603 0.443648 0.425844
C62   C     C_R   0.925479 0.616529 0.561027 0.416986
C63   C     C_R   0.384764 0.923212 0.439345 0.451518
C64   C     C_R   0.613070 0.081625 0.558963 0.423954
C65   C     C_R   0.556760 0.915033 0.388295 0.425686
C66   C     C_R   0.441380 0.083312 0.612650 0.441470
C67   C     C_R   0.559710 0.613668 0.919584 0.436254
C68   C     C_R   0.442744 0.387617 0.082839 0.411311
C69   C     C_R   0.560322 0.076249 0.615713 0.445398
C70   C     C_R   0.439381 0.922774 0.384682 0.440512
C71   C     C_R   0.561668 0.383959 0.073950 0.354705
C72   C     C_R   0.438692 0.615014 0.922618 0.465069
C73   C     C_R   0.439566 0.927105 0.616946 0.420835
C74   C     C_R   0.562020 0.072740 0.383502 0.357701
C75   C     C_R   0.440075 0.614083 0.080255 0.417013
C76   C     C_R   0.556167 0.388778 0.914276 0.431306
C77   C     C_R   0.442380 0.082673 0.387419 0.413443
C78   C     C_R   0.558051 0.916920 0.612292 0.438171
C79   C     C_R   0.439592 0.384814 0.922641 0.440335
C80   C     C_R   0.560040 0.615799 0.076173 0.419753
C81   C     C_R   0.386565 0.557428 0.918062 0.411318
C82   C     C_R   0.615612 0.438516 0.075497 0.368331
C83   C     C_R   0.922821 0.561907 0.615214 0.427954
C84   C     C_R   0.085316 0.443620 0.388514 0.425543
C85   C     C_R   0.614062 0.560015 0.079762 0.402766
C86   C     C_R   0.384539 0.438860 0.923820 0.473564
C87   C     C_R   0.076850 0.560374 0.384516 0.439032
C88   C     C_R   0.917313 0.442639 0.612871 0.427745
C89   C     C_R   0.612403 0.442126 0.916434 0.447321
C90   C     C_R   0.384006 0.561135 0.075632 0.423484
C91   C     C_R   0.077301 0.439221 0.615081 0.462535
C92   C     C_R   0.916761 0.557393 0.387578 0.413574
C93   C     C_R   0.387520 0.443318 0.083488 0.424509
C94   C     C_R   0.615371 0.558800 0.921712 0.400262
C95   C     C_R   0.927112 0.437847 0.383409 0.360194
C96   C     C_R   0.080622 0.558755 0.613999 0.403263
C97   C     C_R   0.778415 0.347009 0.407473 -0.140798
C98   C     C_R   0.128513 0.695090 0.698020 -0.043595
C99   C     C_R   0.705108 0.817667 0.357301 -0.151825
C100  C     C_R   0.284371 0.165359 0.651806 -0.143972
C101  C     C_R   0.170495 0.710724 0.351444 -0.142586
C102  C     C_R   0.818759 0.295906 0.643749 -0.148041
C103  C     C_R   0.293943 0.180089 0.355133 -0.150177
C104  C     C_R   0.710666 0.831358 0.653428 -0.135595
C105  C     C_R   0.837389 0.715539 0.657917 -0.157298
C106  C     C_R   0.183666 0.296695 0.356637 -0.147846
C107  C     C_R   0.702414 0.182151 0.647655 -0.153647
C108  C     C_R   0.289000 0.829083 0.351260 -0.142183
C109  C     C_R   0.169166 0.288566 0.651645 -0.145571
C110  C     C_R   0.819656 0.705917 0.356211 -0.151588
C111  C     C_R   0.309186 0.805209 0.642576 -0.135130
C112  C     C_R   0.646905 0.223160 0.411778 -0.142914
C113  C     C_R   0.349239 0.828186 0.289646 -0.148311
C114  C     C_R   0.649668 0.167128 0.713891 -0.141785
C115  C     C_R   0.338230 0.655928 0.791988 -0.102033
C116  C     C_R   0.584425 0.349757 0.224470 -0.142000
C117  C     C_R   0.350375 0.182516 0.704085 -0.160320
C118  C     C_R   0.645118 0.818769 0.295568 -0.145517
C119  C     C_R   0.356265 0.295651 0.180027 -0.146365
C120  C     C_R   0.695431 0.699315 0.876245 -0.015908
C121  C     C_R   0.640769 0.807779 0.697185 -0.145111
C122  C     C_R   0.355695 0.180120 0.294961 -0.146288
C123  C     C_R   0.650494 0.714944 0.166576 -0.162306
C124  C     C_R   0.350246 0.290311 0.827260 -0.148520
C125  C     C_R   0.587703 0.221850 0.349903 -0.142632
C126  C     C_R   0.329776 0.851585 0.712720 -0.062025
C127  C     C_R   0.644003 0.298166 0.815388 -0.147924
C128  C     C_R   0.348853 0.707571 0.177415 -0.162587
C129  C     C_R   0.288631 0.350600 0.830096 -0.137556
C130  C     C_R   0.706024 0.650004 0.177153 -0.155005
C131  C     C_R   0.821335 0.355384 0.706074 -0.143490
C132  C     C_R   0.168961 0.651699 0.288499 -0.147046
C133  C     C_R   0.639753 0.414369 0.228495 -0.153586
C134  C     C_R   0.298365 0.688418 0.862868 -0.081674
C135  C     C_R   0.183671 0.357515 0.296239 -0.147834
C136  C     C_R   0.818271 0.647118 0.705399 -0.149051
C137  C     C_R   0.671064 0.661850 0.801376 -0.206020
C138  C     C_R   0.295008 0.356446 0.180889 -0.150436
C139  C     C_R   0.202434 0.667005 0.660334 -0.166127
C140  C     C_R   0.777637 0.407685 0.347656 -0.136293
C141  C     C_R   0.284231 0.652620 0.165443 -0.158245
C142  C     C_R   0.705105 0.358367 0.817995 -0.143538
C143  C     C_R   0.819544 0.644953 0.295227 -0.145051
C144  C     C_R   0.171748 0.351392 0.710800 -0.143221
C145  C     C_R   0.828317 0.349314 0.411076 0.159476
C146  C     C_R   0.101766 0.664804 0.667927 0.150824
C147  C     C_R   0.670777 0.833779 0.390842 0.300087
C148  C     C_R   0.316462 0.147453 0.616914 0.214424
C149  C     C_R   0.150951 0.677693 0.383850 0.199389
C150  C     C_R   0.836613 0.329342 0.610859 0.298936
C151  C     C_R   0.326983 0.162347 0.388751 0.287969
C152  C     C_R   0.681304 0.850911 0.617567 0.209753
C153  C     C_R   0.857487 0.685422 0.622315 0.195793
C154  C     C_R   0.167386 0.330537 0.390572 0.296980
C155  C     C_R   0.668747 0.162542 0.615816 0.306401
C156  C     C_R   0.321932 0.848645 0.383983 0.224018
C157  C     C_R   0.150424 0.320619 0.617824 0.237584
C158  C     C_R   0.836821 0.672566 0.389691 0.288299
C159  C     C_R   0.342020 0.830980 0.614694 0.293042
C160  C     C_R   0.646320 0.173331 0.414879 0.171110
C161  C     C_R   0.382597 0.848106 0.321641 0.237598
C162  C     C_R   0.615430 0.148017 0.682302 0.200200
C163  C     C_R   0.369050 0.628724 0.820585 0.259719
C164  C     C_R   0.583912 0.351388 0.174391 0.164222
C165  C     C_R   0.382803 0.164266 0.669523 0.306437
C166  C     C_R   0.610921 0.834454 0.329444 0.294309
C167  C     C_R   0.389360 0.329034 0.162683 0.296968
C168  C     C_R   0.665668 0.668145 0.902073 0.141853
C169  C     C_R   0.610924 0.830351 0.663342 0.268207
C170  C     C_R   0.388646 0.162466 0.328642 0.296558
C171  C     C_R   0.616500 0.683215 0.147206 0.213236
C172  C     C_R   0.383228 0.322441 0.847308 0.242449
C173  C     C_R   0.585993 0.172000 0.350992 0.164765
C174  C     C_R   0.368799 0.870806 0.687759 0.146322
C175  C     C_R   0.610073 0.331921 0.831795 0.299752
C176  C     C_R   0.381654 0.673824 0.158361 0.288047
C177  C     C_R   0.321215 0.383546 0.849627 0.188488
C178  C     C_R   0.672470 0.618047 0.157852 0.295934
C179  C     C_R   0.838697 0.388862 0.673125 0.266772
C180  C     C_R   0.149806 0.618035 0.320340 0.238090
C181  C     C_R   0.640758 0.417855 0.178513 0.186236
C182  C     C_R   0.328137 0.660684 0.892527 0.161753
C183  C     C_R   0.167321 0.391084 0.330410 0.295541
C184  C     C_R   0.841767 0.616738 0.672259 0.260979
C185  C     C_R   0.640992 0.630628 0.826012 0.295415
C186  C     C_R   0.328200 0.389750 0.163446 0.289255
C187  C     C_R   0.176878 0.636255 0.630334 0.285618
C188  C     C_R   0.827541 0.411658 0.349716 0.158257
C189  C     C_R   0.316570 0.618425 0.146553 0.211929
C190  C     C_R   0.671215 0.391954 0.835040 0.237198
C191  C     C_R   0.836702 0.611675 0.328770 0.297233
C192  C     C_R   0.152557 0.383988 0.677567 0.203085
C193  C     C_R   0.854257 0.383969 0.383762 0.019652
C194  C     C_R   0.126329 0.634664 0.634292 0.196229
C195  C     C_R   0.626564 0.852813 0.374284 0.128553
C196  C     C_R   0.365237 0.137968 0.629389 0.140709
C197  C     C_R   0.133126 0.633010 0.366605 0.162861
C198  C     C_R   0.856561 0.372867 0.627949 0.137415
C199  C     C_R   0.371706 0.143420 0.372599 0.132584
C200  C     C_R   0.631664 0.859602 0.627270 0.144810
C201  C     C_R   0.867683 0.636431 0.632994 0.141544
C202  C     C_R   0.148366 0.374789 0.374577 0.130160
C203  C     C_R   0.628673 0.137089 0.633969 0.148548
C204  C     C_R   0.366940 0.865996 0.367197 0.158307
C205  C     C_R   0.134293 0.366972 0.632810 0.162475
C206  C     C_R   0.855704 0.628054 0.373127 0.132203
C207  C     C_R   0.369898 0.867872 0.636481 0.125719
C208  C     C_R   0.613694 0.146336 0.385772 0.012141
C209  C     C_R   0.364571 0.631409 0.871180 0.190126
C210  C     C_R   0.610772 0.387378 0.149874 0.012606
C211  C     C_R   0.372587 0.373233 0.144066 0.131637
C212  C     C_R   0.637667 0.633936 0.876591 0.195296
C213  C     C_R   0.630654 0.635560 0.134492 0.138160
C214  C     C_R   0.366926 0.367336 0.866048 0.164564
C215  C     C_R   0.626013 0.375712 0.851914 0.142103
C216  C     C_R   0.364450 0.631978 0.134691 0.137388
C217  C     C_R   0.754545 0.369752 0.369997 0.132983
C218  C     C_R   0.178581 0.695992 0.694207 0.158364
C219  C     C_R   0.694065 0.813648 0.307913 0.082874
C220  C     C_R   0.300131 0.180758 0.697356 0.093427
C221  C     C_R   0.177426 0.699536 0.302403 0.106479
C222  C     C_R   0.814513 0.306841 0.693173 0.090182
C223  C     C_R   0.306505 0.185933 0.306277 0.087920
C224  C     C_R   0.691274 0.812183 0.695881 0.107273
C225  C     C_R   0.818816 0.697373 0.701179 0.099380
C226  C     C_R   0.188271 0.308422 0.307533 0.081530
C227  C     C_R   0.695232 0.182169 0.697855 0.096114
C228  C     C_R   0.300748 0.821192 0.302463 0.103391
C229  C     C_R   0.178013 0.302387 0.699588 0.103890
C230  C     C_R   0.814439 0.693974 0.307000 0.089770
C231  C     C_R   0.302149 0.815802 0.691437 0.159018
C232  C     C_R   0.624477 0.245923 0.373520 0.131134
C233  C     C_R   0.303729 0.686336 0.812921 0.184964
C234  C     C_R   0.619701 0.374317 0.249785 0.127745
C235  C     C_R   0.307181 0.307470 0.185935 0.088390
C236  C     C_R   0.697831 0.696277 0.826128 0.138184
C237  C     C_R   0.697130 0.699720 0.179692 0.093843
C238  C     C_R   0.301316 0.302261 0.821288 0.105314
C239  C     C_R   0.693192 0.309634 0.811773 0.087488
C240  C     C_R   0.298961 0.698937 0.178960 0.095610
C241  C     C_R   0.891962 0.401873 0.598604 -0.234500
C242  C     C_R   0.101299 0.601719 0.397523 -0.278728
C243  C     C_R   0.601604 0.895117 0.598981 -0.236466
C244  C     C_R   0.400960 0.107839 0.401704 -0.221899
C245  C     C_R   0.100408 0.601871 0.602157 -0.247956
C246  C     C_R   0.906443 0.394164 0.393880 -0.046057
C247  C     C_R   0.397263 0.104275 0.600050 -0.237930
C248  C     C_R   0.597519 0.889374 0.402977 -0.234644
C249  C     C_R   0.891462 0.598691 0.402024 -0.226494
C250  C     C_R   0.102241 0.397924 0.601527 -0.278252
C251  C     C_R   0.605558 0.093812 0.394251 -0.042754
C252  C     C_R   0.399119 0.901150 0.605530 -0.214199
C253  C     C_R   0.111354 0.403291 0.403251 -0.238199
C254  C     C_R   0.900490 0.604918 0.602331 -0.240639
C255  C     C_R   0.398068 0.898328 0.397929 -0.269017
C256  C     C_R   0.599773 0.103373 0.602508 -0.243900
C257  C     C_R   0.604013 0.601670 0.901224 -0.263942
C258  C     C_R   0.401541 0.402045 0.108255 -0.225415
C259  C     C_R   0.604320 0.395321 0.096741 -0.042519
C260  C     C_R   0.397125 0.601369 0.899990 -0.267229
C261  C     C_R   0.396478 0.601760 0.101850 -0.238567
C262  C     C_R   0.596638 0.403648 0.888702 -0.259468
C263  C     C_R   0.398080 0.398015 0.898306 -0.280048
C264  C     C_R   0.600858 0.603455 0.101921 -0.234381
H1    H     H_    0.758955 0.322625 0.430423 0.142373
H2    H     H_    0.110453 0.717818 0.724378 0.170524
H3    H     H_    0.738562 0.803767 0.371262 0.169220
H4    H     H_    0.247842 0.171435 0.640570 0.190567
H5    H     H_    0.184239 0.743678 0.366376 0.173200
H6    H     H_    0.803307 0.263633 0.629078 0.172753
H7    H     H_    0.260494 0.194332 0.369138 0.172470
H8    H     H_    0.748246 0.826738 0.644847 0.188595
H9    H     H_    0.831855 0.752627 0.648677 0.193588
H10   H     H_    0.197513 0.263173 0.370197 0.167945
H11   H     H_    0.731883 0.201812 0.632077 0.159618
H12   H     H_    0.255792 0.815810 0.365993 0.175298
H13   H     H_    0.181026 0.253944 0.638368 0.173336
H14   H     H_    0.805570 0.739277 0.370453 0.171389
H15   H     H_    0.290688 0.774998 0.626507 0.158182
H16   H     H_    0.670930 0.243438 0.434677 0.136812
H17   H     H_    0.363367 0.813936 0.256310 0.175650
H18   H     H_    0.637625 0.174416 0.749960 0.194432
H19   H     H_    0.341710 0.654514 0.753123 0.133735
H20   H     H_    0.562890 0.323285 0.242772 0.140639
H21   H     H_    0.365184 0.202390 0.734061 0.155056
H22   H     H_    0.631989 0.805756 0.261367 0.166266
H23   H     H_    0.370701 0.262516 0.193887 0.172909
H24   H     H_    0.716603 0.725945 0.895080 0.177918
H25   H     H_    0.623981 0.783384 0.721939 0.181557
H26   H     H_    0.370310 0.194308 0.262060 0.172497
H27   H     H_    0.637615 0.750275 0.175882 0.191813
H28   H     H_    0.364927 0.257682 0.812099 0.175755
H29   H     H_    0.565100 0.241019 0.324734 0.139643
H30   H     H_    0.326760 0.857700 0.751198 0.192561
H31   H     H_    0.630682 0.264599 0.801212 0.161470
H32   H     H_    0.363607 0.738594 0.195438 0.162261
H33   H     H_    0.254855 0.364928 0.817556 0.175677
H34   H     H_    0.736664 0.634478 0.195234 0.167742
H35   H     H_    0.808169 0.369414 0.739922 0.173928
H36   H     H_    0.181474 0.638369 0.254074 0.172958
H37   H     H_    0.662242 0.437706 0.250015 0.134042
H38   H     H_    0.271177 0.711868 0.878650 0.168362
H39   H     H_    0.197491 0.371313 0.262823 0.168815
H40   H     H_    0.795984 0.630408 0.732217 0.179681
H41   H     H_    0.673503 0.659802 0.762451 0.118288
H42   H     H_    0.261764 0.370633 0.195457 0.170846
H43   H     H_    0.241376 0.668153 0.657895 0.122724
H44   H     H_    0.757561 0.431045 0.324007 0.144757
H45   H     H_    0.248564 0.640387 0.173829 0.187830
H46   H     H_    0.739411 0.371810 0.806114 0.171861
H47   H     H_    0.805182 0.630857 0.262061 0.173171
H48   H     H_    0.185701 0.366002 0.743953 0.171221
N1    N     N_R   0.946030 0.423710 0.543310 -0.118110
N2    N     N_R   0.053970 0.576290 0.456690 -0.131655
N3    N     N_R   0.576290 0.946030 0.543310 -0.131152
N4    N     N_R   0.423710 0.053970 0.456690 -0.121722
N5    N     N_R   0.053970 0.576290 0.543310 -0.122671
N6    N     N_R   0.946030 0.423710 0.456690 -0.132092
N7    N     N_R   0.423710 0.053970 0.543310 -0.132569
N8    N     N_R   0.576290 0.946030 0.456690 -0.118926
N9    N     N_R   0.946030 0.576290 0.456690 -0.118820
N10   N     N_R   0.053970 0.423710 0.543310 -0.132999
N11   N     N_R   0.576290 0.053970 0.456690 -0.132334
N12   N     N_R   0.423710 0.946030 0.543310 -0.128051
N13   N     N_R   0.053970 0.423710 0.456690 -0.117506
N14   N     N_R   0.946030 0.576290 0.543310 -0.132064
N15   N     N_R   0.423710 0.946030 0.456690 -0.133164
N16   N     N_R   0.576290 0.053970 0.543310 -0.121647
N17   N     N_R   0.543310 0.946030 0.423710 -0.118485
N18   N     N_R   0.456690 0.053970 0.576290 -0.121223
N19   N     N_R   0.543310 0.576290 0.946030 -0.125256
N20   N     N_R   0.456690 0.423710 0.053970 -0.118402
N21   N     N_R   0.543310 0.053970 0.576290 -0.131630
N22   N     N_R   0.456690 0.946030 0.423710 -0.133491
N23   N     N_R   0.543310 0.423710 0.053970 -0.130354
N24   N     N_R   0.456690 0.576290 0.946030 -0.130412
N25   N     N_R   0.456690 0.946030 0.576290 -0.132081
N26   N     N_R   0.543310 0.053970 0.423710 -0.132320
N27   N     N_R   0.456690 0.576290 0.053970 -0.125440
N28   N     N_R   0.543310 0.423710 0.946030 -0.117044
N29   N     N_R   0.456690 0.053970 0.423710 -0.118583
N30   N     N_R   0.543310 0.946030 0.576290 -0.122247
N31   N     N_R   0.456690 0.423710 0.946030 -0.133413
N32   N     N_R   0.543310 0.576290 0.053970 -0.127387
N33   N     N_R   0.423710 0.543310 0.946030 -0.123286
N34   N     N_R   0.576290 0.456690 0.053970 -0.128363
N35   N     N_R   0.946030 0.543310 0.576290 -0.132768
N36   N     N_R   0.053970 0.456690 0.423710 -0.117730
N37   N     N_R   0.576290 0.543310 0.053970 -0.123477
N38   N     N_R   0.423710 0.456690 0.946030 -0.131352
N39   N     N_R   0.053970 0.543310 0.423710 -0.133558
N40   N     N_R   0.946030 0.456690 0.576290 -0.121404
N41   N     N_R   0.576290 0.456690 0.946030 -0.120820
N42   N     N_R   0.423710 0.543310 0.053970 -0.130977
N43   N     N_R   0.053970 0.456690 0.576290 -0.131007
N44   N     N_R   0.946030 0.543310 0.423710 -0.117750
N45   N     N_R   0.423710 0.456690 0.053970 -0.119061
N46   N     N_R   0.576290 0.543310 0.946030 -0.130143
N47   N     N_R   0.946030 0.456690 0.423710 -0.132226
N48   N     N_R   0.053970 0.543310 0.576290 -0.125614
Ni1   Ni    Ni4+2 0.000000 0.424390 0.500000 0.352563
Ni2   Ni    Ni4+2 0.000000 0.575610 0.500000 0.338678
Ni3   Ni    Ni4+2 0.575610 0.000000 0.500000 0.351691
Ni4   Ni    Ni4+2 0.424390 0.000000 0.500000 0.347309
Ni5   Ni    Ni4+2 0.500000 0.000000 0.424390 0.351734
Ni6   Ni    Ni4+2 0.500000 0.000000 0.575610 0.349167
Ni7   Ni    Ni4+2 0.500000 0.575610 0.000000 0.329316
Ni8   Ni    Ni4+2 0.500000 0.424390 0.000000 0.355423
Ni9   Ni    Ni4+2 0.424390 0.500000 0.000000 0.340799
Ni10  Ni    Ni4+2 0.575610 0.500000 0.000000 0.341264
Ni11  Ni    Ni4+2 0.000000 0.500000 0.575610 0.337285
Ni12  Ni    Ni4+2 0.000000 0.500000 0.424390 0.352582
Cl1   Cl    Cl    0.736708 0.257845 0.365758 -0.520100
Cl2   Cl    Cl    0.196673 0.798696 0.661947 -0.525417
Cl3   Cl    Cl    0.814462 0.813647 0.315746 -0.450950
Cl4   Cl    Cl    0.177655 0.182532 0.698921 -0.464710
Cl5   Cl    Cl    0.181013 0.818716 0.311538 -0.458530
Cl6   Cl    Cl    0.812216 0.187751 0.681163 -0.458584
Cl7   Cl    Cl    0.186261 0.188505 0.313238 -0.449967
Cl8   Cl    Cl    0.812080 0.819442 0.710977 -0.493233
Cl9   Cl    Cl    0.308995 0.816532 0.182547 -0.472772
Cl10  Cl    Cl    0.691801 0.190850 0.820135 -0.457559
Cl11  Cl    Cl    0.358862 0.768416 0.774772 -0.643568
Cl12  Cl    Cl    0.632964 0.261528 0.261035 -0.517256
Cl13  Cl    Cl    0.313355 0.182985 0.814380 -0.465532
Cl14  Cl    Cl    0.692783 0.820946 0.188196 -0.470541
Cl15  Cl    Cl    0.316090 0.187646 0.186253 -0.454378
Cl16  Cl    Cl    0.656485 0.796377 0.806811 -0.511419
Cl17  Cl    Cl    0.181159 0.310241 0.819202 -0.455083
Cl18  Cl    Cl    0.815220 0.684786 0.187040 -0.468896
Cl19  Cl    Cl    0.814143 0.313918 0.813638 -0.444373
Cl20  Cl    Cl    0.177162 0.698244 0.182451 -0.476006
Cl21  Cl    Cl    0.732349 0.370114 0.257959 -0.526200
Cl22  Cl    Cl    0.204352 0.649752 0.789168 -0.552433
Cl23  Cl    Cl    0.187136 0.315651 0.187220 -0.449806
Cl24  Cl    Cl    0.804822 0.670420 0.814683 -0.518010
Cl25  Cl    Cl    0.932535 0.327409 0.546662 -0.453821
Cl26  Cl    Cl    0.045155 0.670393 0.436916 -0.388322
Cl27  Cl    Cl    0.669492 0.954527 0.563434 -0.407261
Cl28  Cl    Cl    0.327055 0.068335 0.454528 -0.455922
Cl29  Cl    Cl    0.078490 0.673055 0.539863 -0.498815
Cl30  Cl    Cl    0.962038 0.330806 0.439239 -0.402369
Cl31  Cl    Cl    0.330398 0.044085 0.562590 -0.420615
Cl32  Cl    Cl    0.672413 0.926717 0.456223 -0.460271
Cl33  Cl    Cl    0.930748 0.672572 0.455300 -0.457008
Cl34  Cl    Cl    0.047664 0.329231 0.560577 -0.395405
Cl35  Cl    Cl    0.669863 0.038967 0.439184 -0.396505
Cl36  Cl    Cl    0.326279 0.925510 0.544225 -0.456227
Cl37  Cl    Cl    0.074250 0.327938 0.454595 -0.452358
Cl38  Cl    Cl    0.960498 0.668803 0.561690 -0.485596
Cl39  Cl    Cl    0.328762 0.953017 0.439145 -0.393396
Cl40  Cl    Cl    0.673531 0.068021 0.546500 -0.451627
Cl41  Cl    Cl    0.545823 0.926809 0.327511 -0.450168
Cl42  Cl    Cl    0.458564 0.076427 0.672817 -0.483659
Cl43  Cl    Cl    0.544195 0.674254 0.925730 -0.444974
Cl44  Cl    Cl    0.453235 0.327515 0.066742 -0.455964
Cl45  Cl    Cl    0.563850 0.043053 0.669247 -0.404388
Cl46  Cl    Cl    0.439442 0.951330 0.328535 -0.394757
Cl47  Cl    Cl    0.562016 0.331106 0.039269 -0.399927
Cl48  Cl    Cl    0.440367 0.673655 0.945938 -0.421495
Cl49  Cl    Cl    0.437873 0.966417 0.666383 -0.449080
Cl50  Cl    Cl    0.560590 0.038390 0.330458 -0.403075
Cl51  Cl    Cl    0.451282 0.673449 0.063663 -0.467626
Cl52  Cl    Cl    0.546456 0.327977 0.925954 -0.444848
Cl53  Cl    Cl    0.452523 0.066607 0.327121 -0.453810
Cl54  Cl    Cl    0.541835 0.925637 0.672793 -0.470751
Cl55  Cl    Cl    0.440350 0.328669 0.950962 -0.393362
Cl56  Cl    Cl    0.559754 0.670090 0.044427 -0.487694
Cl57  Cl    Cl    0.326931 0.538083 0.920955 -0.514144
Cl58  Cl    Cl    0.671800 0.441406 0.047114 -0.390961
Cl59  Cl    Cl    0.948575 0.558613 0.672736 -0.458923
Cl60  Cl    Cl    0.073508 0.454192 0.327643 -0.449493
Cl61  Cl    Cl    0.673587 0.550681 0.060597 -0.472160
Cl62  Cl    Cl    0.329836 0.436059 0.955768 -0.391022
Cl63  Cl    Cl    0.047288 0.559949 0.328729 -0.396251
Cl64  Cl    Cl    0.934335 0.450880 0.672949 -0.427154
Cl65  Cl    Cl    0.672146 0.440253 0.936519 -0.392479
Cl66  Cl    Cl    0.330195 0.562230 0.042399 -0.484852
Cl67  Cl    Cl    0.048133 0.438143 0.671270 -0.389048
Cl68  Cl    Cl    0.932097 0.547044 0.327160 -0.453918
Cl69  Cl    Cl    0.327193 0.455791 0.069975 -0.455665
Cl70  Cl    Cl    0.675133 0.547027 0.937840 -0.452029
Cl71  Cl    Cl    0.961091 0.439785 0.330225 -0.400881
Cl72  Cl    Cl    0.073786 0.542495 0.674246 -0.489682
C265  C     C_3   0.851869 0.308834 0.437961 -0.701700
H49   H     H_    0.825672 0.281485 0.450020 0.240616
H50   H     H_    0.877689 0.289782 0.413879 0.305886
H51   H     H_    0.869430 0.322399 0.470573 0.244794
C266  C     C_3   0.047690 0.666110 0.672802 -0.605954
H52   H     H_    0.037327 0.655336 0.709764 0.259047
H53   H     H_    0.034318 0.703137 0.666345 0.250660
H54   H     H_    0.029308 0.641976 0.647055 0.264160
C267  C     C_3   0.677932 0.818811 0.442310 -0.958923
H55   H     H_    0.683265 0.779308 0.443610 0.221249
H56   H     H_    0.710608 0.835768 0.457429 0.311008
H57   H     H_    0.645981 0.827175 0.464955 0.231413
C268  C     C_3   0.298949 0.149588 0.565669 -0.827620
H58   H     H_    0.283249 0.185647 0.558658 0.209863
H59   H     H_    0.328457 0.144989 0.539379 0.236163
H60   H     H_    0.270373 0.122713 0.559414 0.322125
C269  C     C_3   0.157843 0.688939 0.436656 -0.790619
H61   H     H_    0.195029 0.701974 0.442739 0.207524
H62   H     H_    0.132519 0.717721 0.448403 0.324831
H63   H     H_    0.154293 0.656955 0.459705 0.223388
C270  C     C_3   0.822664 0.322086 0.559084 -0.971841
H64   H     H_    0.783203 0.316450 0.556771 0.223031
H65   H     H_    0.830385 0.354054 0.537017 0.230838
H66   H     H_    0.840791 0.289570 0.544250 0.312293
C271  C     C_3   0.318173 0.176171 0.440563 -0.943198
H67   H     H_    0.311202 0.215412 0.443132 0.218692
H68   H     H_    0.285981 0.157652 0.454772 0.315317
H69   H     H_    0.350102 0.168997 0.463211 0.227845
C272  C     C_3   0.702617 0.850728 0.567607 -0.815343
H70   H     H_    0.719024 0.815006 0.559782 0.206988
H71   H     H_    0.675094 0.856130 0.539636 0.244005
H72   H     H_    0.731468 0.877848 0.564789 0.320474
C273  C     C_3   0.857061 0.705422 0.571994 -0.794173
H73   H     H_    0.821901 0.723372 0.565165 0.205873
H74   H     H_    0.885533 0.732754 0.567845 0.317661
H75   H     H_    0.860116 0.677225 0.544000 0.241380
C274  C     C_3   0.182659 0.323194 0.441925 -0.952543
H76   H     H_    0.222254 0.317527 0.443155 0.219954
H77   H     H_    0.174713 0.355265 0.464458 0.231169
H78   H     H_    0.165418 0.290852 0.457060 0.313437
C275  C     C_3   0.672288 0.178542 0.564340 -0.985704
H79   H     H_    0.675226 0.218243 0.563268 0.224011
H80   H     H_    0.705234 0.163089 0.547504 0.309783
H81   H     H_    0.639796 0.169567 0.543277 0.230942
C276  C     C_3   0.310394 0.841849 0.436635 -0.838660
H82   H     H_    0.298165 0.804510 0.442615 0.210971
H83   H     H_    0.342227 0.846308 0.459955 0.227981
H84   H     H_    0.280868 0.866474 0.448061 0.325939
C277  C     C_3   0.157052 0.306241 0.565791 -0.858060
H85   H     H_    0.194598 0.293453 0.559778 0.210983
H86   H     H_    0.132518 0.276490 0.556212 0.322150
H87   H     H_    0.152056 0.336748 0.541272 0.233589
C278  C     C_3   0.822965 0.681274 0.441594 -0.941300
H88   H     H_    0.783487 0.687495 0.444050 0.217914
H89   H     H_    0.830956 0.649913 0.464581 0.229769
H90   H     H_    0.840946 0.713812 0.455790 0.311786
C279  C     C_3   0.350292 0.812912 0.563958 -0.965934
H91   H     H_    0.355778 0.773396 0.564263 0.232605
H92   H     H_    0.318160 0.820947 0.541775 0.298804
H93   H     H_    0.382834 0.827910 0.546855 0.223064
C280  C     C_3   0.686801 0.151151 0.443034 -0.710415
H94   H     H_    0.712800 0.178149 0.456486 0.238228
H95   H     H_    0.672551 0.132927 0.474793 0.241488
H96   H     H_    0.707649 0.126260 0.419479 0.307618
C281  C     C_3   0.434880 0.841010 0.308459 -0.860977
H97   H     H_    0.441185 0.803333 0.296523 0.212406
H98   H     H_    0.444954 0.864872 0.278359 0.322191
H99   H     H_    0.458844 0.846472 0.339510 0.229074
C282  C     C_3   0.563827 0.150280 0.699437 -0.808094
H100  H     H_    0.556304 0.186053 0.715854 0.208304
H101  H     H_    0.537872 0.146801 0.669601 0.235889
H102  H     H_    0.557325 0.122886 0.727399 0.324731
C283  C     C_3   0.406594 0.597072 0.796703 -0.975630
H103  H     H_    0.405239 0.599505 0.756853 0.251096
H104  H     H_    0.443043 0.608037 0.808532 0.257233
H105  H     H_    0.400629 0.559092 0.806720 0.243060
C284  C     C_3   0.562164 0.308640 0.149486 -0.694060
H106  H     H_    0.551053 0.280355 0.175098 0.241898
H107  H     H_    0.529626 0.319246 0.129857 0.248562
H108  H     H_    0.589250 0.291797 0.125138 0.304273
C285  C     C_3   0.433563 0.182942 0.671922 -0.961963
H109  H     H_    0.432513 0.222764 0.673586 0.220176
H110  H     H_    0.451640 0.170019 0.704981 0.307704
H111  H     H_    0.455129 0.173279 0.639612 0.232049
C286  C     C_3   0.559756 0.819050 0.321470 -0.948512
H112  H     H_    0.558957 0.779656 0.315247 0.219617
H113  H     H_    0.537096 0.826375 0.353599 0.231608
H114  H     H_    0.544487 0.836601 0.289171 0.313186
C287  C     C_3   0.441129 0.320946 0.176269 -0.972874
H115  H     H_    0.443563 0.314829 0.215645 0.222570
H116  H     H_    0.455466 0.288428 0.157758 0.311818
H117  H     H_    0.463562 0.352711 0.168767 0.232607
C288  C     C_3   0.665105 0.672698 0.956182 -0.600832
H118  H     H_    0.702172 0.667674 0.970166 0.250408
H119  H     H_    0.651908 0.709000 0.966710 0.263248
H120  H     H_    0.641881 0.645906 0.973824 0.262624
C289  C     C_3   0.558874 0.815148 0.662513 -0.906813
H121  H     H_    0.557102 0.775358 0.661600 0.225957
H122  H     H_    0.540087 0.827928 0.695569 0.305598
H123  H     H_    0.539427 0.827714 0.630199 0.220801
C290  C     C_3   0.440401 0.176030 0.321173 -0.974814
H124  H     H_    0.442700 0.215305 0.315193 0.222931
H125  H     H_    0.462654 0.168473 0.353273 0.231807
H126  H     H_    0.455031 0.157674 0.288659 0.312047
C291  C     C_3   0.564576 0.699298 0.151189 -0.820989
H127  H     H_    0.557649 0.714169 0.187806 0.208250
H128  H     H_    0.556812 0.728111 0.124949 0.319415
H129  H     H_    0.539045 0.669400 0.147005 0.234557
C292  C     C_3   0.435654 0.310172 0.839632 -0.865198
H130  H     H_    0.441717 0.298725 0.801683 0.214168
H131  H     H_    0.458992 0.341473 0.845228 0.228930
H132  H     H_    0.446670 0.280131 0.863229 0.322685
C293  C     C_3   0.561520 0.148422 0.308861 -0.701367
H133  H     H_    0.549823 0.174643 0.281254 0.240761
H134  H     H_    0.587094 0.123496 0.290562 0.304709
H135  H     H_    0.528956 0.129828 0.320694 0.246962
C294  C     C_3   0.413055 0.878142 0.718082 -0.652222
H136  H     H_    0.416936 0.848529 0.744305 0.258017
H137  H     H_    0.446534 0.876276 0.696393 0.245250
H138  H     H_    0.409872 0.911888 0.739313 0.297076
C295  C     C_3   0.558674 0.324597 0.816794 -0.955065
H139  H     H_    0.557239 0.318902 0.777223 0.221411
H140  H     H_    0.543600 0.292314 0.834190 0.313301
H141  H     H_    0.536272 0.356736 0.824774 0.231833
C296  C     C_3   0.433502 0.679763 0.173171 -0.935393
H142  H     H_    0.435295 0.685590 0.212717 0.216922
H143  H     H_    0.455664 0.647369 0.165658 0.227457
H144  H     H_    0.449236 0.711639 0.155591 0.311935
C297  C     C_3   0.308343 0.435953 0.843857 -0.771509
H145  H     H_    0.294107 0.442116 0.807083 0.208454
H146  H     H_    0.279854 0.446641 0.869959 0.324487
H147  H     H_    0.339950 0.459644 0.847032 0.226616
C298  C     C_3   0.677557 0.566766 0.173228 -0.974888
H148  H     H_    0.685464 0.565228 0.212364 0.224249
H149  H     H_    0.643475 0.547051 0.168484 0.228363
H150  H     H_    0.708007 0.549395 0.153749 0.317810
C299  C     C_3   0.826027 0.440638 0.683075 -0.910847
H151  H     H_    0.786803 0.443956 0.690408 0.217414
H152  H     H_    0.845376 0.453949 0.715313 0.316329
H153  H     H_    0.833370 0.463468 0.651600 0.233368
C300  C     C_3   0.156581 0.566145 0.305947 -0.857349
H154  H     H_    0.194148 0.560046 0.293326 0.210823
H155  H     H_    0.151666 0.541684 0.336508 0.233332
H156  H     H_    0.132090 0.556672 0.275963 0.321669
C301  C     C_3   0.681108 0.447308 0.158388 -0.728453
H157  H     H_    0.704073 0.463317 0.186841 0.236394
H158  H     H_    0.705185 0.423914 0.136416 0.313130
H159  H     H_    0.666813 0.477328 0.137370 0.233875
C302  C     C_3   0.319482 0.663424 0.946078 -0.599653
H160  H     H_    0.324779 0.700829 0.958878 0.249070
H161  H     H_    0.281935 0.652669 0.954114 0.256408
H162  H     H_    0.343781 0.639714 0.966794 0.269306
C303  C     C_3   0.182170 0.442383 0.323407 -0.951945
H163  H     H_    0.221744 0.443763 0.317869 0.220154
H164  H     H_    0.164757 0.457599 0.290993 0.313420
H165  H     H_    0.174079 0.464678 0.355650 0.230603
C304  C     C_3   0.830970 0.563956 0.675906 -0.910057
H166  H     H_    0.792716 0.558612 0.686186 0.227439
H167  H     H_    0.835476 0.545398 0.640810 0.212609
H168  H     H_    0.853832 0.547151 0.703819 0.322045
C305  C     C_3   0.612378 0.594232 0.797912 -0.992574
H169  H     H_    0.619314 0.596579 0.758617 0.248988
H170  H     H_    0.622262 0.557479 0.809665 0.248477
H171  H     H_    0.573308 0.600354 0.804184 0.253572
C306  C     C_3   0.319948 0.441388 0.177909 -0.943749
H172  H     H_    0.313862 0.443632 0.217397 0.218320
H173  H     H_    0.351752 0.463820 0.170294 0.229195
H174  H     H_    0.287403 0.456023 0.160030 0.313924
C307  C     C_3   0.203924 0.605199 0.594490 -0.997586
H175  H     H_    0.243399 0.610787 0.596484 0.250324
H176  H     H_    0.196766 0.566792 0.601733 0.248621
H177  H     H_    0.192061 0.613876 0.557426 0.252314
C308  C     C_3   0.850280 0.439486 0.309548 -0.706946
H178  H     H_    0.823553 0.452222 0.282769 0.241377
H179  H     H_    0.868000 0.471605 0.323747 0.242944
H180  H     H_    0.875880 0.415949 0.289540 0.306754
C309  C     C_3   0.300537 0.566947 0.149605 -0.821545
H181  H     H_    0.285114 0.560197 0.185855 0.208669
H182  H     H_    0.272095 0.559568 0.122697 0.321336
H183  H     H_    0.330734 0.541267 0.145701 0.235736
C310  C     C_3   0.681734 0.444271 0.826425 -0.847711
H184  H     H_    0.689989 0.449474 0.787687 0.209677
H185  H     H_    0.650591 0.467964 0.834975 0.223534
H186  H     H_    0.713640 0.455624 0.847399 0.317786
C311  C     C_3   0.822448 0.560319 0.320846 -0.971442
H187  H     H_    0.783070 0.558567 0.314346 0.223292
H188  H     H_    0.840965 0.545421 0.288546 0.313561
H189  H     H_    0.829453 0.538160 0.353031 0.230801
C312  C     C_3   0.160191 0.436535 0.688720 -0.790671
H190  H     H_    0.197868 0.442045 0.700689 0.208526
H191  H     H_    0.155585 0.459724 0.656891 0.223177
H192  H     H_    0.135967 0.448480 0.718366 0.322225

loop_
_geom_bond_atom_site_label_1
_geom_bond_atom_site_label_2
_ccdc_geom_bond_type
N1    Ni1   S    
C294  H137  S    
C135  C226  A    
C77   C244  A    
C292  H130  S    
C96   C245  A    
C28   Cl4   S    
N44   Ni12  S    
C78   Cl54  S    
C34   Cl10  S    
C125  C232  A    
C152  C272  S    
C53   Cl29  S    
C163  C209  A    
N6    Ni1   S    
C271  H67   S    
C288  H120  S    
N15   Ni4   S    
C56   C248  A    
C102  C222  A    
C186  C306  S    
N28   N41   A    
C139  H43   S    
C157  C277  S    
C216  C261  S    
C310  H184  S    
N29   Ni5   S    
C311  H188  S    
C95   C246  A    
C20   C40   A    
C139  C187  A    
C147  C267  S    
C94   C257  A    
C212  C257  S    
C290  H126  S    
C23   C43   A    
C152  C200  A    
C268  H58   S    
C90   C261  A    
C274  H77   S    
C99   C147  A    
C110  C230  A    
C103  C223  A    
C114  C227  A    
C160  C280  S    
C114  H18   S    
C65   Cl41  S    
C164  C210  A    
C266  H53   S    
N40   Ni11  S    
C146  C194  A    
C107  H11   S    
C207  C252  S    
N4    Ni4   S    
C73   C252  A    
C269  H62   S    
C307  H176  S    
C186  C211  A    
C75   N27   A    
C138  C235  A    
C85   N37   A    
C172  C214  A    
C33   Cl9   S    
C199  C244  S    
C153  C201  A    
C142  C239  A    
C197  C242  S    
C213  C264  S    
C132  C221  A    
C30   Cl6   S    
C214  C263  S    
C157  C205  A    
C60   N12   A    
C85   Cl61  S    
N14   Ni2   S    
C88   C241  A    
C281  H98   S    
C296  H144  S    
C108  C228  A    
C91   N43   A    
C210  C259  S    
C293  H133  S    
C135  H39   S    
C272  H72   S    
C191  C206  A    
C93   Cl69  S    
N10   N43   A    
C267  H57   S    
C282  H101  S    
C88   N40   A    
N16   N21   A    
C189  C216  A    
C91   Cl67  S    
C70   N22   A    
C7    C223  S    
C124  C172  A    
N16   Ni3   S    
C298  H150  S    
C2    C26   A    
C300  H154  S    
C166  C195  A    
N5    Ni2   S    
C312  H190  S    
C169  C200  A    
C169  C289  S    
C38   Cl14  S    
C97   H1    S    
C6    C30   A    
C69   Cl45  S    
C24   C240  S    
C98   C218  A    
C268  H60   S    
C57   C249  A    
C18   C45   A    
C119  C167  A    
N9    Ni2   S    
C120  C168  A    
N8    Ni3   S    
C127  H31   S    
N6    N47   A    
C293  H135  S    
C79   Cl55  S    
C16   C25   A    
C128  H32   S    
C76   C262  A    
N32   N37   A    
C61   C253  A    
C112  C160  A    
C178  C213  A    
C138  C186  A    
C97   C145  A    
C58   N10   A    
C188  C308  S    
C124  H28   S    
C49   Cl25  S    
C49   C241  A    
N4    N29   A    
C18   C234  S    
C159  C207  A    
C289  H123  S    
C84   N36   A    
C308  H178  S    
N19   Ni7   S    
C78   C243  A    
C62   N14   A    
C54   Cl30  S    
C115  H19   S    
C78   N30   A    
C126  C231  A    
C272  H70   S    
C81   N33   A    
C291  H128  S    
C309  H181  S    
C113  C228  A    
C296  H143  S    
C104  C152  A    
C283  H103  S    
C74   N26   A    
C129  H33   S    
C118  C166  A    
C148  C268  S    
C88   Cl64  S    
C131  C222  A    
C133  C234  A    
C143  C230  A    
C115  C163  A    
C265  H49   S    
C191  C311  S    
N3    Ni3   S    
C189  C309  S    
C14   C230  S    
C114  C162  A    
C113  C161  A    
C192  C312  S    
C279  H92   S    
C9    C48   A    
C273  H74   S    
C10   C47   A    
C2    C218  S    
C7    C39   A    
C54   N6    A    
N2    Ni2   S    
C304  H166  S    
C268  H59   S    
N15   N22   A    
C107  C155  A    
C126  H30   S    
C158  C278  S    
C84   Cl60  S    
C21   C237  S    
C75   C261  A    
C153  C273  S    
C305  H169  S    
C12   C29   A    
C299  H153  S    
C111  C231  A    
C192  C205  A    
C139  C218  A    
C135  C183  A    
C156  C276  S    
C175  C295  S    
C109  C157  A    
C270  H66   S    
C45   Cl21  S    
C74   C251  A    
C72   Cl48  S    
C295  H139  S    
C146  C266  S    
C43   Cl19  S    
C275  H79   S    
C305  H170  S    
C130  H34   S    
C12   C33   A    
C19   C47   A    
C51   N3    A    
C71   C259  A    
C201  C254  S    
C187  C307  S    
N31   N38   A    
C74   Cl50  S    
C92   N44   A    
C297  H146  S    
C61   N13   A    
C32   Cl8   S    
C312  H192  S    
C205  C250  S    
C145  C265  S    
C21   C38   A    
C57   N9    A    
C25   Cl1   S    
N19   N46   A    
C193  C246  S    
C27   Cl3   S    
C190  C215  A    
C82   N34   A    
C276  H82   S    
C285  H109  S    
C215  C262  S    
C299  H151  S    
C134  C182  A    
C155  C203  A    
C71   N23   A    
C170  C199  A    
C302  H161  S    
C286  H112  S    
C105  C153  A    
C308  H180  S    
N33   Ni9   S    
C280  H95   S    
C118  H22   S    
C83   C254  A    
C77   Cl53  S    
C309  H183  S    
C47   Cl23  S    
C75   Cl51  S    
N31   Ni8   S    
C100  H4    S    
C4    C220  S    
C308  H179  S    
C101  H5    S    
C110  C158  A    
C21   C42   A    
C181  C210  A    
C278  H89   S    
C103  H7    S    
C265  H51   S    
C112  H16   S    
C289  H121  S    
C83   Cl59  S    
C160  C208  A    
C124  C238  A    
C96   Cl72  S    
N20   Ni8   S    
C23   C34   A    
C161  C281  S    
C274  H76   S    
C170  C290  S    
C304  H168  S    
C284  H107  S    
C52   Cl28  S    
C19   C39   A    
C132  C180  A    
C133  C181  A    
C140  H44   S    
C65   C248  A    
C188  C193  A    
C305  H171  S    
C141  H45   S    
C59   C251  A    
C168  C288  S    
C277  H87   S    
C117  H21   S    
C86   Cl62  S    
C306  H174  S    
C137  H41   S    
C119  H23   S    
C269  H63   S    
N20   N45   A    
C120  H24   S    
N45   Ni9   S    
C143  C191  A    
C184  C201  A    
C179  C299  S    
C15   C231  S    
C133  H37   S    
C51   C243  A    
C90   Cl66  S    
C162  C282  S    
C143  H47   S    
N18   Ni6   S    
C109  H13   S    
C144  H48   S    
C72   C260  A    
C179  C198  A    
C272  H71   S    
C8    C40   A    
C46   Cl22  S    
C105  H9    S    
C3    C27   A    
C40   Cl16  S    
N3    N30   A    
C1    C45   A    
C311  H187  S    
C16   C36   A    
N11   Ni3   S    
C98   H2    S    
C70   Cl46  S    
C290  H125  S    
C121  C224  A    
C126  C174  A    
C173  C208  A    
C171  C291  S    
N21   Ni6   S    
C58   C250  A    
C31   Cl7   S    
C138  H42   S    
C150  C270  S    
C140  C217  A    
N25   Ni6   S    
C100  C220  A    
N11   N26   A    
C11   C227  S    
C294  H136  S    
C279  H93   S    
C93   N45   A    
C84   C253  A    
C9    C225  S    
N12   Ni4   S    
C310  H185  S    
C287  H115  S    
C104  C224  A    
C62   Cl38  S    
C69   C256  A    
C89   N41   A    
C123  C237  A    
C156  C204  A    
C56   Cl32  S    
C136  C225  A    
C130  C237  A    
C127  C239  A    
C307  H175  S    
C301  H159  S    
C79   C263  A    
C161  C204  A    
C55   Cl31  S    
C284  H108  S    
C80   C264  A    
C163  C283  S    
C13   C41   A    
C65   N17   A    
C185  C305  S    
C35   Cl11  S    
N28   Ni8   S    
N12   N25   A    
N30   Ni6   S    
C275  H81   S    
C60   Cl36  S    
C281  H97   S    
C12   C228  S    
C22   C41   A    
C182  C302  S    
C142  C190  A    
C66   Cl42  S    
C286  H114  S    
C180  C300  S    
C267  H56   S    
C111  C159  A    
C172  C292  S    
C130  C178  A    
C9    C32   A    
N32   Ni7   S    
C109  C229  A    
C10   C31   A    
C105  C225  A    
C11   C30   A    
C117  C165  A    
C298  H149  S    
N27   N42   A    
C122  H26   S    
N8    N17   A    
C13   C28   A    
C76   Cl52  S    
C51   Cl27  S    
C14   C27   A    
N13   N36   A    
C132  H36   S    
C64   Cl40  S    
C20   C236  S    
C145  C193  A    
C8    C224  S    
C103  C151  A    
C42   Cl18  S    
C301  H158  S    
C63   Cl39  S    
C61   Cl37  S    
C198  C241  S    
C277  H85   S    
C292  H131  S    
C131  H35   S    
C184  C304  S    
C154  C202  A    
C306  H172  S    
C137  C185  A    
C66   C247  A    
C271  H68   S    
C303  H165  S    
C127  C175  A    
C128  C176  A    
C87   Cl63  S    
C158  C206  A    
N26   Ni5   S    
N5    N48   A    
C141  C189  A    
C94   N46   A    
C311  H189  S    
N13   Ni1   S    
C142  H46   S    
C87   C242  A    
C67   Cl43  S    
C144  C192  A    
C269  H61   S    
C22   C37   A    
C129  C177  A    
C90   N42   A    
C58   Cl34  S    
C87   N39   A    
C175  C215  A    
C104  H8    S    
C273  H73   S    
N46   Ni10  S    
C173  C293  S    
C23   C239  S    
C144  C229  A    
C69   N21   A    
C108  C156  A    
C294  H138  S    
C136  C184  A    
C79   N31   A    
C137  C236  A    
N36   Ni12  S    
C67   C257  A    
C71   Cl47  S    
C102  C150  A    
N7    N18   A    
C5    C44   A    
C99   C219  A    
C141  C240  A    
C122  C223  A    
C196  C247  S    
C174  C207  A    
C24   C44   A    
C97   C217  A    
C116  H20   S    
C288  H119  S    
C85   C264  A    
C165  C196  A    
C86   C263  A    
C115  C233  A    
C295  H141  S    
C283  H104  S    
C203  C256  S    
C101  C221  A    
C159  C279  S    
C81   C260  A    
C52   N4    A    
C59   N11   A    
C82   C259  A    
C183  C202  A    
C53   N5    A    
C177  C214  A    
C82   Cl58  S    
C108  H12   S    
C19   C235  S    
C70   C255  A    
C281  H99   S    
C136  H40   S    
C17   C233  S    
C128  C240  A    
C195  C248  S    
C303  H164  S    
C24   C33   A    
C112  C232  A    
C162  C203  A    
C282  H102  S    
C52   C244  A    
N47   Ni12  S    
C77   N29   A    
C68   Cl44  S    
C286  H113  S    
C64   N16   A    
C174  C294  S    
C111  H15   S    
C36   Cl12  S    
C291  H129  S    
C73   N25   A    
C194  C245  S    
C95   N47   A    
N37   Ni10  S    
C54   C246  A    
C312  H191  S    
C154  C274  S    
C13   C229  S    
C93   C258  A    
C171  C213  A    
C67   N19   A    
C4    C37   A    
C211  C258  S    
C3    C219  S    
C92   Cl68  S    
C287  H117  S    
C187  C194  A    
C1    C217  S    
C89   C262  A    
C17   C35   A    
C122  C170  A    
N41   Ni10  S    
C18   C36   A    
C150  C198  A    
C123  C171  A    
C113  H17   S    
C22   C238  S    
C89   Cl65  S    
C5    C221  S    
C166  C286  S    
C129  C238  A    
C297  H147  S    
C168  C212  A    
N14   N35   A    
C106  H10   S    
C125  C173  A    
C302  H160  S    
C270  H64   S    
C57   Cl33  S    
C276  H83   S    
C277  H86   S    
C92   C249  A    
C2    C46   A    
C110  H14   S    
C99   H3    S    
C280  H94   S    
C291  H127  S    
N23   Ni8   S    
C117  C220  A    
C6    C222  S    
C300  H156  S    
C63   N15   A    
C278  H88   S    
C273  H75   S    
C96   N48   A    
N43   Ni11  S    
C202  C253  S    
C177  C297  S    
C121  C169  A    
C80   Cl56  S    
C190  C310  S    
C265  H50   S    
C282  H100  S    
N24   N33   A    
C299  H152  S    
C206  C249  S    
C15   C26   A    
C49   N1    A    
C180  C197  A    
C270  H65   S    
C148  C196  A    
C63   C255  A    
C94   Cl70  S    
C3    C38   A    
N35   Ni11  S    
N23   N34   A    
N1    N40   A    
C183  C303  S    
C181  C301  S    
C176  C216  A    
C147  C195  A    
C283  H105  S    
C304  H167  S    
C106  C154  A    
C284  H106  S    
C14   C42   A    
C310  H186  S    
C266  H54   S    
N34   Ni10  S    
C80   N32   A    
C55   C247  A    
C1    C25   A    
C123  H27   S    
C151  C199  A    
C267  H55   S    
C39   Cl15  S    
C102  H6    S    
C15   C35   A    
C4    C28   A    
N38   Ni9   S    
C37   Cl13  S    
C293  H134  S    
C5    C29   A    
C295  H140  S    
C309  H182  S    
C7    C31   A    
C106  C226  A    
C8    C32   A    
C26   Cl2   S    
C91   C250  A    
C17   C46   A    
C151  C271  S    
C204  C255  S    
C131  C179  A    
N42   Ni9   S    
C98   C146  A    
C288  H118  S    
C274  H78   S    
C16   C232  S    
C182  C209  A    
C301  H157  S    
C50   Cl26  S    
C107  C227  A    
C29   Cl5   S    
C208  C251  S    
C44   Cl20  S    
N2    N39   A    
C303  H163  S    
N48   Ni11  S    
N7    Ni4   S    
N39   Ni12  S    
C76   N28   A    
C41   Cl17  S    
C290  H124  S    
C185  C212  A    
C95   Cl71  S    
C20   C48   A    
C200  C243  S    
C165  C285  S    
C266  H52   S    
C59   Cl35  S    
C285  H110  S    
N27   Ni7   S    
C285  H111  S    
C68   N20   A    
C116  C234  A    
C66   N18   A    
C86   N38   A    
C302  H162  S    
C83   N35   A    
C60   C252  A    
C164  C284  S    
C119  C235  A    
C62   C254  A    
C280  H96   S    
C116  C164  A    
C11   C34   A    
N9    N44   A    
C292  H132  S    
C50   C242  A    
C55   N7    A    
C125  H29   S    
C56   N8    A    
N17   Ni5   S    
C307  H177  S    
C134  H38   S    
C167  C287  S    
C6    C43   A    
C278  H90   S    
C121  H25   S    
C287  H116  S    
C306  H173  S    
C167  C211  A    
C176  C296  S    
C275  H80   S    
C120  C236  A    
C68   C258  A    
C296  H142  S    
C300  H155  S    
C100  C148  A    
N24   Ni7   S    
C101  C149  A    
C140  C188  A    
C178  C298  S    
C134  C233  A    
C155  C275  S    
N22   Ni5   S    
C297  H145  S    
C276  H84   S    
C53   C245  A    
C271  H69   S    
C48   Cl24  S    
C50   N2    A    
C289  H122  S    
C73   Cl49  S    
C298  H148  S    
C72   N24   A    
C149  C269  S    
C118  C219  A    
C10   C226  S    
C209  C260  S    
N10   Ni1   S    
C279  H91   S    
C149  C197  A    
C64   C256  A    
C81   Cl57  S    
