data_mof_unit_26483.cif
_audit_creation_date              2012-10-26T19:51:27-0400
_audit_creation_method            fapswitch 2.2
_symmetry_space_group_name_H-M    P1
_symmetry_Int_Tables_number       1
_space_group_crystal_system       triclinic
_cell_length_a                    19.344164
_cell_length_b                    18.392945
_cell_length_c                    9.035223
_cell_angle_alpha                 89.732599
_cell_angle_beta                  94.400758
_cell_angle_gamma                 90.061803
_cell_volume                      3205.18399152

loop_
_atom_site_label
_atom_site_type_symbol
_atom_type_description
_atom_site_fract_x
_atom_site_fract_y
_atom_site_fract_z
_atom_type_partial_charge
C1    C     C_R   0.368063 0.499951 0.499778 0.532978
C2    C     C_R   0.462177 0.198815 0.391969 -0.136911
C3    C     C_R   0.497849 0.839443 0.506340 -0.013455
C4    C     C_R   0.499183 0.159449 0.502204 -0.011339
C5    C     C_R   0.559750 0.961247 0.539053 -0.109775
C6    C     C_R   0.436931 0.038197 0.471041 -0.110055
C7    C     C_R   0.436467 0.961691 0.473221 -0.111021
C8    C     C_R   0.560047 0.037727 0.538229 -0.110357
C9    C     C_R   0.498703 0.077496 0.503744 0.029671
C10   C     C_R   0.497930 0.921668 0.506801 0.029251
C11   C     C_R   0.499785 0.500119 0.220831 0.542930
C12   C     C_R   0.631928 0.500030 0.500274 0.531269
C13   C     C_R   0.500255 0.499911 0.779177 0.543456
C14   C     C_1   0.499931 0.500170 0.065649 -0.085881
C15   C     C_1   0.500089 0.499876 0.934357 -0.084227
C16   C     C_R   0.738546 0.468547 0.383362 -0.131332
C17   C     C_R   0.252884 0.530522 0.381291 -0.146203
C18   C     C_R   0.261721 0.467920 0.618079 -0.129443
C19   C     C_R   0.746835 0.530669 0.619519 -0.147337
C20   C     C_R   0.810721 0.469716 0.379662 0.038279
C21   C     C_R   0.180407 0.528479 0.376999 0.036807
C22   C     C_R   0.189581 0.469038 0.622637 0.039215
C23   C     C_R   0.456228 0.723392 0.400262 0.158692
C24   C     C_R   0.819328 0.528716 0.624685 0.037257
C25   C     C_R   0.851784 0.499090 0.502432 -0.032574
C26   C     C_R   0.148251 0.498688 0.500080 -0.032366
C27   C     C_R   0.707002 0.499934 0.500908 -0.036046
C28   C     C_R   0.292993 0.499642 0.499846 -0.035446
C29   C     C_R   0.964165 0.564924 0.500954 -0.028839
C30   C     C_R   0.035846 0.432775 0.501192 -0.033487
C31   C     C_R   0.036165 0.564819 0.501652 -0.028920
C32   C     C_R   0.963962 0.432879 0.503631 -0.033540
C33   C     C_R   0.072206 0.498747 0.500905 0.102475
C34   C     C_R   0.534836 0.275832 0.615703 0.147478
C35   C     C_R   0.927860 0.498956 0.502636 0.102735
C36   C     C_2   0.840983 0.442207 0.243874 0.571321
C37   C     C_2   0.140273 0.555543 0.240433 0.572218
C38   C     C_2   0.159638 0.441216 0.759070 0.571758
C39   C     C_2   0.859118 0.555719 0.761290 0.572266
C40   C     C_3   0.408404 0.689477 0.278375 -0.209727
C41   C     C_3   0.436791 0.695549 0.124326 -0.301219
C42   C     C_3   0.425790 0.770223 0.051118 -0.449332
C43   C     C_3   0.568611 0.306131 0.761878 -0.205319
C44   C     C_3   0.637366 0.347117 0.748867 -0.277317
C45   C     C_R   0.543149 0.722400 0.602165 0.146750
C46   C     C_3   0.690986 0.330139 0.877554 -0.445546
C47   C     C_3   0.595282 0.687559 0.715195 -0.218732
C48   C     C_3   0.576168 0.699052 0.874947 -0.330633
C49   C     C_3   0.628937 0.662691 0.986140 -0.438105
C50   C     C_3   0.431262 0.306352 0.238603 -0.205610
C51   C     C_3   0.362665 0.347489 0.251105 -0.277783
C52   C     C_3   0.309179 0.331172 0.122077 -0.443898
C53   C     C_R   0.464846 0.275929 0.385292 0.147401
C54   C     C_R   0.453714 0.800157 0.407121 -0.124643
C55   C     C_R   0.536709 0.198714 0.611104 -0.136941
C56   C     C_R   0.542777 0.799347 0.603135 -0.132723
Cu1   Cu    Cu3+1 0.500000 0.573360 0.500000 0.907841
Cu2   Cu    Cu3+1 0.500000 0.426640 0.500000 0.912497
H1    H     H_    0.706329 0.445905 0.291300 0.146163
H2    H     H_    0.565072 0.168031 0.698612 0.095877
H3    H     H_    0.577579 0.827999 0.682396 0.096289
H4    H     H_    0.433468 0.168217 0.305332 0.095953
H5    H     H_    0.608549 0.933212 0.562351 0.105683
H6    H     H_    0.388472 0.066726 0.446104 0.108022
H7    H     H_    0.387445 0.934003 0.450517 0.104801
H8    H     H_    0.608813 0.065855 0.561941 0.107830
H9    H     H_    0.916864 0.449040 0.102982 0.358131
H10   H     H_    0.054011 0.548533 0.100532 0.352453
H11   H     H_    0.084343 0.447970 0.901245 0.357936
H12   H     H_    0.278451 0.553449 0.289054 0.133755
H13   H     H_    0.945206 0.549029 0.901868 0.352231
H14   H     H_    0.372027 0.789736 0.060833 0.162542
H15   H     H_    0.463459 0.810173 0.101696 0.153102
H16   H     H_    0.434413 0.766472 0.931321 0.147549
H17   H     H_    0.492825 0.682253 0.133198 0.183401
H18   H     H_    0.409932 0.654550 0.050231 0.158973
H19   H     H_    0.398593 0.632039 0.297700 0.189633
H20   H     H_    0.356216 0.714959 0.276530 0.120380
H21   H     H_    0.670030 0.343857 0.985090 0.172691
H22   H     H_    0.705234 0.271650 0.877358 0.159774
H23   H     H_    0.294127 0.445093 0.710026 0.146522
H24   H     H_    0.738477 0.362976 0.865540 0.187346
H25   H     H_    0.660244 0.332902 0.643599 0.185339
H26   H     H_    0.627820 0.406357 0.752899 0.189239
H27   H     H_    0.531454 0.335481 0.825994 0.157420
H28   H     H_    0.580232 0.260470 0.841064 0.097915
H29   H     H_    0.681597 0.685040 0.974192 0.182794
H30   H     H_    0.614998 0.673018 0.101053 0.155948
H31   H     H_    0.629630 0.603003 0.967995 0.157782
H32   H     H_    0.574027 0.757918 0.901009 0.154439
H33   H     H_    0.524343 0.674956 0.887085 0.187040
H34   H     H_    0.721029 0.553391 0.711173 0.131690
H35   H     H_    0.601476 0.629404 0.701162 0.209234
H36   H     H_    0.647229 0.711624 0.701738 0.123979
H37   H     H_    0.330379 0.345277 0.014712 0.173243
H38   H     H_    0.294674 0.272720 0.122236 0.160015
H39   H     H_    0.261796 0.364075 0.133707 0.188375
H40   H     H_    0.339560 0.332911 0.356214 0.184604
H41   H     H_    0.372455 0.406721 0.247186 0.190482
H42   H     H_    0.468544 0.335741 0.174164 0.157666
H43   H     H_    0.419502 0.260716 0.160244 0.098063
H44   H     H_    0.936664 0.616215 0.499829 0.112082
H45   H     H_    0.063274 0.381484 0.500379 0.108743
H46   H     H_    0.063864 0.616034 0.501778 0.112707
H47   H     H_    0.936319 0.381667 0.505137 0.108642
H48   H     H_    0.417806 0.829490 0.331062 0.101319
N1    N     N_R   0.500000 0.683620 0.500000 -0.212176
N2    N     N_R   0.500000 0.316380 0.500000 -0.196223
O1    O     O_R   0.400190 0.561980 0.499980 -0.506799
O2    O     O_R   0.901929 0.472525 0.196667 -0.675274
O3    O     O_2   0.164701 0.603089 0.164898 -0.514312
O4    O     O_R   0.075730 0.525420 0.194991 -0.686952
O5    O     O_2   0.189220 0.392739 0.832201 -0.542735
O6    O     O_R   0.099060 0.471645 0.807092 -0.674604
O7    O     O_2   0.834336 0.602923 0.836135 -0.520981
O8    O     O_R   0.923730 0.525935 0.807569 -0.686776
O9    O     O_R   0.599810 0.438020 0.500020 -0.504119
O10   O     O_R   0.599810 0.561980 0.500020 -0.511972
O11   O     O_R   0.400190 0.438020 0.499980 -0.504788
O12   O     O_R   0.500000 0.561940 0.288400 -0.510478
O13   O     O_R   0.500000 0.438060 0.711600 -0.509692
O14   O     O_R   0.500000 0.561940 0.711600 -0.505906
O15   O     O_R   0.500000 0.438060 0.288400 -0.508700
O16   O     O_2   0.811348 0.394106 0.170517 -0.541767

loop_
_geom_bond_atom_site_label_1
_geom_bond_atom_site_label_2
_ccdc_geom_bond_type
C7    C10   A    
C30   C32   A    
C21   C26   A    
C8    H8    S    
C41   C42   S    
C49   H29   S    
C44   H25   S    
C24   C39   S    
C6    C9    A    
Cu2   O15   S    
C36   O16   D    
C1    O11   A    
C46   H21   S    
C38   O6    S    
C11   C14   S    
C7    H7    S    
C20   C25   A    
C23   C40   S    
C22   C38   S    
C52   H39   S    
C18   H23   S    
C5    H5    S    
C52   H37   S    
H10   O4    S    
C6    H6    S    
C37   O4    S    
C19   H34   S    
H9    O2    S    
C1    O1    A    
Cu1   O14   S    
C46   H24   S    
Cu1   O1    S    
C45   C56   A    
C8    C9    A    
Cu2   O13   S    
C48   H33   S    
C30   H45   S    
C29   H44   S    
C1    C28   S    
C31   C33   A    
C19   C27   A    
C51   H40   S    
C34   C55   A    
C48   H32   S    
C55   H2    S    
C43   H28   S    
C49   H30   S    
C11   O12   A    
C44   C46   S    
C45   C47   S    
C51   H41   S    
H11   O6    S    
C42   H16   S    
C50   C53   S    
C54   H48   S    
C12   C27   S    
C51   C52   S    
C43   H27   S    
C32   C35   A    
C18   C28   A    
C24   C25   A    
C38   O5    D    
Cu2   O9    S    
C17   C21   A    
C16   H1    S    
C2    C4    A    
C43   C44   S    
C41   H17   S    
C13   O13   A    
C3    C56   A    
C26   C33   S    
C47   C48   S    
C16   C20   A    
C23   N1    A    
C42   H14   S    
C50   C51   S    
C47   H35   S    
C25   C35   S    
Cu1   O12   S    
C12   O10   A    
C40   C41   S    
Cu1   N1    S    
C39   O7    D    
C32   H47   S    
C13   C15   S    
C4    C55   A    
C36   O2    S    
C40   H20   S    
C23   C54   A    
C48   C49   S    
C42   H15   S    
C30   C33   A    
C14   C15   T    
C17   C28   A    
C11   O15   A    
C34   C43   S    
C49   H31   S    
C44   H26   S    
C2    C53   A    
C5    C8    A    
C6    C7    A    
C29   C35   A    
C50   H42   S    
C34   N2    A    
C31   H46   S    
C18   C22   A    
C19   C24   A    
C5    C10   A    
C29   C31   A    
C3    C10   S    
C41   H18   S    
C46   H22   S    
C13   O14   A    
C53   N2    A    
Cu1   Cu2   S    
C16   C27   A    
Cu2   O11   S    
C3    C54   A    
C47   H36   S    
H13   O8    S    
C52   H38   S    
Cu2   N2    S    
C40   H19   S    
C37   O3    D    
C12   O9    A    
C20   C36   S    
C2    H4    S    
C17   H12   S    
C21   C37   S    
C50   H43   S    
C39   O8    S    
C22   C26   A    
C56   H3    S    
C4    C9    S    
C45   N1    A    
Cu1   O10   S    
