data_mof_unit_15351.cif
_audit_creation_date              2012-12-11T15:41:23-0500
_audit_creation_method            fapswitch 2.2
_symmetry_space_group_name_H-M    P1
_symmetry_Int_Tables_number       1
_space_group_crystal_system       triclinic
_cell_length_a                    14.873899
_cell_length_b                    14.988886
_cell_length_c                    14.907362
_cell_angle_alpha                 109.320209
_cell_angle_beta                  109.694764
_cell_angle_gamma                 109.880219
_cell_volume                      2543.06256844

loop_
_atom_site_label
_atom_site_type_symbol
_atom_type_description
_atom_site_fract_x
_atom_site_fract_y
_atom_site_fract_z
_atom_type_partial_charge
C1    C     C_R   0.248693 0.063105 0.973331 -0.101015
C2    C     C_R   0.829480 0.886044 0.406647 -0.150751
C3    C     C_R   0.287935 0.310255 0.777540 -0.095544
C4    C     C_R   0.726601 0.790155 0.329587 -0.130402
C5    C     C_R   0.291674 0.339455 0.879038 0.115832
C6    C     C_R   0.712090 0.714022 0.232616 0.080330
C7    C     C_R   0.193220 0.291031 0.880297 -0.210037
C8    C     C_R   0.801618 0.735094 0.213930 -0.194729
C9    C     C_R   0.092811 0.210125 0.781356 0.247869
C10   C     C_R   0.904701 0.831573 0.290408 0.268286
C11   C     C_R   0.090732 0.182175 0.680791 -0.132032
C12   C     C_R   0.803669 0.002815 0.095171 -0.115874
C13   C     C_R   0.918158 0.907083 0.387128 -0.116137
C14   C     C_R   0.404088 0.518678 0.047758 -0.203951
C15   C     C_R   0.596869 0.514188 0.103580 -0.172447
C16   C     C_R   0.750240 0.221715 0.315384 -0.091497
C17   C     C_R   0.196057 0.790459 0.697924 -0.108197
C18   C     C_R   0.503780 0.617547 0.103851 0.033382
C19   C     C_R   0.497574 0.420080 0.012156 0.079200
C20   C     C_R   0.602472 0.614917 0.147243 0.041309
C21   C     C_R   0.398236 0.423555 0.983082 0.017409
C22   C     C_R   0.856929 0.525771 0.430420 -0.234339
C23   C     C_R   0.771102 0.323984 0.327852 0.046516
C24   C     C_R   0.956351 0.527782 0.626168 -0.210814
C25   C     C_R   0.945986 0.624046 0.524328 -0.052457
C26   C     C_R   0.860165 0.432526 0.535156 -0.071411
C27   C     C_R   0.007420 0.620205 0.617617 0.053310
C28   C     C_R   0.823527 0.427181 0.431953 0.075152
C29   C     C_R   0.606216 0.962588 0.577141 -0.169494
C30   C     C_R   0.407436 0.835379 0.376624 -0.168271
C31   C     C_R   0.606620 0.956518 0.483230 -0.180337
C32   C     C_R   0.406925 0.840932 0.471195 -0.162963
C33   C     C_R   0.505836 0.902668 0.385141 0.136219
C34   C     C_R   0.127192 0.700471 0.697310 0.058432
C35   C     C_R   0.505327 0.913262 0.573415 0.150061
C36   C     C_R   0.125949 0.052506 0.156859 -0.165681
C37   C     C_R   0.042065 0.163076 0.068586 -0.164602
C38   C     C_R   0.036505 0.058000 0.161550 -0.167647
C39   C     C_R   0.132420 0.158771 0.065078 -0.157281
C40   C     C_R   0.409439 0.905348 0.209780 -0.117515
C41   C     C_R   0.593740 0.028965 0.779141 -0.089367
C42   C     C_R   0.986149 0.101584 0.105311 0.148096
C43   C     C_R   0.165628 0.092062 0.096962 0.147116
C44   C     C_R   0.589950 0.305326 0.005731 -0.109104
C45   C     C_R   0.502374 0.934050 0.302061 0.032960
C46   C     C_R   0.408769 0.700519 0.004456 -0.010770
C47   C     C_R   0.593112 0.996093 0.299611 -0.105698
C48   C     C_R   0.408306 0.936275 0.684402 -0.128260
C49   C     C_R   0.406783 0.214951 0.921553 -0.158795
C50   C     C_R   0.592383 0.793670 0.097537 -0.129776
C51   C     C_R   0.745405 0.313586 0.224431 -0.063580
C52   C     C_R   0.191851 0.702962 0.791355 -0.081690
C53   C     C_R   0.250328 0.971811 0.065346 -0.104017
C54   C     C_R   0.806041 0.096656 0.006676 -0.121724
C55   C     C_R   0.223394 0.047774 0.050738 0.029171
C56   C     C_R   0.501959 0.953420 0.674904 0.025232
C57   C     C_R   0.869649 0.067128 0.069022 0.025231
C58   C     C_3   0.989231 0.149769 0.782623 -0.494862
C59   C     C_3   0.968128 0.035210 0.761354 -0.243892
C60   C     C_3   0.866565 0.971181 0.765520 -0.851935
C61   C     C_3   0.997358 0.855055 0.265138 -0.519002
C62   C     C_3   0.038768 0.774193 0.264315 -0.132410
C63   C     C_3   0.119296 0.787412 0.221290 -0.982975
C64   C     C_2   0.969767 0.726837 0.521517 0.963210
C65   C     C_2   0.798818 0.343429 0.551188 0.968665
C66   C     C_2   0.693668 0.363047 0.006894 0.953200
C67   C     C_R   0.497332 0.316631 0.966308 0.015587
C68   C     C_2   0.291156 0.626518 0.960257 0.904914
C69   C     C_R   0.501391 0.701078 0.072119 -0.005574
C70   C     C_R   0.187733 0.232250 0.678962 -0.141949
H1    H     H_    0.234667 0.113805 0.940260 0.083174
H2    H     H_    0.671497 0.511393 0.139830 0.126099
H3    H     H_    0.816790 0.526387 0.355350 0.144946
H4    H     H_    0.992134 0.527508 0.702183 0.163882
H5    H     H_    0.684283 0.017185 0.653501 0.118001
H6    H     H_    0.329833 0.786451 0.299634 0.131347
H7    H     H_    0.685156 0.005407 0.492205 0.116686
H8    H     H_    0.328451 0.796807 0.464992 0.117404
H9    H     H_    0.155402 0.007719 0.190446 0.119231
H10   H     H_    0.010565 0.205419 0.032729 0.105584
H11   H     H_    0.765239 0.198431 0.377474 0.109545
H12   H     H_    0.829236 0.976595 0.153764 0.087232
H13   H     H_    0.174472 0.821257 0.643284 0.109896
H14   H     H_    0.001067 0.018592 0.199632 0.103294
H15   H     H_    0.167938 0.198171 0.027082 0.105090
H16   H     H_    0.324493 0.847280 0.179302 0.148173
H17   H     H_    0.680203 0.062077 0.804059 0.097876
H18   H     H_    0.677926 0.018523 0.348714 0.084295
H19   H     H_    0.322753 0.884113 0.619208 0.095418
H20   H     H_    0.320890 0.185144 0.869204 0.115947
H21   H     H_    0.678429 0.828951 0.154857 0.117310
H22   H     H_    0.752724 0.377060 0.203933 0.097826
H23   H     H_    0.185328 0.210050 0.600972 0.121871
H24   H     H_    0.160239 0.657208 0.826504 0.128147
H25   H     H_    0.240614 0.939163 0.118081 0.097875
H26   H     H_    0.835129 0.157923 0.984509 0.116613
H27   H     H_    0.013871 0.121389 0.603920 0.099572
H28   H     H_    0.997023 0.982137 0.447012 0.089988
H29   H     H_    0.866922 0.898968 0.770435 0.265242
H30   H     H_    0.866265 0.022838 0.838425 0.250318
H31   H     H_    0.790129 0.940675 0.689298 0.248746
H32   H     H_    0.955193 0.987643 0.678756 0.207909
H33   H     H_    0.041468 0.042935 0.823922 0.209266
H34   H     H_    0.839955 0.944539 0.481037 0.111252
H35   H     H_    0.998206 0.196334 0.863630 0.192212
H36   H     H_    0.917300 0.142738 0.718485 0.210150
H37   H     H_    0.080357 0.777699 0.138074 0.274992
H38   H     H_    0.195740 0.869496 0.278385 0.260565
H39   H     H_    0.141505 0.722890 0.214587 0.258961
H40   H     H_    0.081420 0.788836 0.349287 0.217822
H41   H     H_    0.968027 0.688250 0.210560 0.210964
H42   H     H_    0.965524 0.848106 0.182699 0.193299
H43   H     H_    0.068127 0.940172 0.326359 0.185847
H44   H     H_    0.023128 0.887685 0.603953 0.304939
H45   H     H_    0.362632 0.348144 0.774922 0.126836
H46   H     H_    0.650852 0.219820 0.503108 0.326677
H47   H     H_    0.838443 0.373980 0.025292 0.320315
H48   H     H_    0.158029 0.596628 0.979223 0.324862
H49   H     H_    0.658207 0.775724 0.344901 0.125850
H50   H     H_    0.195579 0.314784 0.958287 0.107111
H51   H     H_    0.789810 0.678201 0.137581 0.150981
H52   H     H_    0.328212 0.517127 0.036189 0.149393
N1    N     N_R   0.293810 0.002730 0.945950 -0.037968
N2    N     N_R   0.443210 0.997250 0.791090 -0.045733
N3    N     N_R   0.443180 0.152110 0.945950 -0.047264
N4    N     N_R   0.556820 0.847890 0.054050 -0.053143
N5    N     N_R   0.706170 0.208950 0.152090 -0.027836
N6    N     N_R   0.293830 0.791050 0.847910 -0.055331
N7    N     N_R   0.293800 0.945910 0.002760 -0.041895
N8    N     N_R   0.706200 0.054090 0.997240 -0.033680
N9    N     N_R   0.706190 0.997270 0.054050 -0.044028
N10   N     N_R   0.706160 0.152130 0.208910 -0.055947
N11   N     N_R   0.293840 0.847870 0.791090 -0.049698
N12   N     N_R   0.443140 0.945920 0.152090 -0.040438
N13   N     N_R   0.556860 0.054080 0.847910 -0.034787
N14   N     N_R   0.556830 0.208940 0.002760 -0.053931
N15   N     N_R   0.443170 0.791060 0.997240 -0.073527
N16   N     N_R   0.556790 0.002750 0.208910 -0.038186
Ni1   Ni    Ni4+2 0.369690 0.999990 0.869700 0.224333
Ni2   Ni    Ni4+2 0.630310 0.000010 0.130300 0.209610
Ni3   Ni    Ni4+2 0.369670 0.869670 0.000000 0.244017
Ni4   Ni    Ni4+2 0.630330 0.130330 0.000000 0.265934
O1    O     O_2   0.957430 0.727998 0.436702 -0.680792
O2    O     O_R   0.003229 0.821873 0.614839 -0.812983
O3    O     O_2   0.848339 0.329056 0.624221 -0.649819
O4    O     O_R   0.683366 0.277864 0.484655 -0.796729
O5    O     O_2   0.709145 0.436581 0.984781 -0.651864
O6    O     O_R   0.771781 0.329651 0.028273 -0.822080
O7    O     O_2   0.239292 0.540277 0.872740 -0.635507
O8    O     O_R   0.239114 0.654490 0.018052 -0.843446

loop_
_geom_bond_atom_site_label_1
_geom_bond_atom_site_label_2
_ccdc_geom_bond_type
C44   N14   A    
H46   O4    S    
N4    N15   A    
C14   H52   S    
C12   N9    A    
C53   H25   S    
C33   C45   S    
C14   C18   A    
N2    Ni1   S    
C44   C66   S    
C24   C27   A    
C49   H20   S    
C60   H29   S    
C52   N6    A    
C11   C70   A    
N3    Ni1   S    
C15   C19   A    
C15   H2    S    
N4    Ni2   S    
C1    H1    S    
H47   O6    S    
C14   C21   A    
C19   C21   A    
C50   C69   A    
C24   C26   A    
C38   C42   A    
C65   O4    S    
C8    H51   S    
N7    Ni3   S    
N1    Ni1   S    
C37   C42   A    
C48   C56   A    
C9    C58   S    
C40   H16   S    
C13   H28   S    
H48   O8    S    
C2    C13   A    
N5    N10   A    
C46   C69   A    
N14   Ni4   S    
C68   O7    D    
N13   Ni4   S    
C62   H41   S    
C22   C25   A    
C31   C33   A    
C4    H49   S    
C52   H24   S    
N9    Ni2   S    
N6    Ni3   S    
C54   H26   S    
C30   C33   A    
C18   C69   S    
C45   C47   A    
C59   C60   S    
C22   C28   A    
N1    N7    A    
C59   H32   S    
C15   C20   A    
C41   H17   S    
C42   C57   S    
C31   H7    S    
C53   C55   A    
C27   C34   S    
C40   C45   A    
C54   N8    A    
C37   H10   S    
N10   Ni2   S    
C32   C35   A    
C70   H23   S    
C4    C6    A    
C5    C7    A    
C39   C43   A    
C64   O2    S    
C3    C5    A    
C58   C59   S    
C40   N12   A    
C10   C13   A    
C58   H36   S    
N5    Ni4   S    
H44   O2    S    
C63   H39   S    
C2    C4    A    
C1    N1    A    
C41   C56   A    
C46   C68   S    
C62   C63   S    
C51   H22   S    
C30   H6    S    
C23   C51   A    
C62   H40   S    
C2    H34   S    
C3    C70   A    
C36   C43   A    
C12   H12   S    
C23   C28   S    
C19   C67   S    
C9    C11   A    
C66   O5    D    
N16   Ni2   S    
C46   N15   A    
C50   N4    A    
C12   C57   A    
N3    N14   A    
C43   C55   S    
N11   Ni1   S    
C16   C23   A    
C48   H19   S    
C17   N11   A    
C10   C61   S    
C53   N7    A    
C17   C34   A    
C39   H15   S    
C63   H37   S    
C60   H31   S    
C34   C52   A    
C41   N13   A    
C49   N3    A    
C7    C9    A    
N15   Ni3   S    
C49   C67   A    
N2    N13   A    
C38   H14   S    
C35   C56   S    
C26   C65   S    
C66   O6    S    
C7    H50   S    
C8    C10   A    
C60   H30   S    
C36   H9    S    
N12   N16   A    
C6    C8    A    
C29   H5    S    
C64   O1    D    
C25   C27   A    
C6    C20   S    
C29   C35   A    
C26   C28   A    
C11   H27   S    
C58   H35   S    
C59   H33   S    
C47   H18   S    
C36   C38   A    
N8    N9    A    
C1    C55   A    
C51   N5    A    
C29   C31   A    
C3    H45   S    
N6    N11   A    
N12   Ni3   S    
C30   C32   A    
C24   H4    S    
C47   N16   A    
C16   H11   S    
C18   C20   A    
C61   C62   S    
C16   N10   A    
C68   O8    S    
C61   H43   S    
C32   H8    S    
C50   H21   S    
C5    C21   S    
C37   C39   A    
C48   N2    A    
N8    Ni4   S    
C44   C67   A    
C22   H3    S    
C17   H13   S    
C63   H38   S    
C61   H42   S    
C65   O3    D    
C25   C64   S    
C54   C57   A    
