data_mof_unit_47017.cif
_audit_creation_date              2013-03-05T15:54:28-0500
_audit_creation_method            fapswitch 2.2
_symmetry_space_group_name_H-M    P1
_symmetry_Int_Tables_number       1
_space_group_crystal_system       triclinic
_cell_length_a                    6.942339
_cell_length_b                    15.105502
_cell_length_c                    16.611083
_cell_angle_alpha                 95.607329
_cell_angle_beta                  89.993215
_cell_angle_gamma                 90.128583
_cell_volume                      1733.62318129

loop_
_atom_site_label
_atom_site_type_symbol
_atom_site_description
_atom_site_fract_x
_atom_site_fract_y
_atom_site_fract_z
_atom_type_partial_charge
O1    O     O_R   0.633330 0.174290 0.828230 -0.591338
O2    O     O_R   0.366670 0.825710 0.171770 -0.591489
O3    O     O_R   0.301450 0.154140 0.662030 -0.573214
O4    O     O_R   0.698550 0.845860 0.337970 -0.574988
O5    O     O_R   0.133140 0.325730 0.671770 -0.576556
O6    O     O_R   0.866860 0.674270 0.328230 -0.578920
C1    C     C_R   0.470762 0.131557 0.633442 1.012124
C2    C     C_R   0.529200 0.868546 0.366461 1.008956
O7    O     O_R   0.303490 0.163670 0.827000 -0.594620
O8    O     O_R   0.696510 0.836330 0.173000 -0.587508
O9    O     O_R   0.135190 0.335320 0.837920 -0.583711
O10   O     O_R   0.864810 0.664680 0.162080 -0.584319
C3    C     C_R   0.472460 0.142977 0.853812 0.979006
C4    C     C_R   0.527667 0.856594 0.145821 0.981543
O11   O     O_R   0.631280 0.164690 0.662080 -0.592904
O12   O     O_R   0.368720 0.835310 0.337920 -0.594969
O13   O     O_3   0.467420 0.306310 0.753380 -0.279461
O14   O     O_3   0.532580 0.693690 0.246620 -0.278623
V1    V     V_3+5 0.191790 0.239560 0.749370 1.204384
V2    V     V_3+5 0.808210 0.760440 0.250630 1.217303
O15   O     O_R   0.805590 0.345870 0.837970 -0.608198
O16   O     O_R   0.194410 0.654130 0.162030 -0.607639
C5    C     C_R   0.974549 0.368434 0.866615 0.950598
C6    C     C_R   0.025375 0.631471 0.133471 0.988149
O17   O     O_R   0.803560 0.336340 0.672990 -0.591950
O18   O     O_R   0.196440 0.663660 0.327010 -0.591089
C7    C     C_R   0.972514 0.356772 0.645969 1.011976
C8    C     C_R   0.027504 0.643408 0.354182 1.010148
V3    V     V_3+5 0.692030 0.260450 0.750630 1.181589
V4    V     V_3+5 0.307970 0.739550 0.249370 1.195730
O19   O     O_3   0.966260 0.193700 0.746610 -0.271585
O20   O     O_3   0.033740 0.806300 0.253390 -0.272973
C9    C     C_1   0.983075 0.418898 0.583678 -0.273813
C10   C     C_1   0.016936 0.581554 0.416708 -0.262282
C11   C     C_1   0.993518 0.470229 0.531245 0.090716
C12   C     C_1   0.006468 0.530382 0.469275 0.094880
C13   C     C_3   0.928817 0.574898 0.980547 0.691072
C14   C     C_3   0.069436 0.423761 0.020474 0.677735
C15   C     C_3   0.101020 0.526220 0.937523 -0.348529
C16   C     C_3   0.898442 0.473142 0.064043 -0.350773
H1    H     H_    0.182625 0.548095 0.885515 0.139083
H2    H     H_    0.816891 0.452145 0.116445 0.148683
C17   C     C_3   0.985677 0.438298 0.937352 -0.265892
C18   C     C_3   0.013660 0.560757 0.063495 -0.231628
C19   C     C_3   0.811761 0.487954 0.979778 -0.291611
C20   C     C_3   0.186544 0.510821 0.021607 -0.207307
H3    H     H_    0.658405 0.479775 0.961588 0.153288
H4    H     H_    0.339835 0.518943 0.039923 0.149759
C21   C     C_3   0.677980 0.027144 0.524597 -0.202397
C22   C     C_3   0.321857 0.973060 0.475172 -0.199369
C23   C     C_3   0.597098 0.931907 0.521141 0.436255
C24   C     C_3   0.402681 0.068311 0.478601 0.430149
H5    H     H_    0.824924 0.047378 0.545529 0.188609
H6    H     H_    0.174936 0.952793 0.454235 0.188347
C25   C     C_3   0.515130 0.938982 0.436578 -0.295732
C26   C     C_3   0.484698 0.061244 0.563196 -0.296766
C27   C     C_3   0.593288 0.035235 0.438631 -0.227642
C28   C     C_3   0.406520 0.964977 0.561120 -0.230736
H7    H     H_    0.667563 0.064524 0.388284 0.176544
H8    H     H_    0.332279 0.935655 0.611460 0.172708
C29   C     C_1   0.483015 0.080445 0.915782 -0.326136
C30   C     C_1   0.517440 0.918325 0.083158 -0.289456
C31   C     C_1   0.493433 0.029116 0.968220 0.048376
C32   C     C_1   0.506737 0.969267 0.030414 0.065139
O21   O     O_3   0.853404 0.657794 0.963794 -0.674534
C33   C     C_3   0.792316 0.654790 0.882319 0.177962
H9    H     H_    0.643073 0.681187 0.882037 0.128665
H10   H     H_    0.787130 0.586583 0.849655 0.078495
C34   C     C_3   0.923035 0.714290 0.836558 -0.366701
H11   H     H_    0.917719 0.783491 0.866196 0.223267
H12   H     H_    0.074044 0.690439 0.838553 0.199800
C35   C     C_3   0.860847 0.714166 0.748463 -0.835733
H13   H     H_    0.870938 0.645988 0.716946 0.249208
H14   H     H_    0.956468 0.758921 0.717237 0.284662
H15   H     H_    0.710280 0.738237 0.745112 0.279953
O22   O     O_3   0.155692 0.344208 0.040290 -0.674062
C36   C     C_3   0.012082 0.280529 0.052220 0.168279
H16   H     H_    0.908023 0.273338 0.000879 0.088037
H17   H     H_    0.933092 0.299892 0.109524 0.116141
C37   C     C_3   0.108280 0.190707 0.058577 -0.245247
H18   H     H_    0.192298 0.172351 0.002651 0.205955
H19   H     H_    0.208852 0.195862 0.110930 0.214428
C38   C     C_3   0.960273 0.117885 0.068899 -0.974638
H20   H     H_    0.873050 0.134781 0.124351 0.271456
H21   H     H_    0.035422 0.053901 0.074298 0.273993
H22   H     H_    0.863505 0.109587 0.015470 0.269174
N1    N     N_R   0.706713 0.856137 0.543818 0.225629
O23   O     O_R   0.870865 0.835971 0.509113 -0.427853
O24   O     O_R   0.640398 0.807986 0.598383 -0.427564
N2    N     N_R   0.292510 0.143864 0.455740 0.227052
O25   O     O_R   0.129784 0.164715 0.491382 -0.421799
O26   O     O_R   0.354699 0.189930 0.398850 -0.400750

loop_
_geom_bond_atom_site_label_1
_geom_bond_atom_site_label_2
_geom_bond_distance
_ccdc_geom_bond_type
C33   H10   1.117048 S    
N1    O23   1.300349 A    
O13   V3    1.706487 S    
C24   N2    1.456141 S    
C11   C12   1.440743 S    
O4    C2    1.301399 A    
V1    O19   1.709493 S    
C21   C27   1.560254 S    
C15   H1    1.109650 S    
C14   O22   1.411228 S    
C36   H16   1.114754 S    
C7    C9    1.464983 S    
O9    V1    1.999243 S    
C22   H6    1.110364 S    
C14   C16   1.545208 S    
O3    C1    1.301348 A    
C37   C38   1.525439 S    
C27   H7    1.110067 S    
C33   C34   1.529323 S    
O12   V4    2.003857 S    
C4    C30   1.465611 S    
C5    C17   1.502553 S    
C34   H12   1.110850 S    
C19   H3    1.110055 S    
C29   C31   1.223667 T    
O7    C3    1.304257 A    
C30   C32   1.223631 T    
C9    C11   1.223428 T    
O5    C7    1.299526 A    
O7    V1    1.967598 S    
O6    C8    1.299487 A    
O8    V2    1.967596 S    
C21   C23   1.538959 S    
C13   O21   1.410872 S    
C22   C24   1.539047 S    
O3    V1    1.996911 S    
O14   V4    1.706486 S    
C23   C25   1.529110 S    
C16   H2    1.109885 S    
C33   H9    1.111187 S    
C8    C10   1.465067 S    
C2    O12   1.291955 A    
C1    C26   1.502418 S    
C35   H15   1.110680 S    
C2    C25   1.502129 S    
C18   C20   1.547565 S    
O11   V3    2.003857 S    
C36   H17   1.112896 S    
O17   V3    1.965101 S    
C16   C19   1.559942 S    
C20   H4    1.110106 S    
C22   C28   1.559884 S    
O22   C36   1.411174 S    
C35   H14   1.110500 S    
O8    C4    1.303932 A    
C23   N1    1.455755 S    
C35   H13   1.111122 S    
C15   C17   1.549050 S    
C1    O11   1.292167 A    
O15   V3    2.005284 S    
C34   C35   1.525577 S    
N2    O26   1.300270 A    
C38   H20   1.111254 S    
O10   V2    1.999244 S    
O1    V3    1.961341 S    
C23   C28   1.542384 S    
C17   C19   1.554865 S    
C15   C20   1.556199 S    
C37   H19   1.111974 S    
C38   H21   1.110668 S    
O18   V4    1.965102 S    
C25   C27   1.548012 S    
C6    C18   1.501901 S    
O16   C6    1.298423 A    
O1    C3    1.299380 A    
C13   C19   1.541870 S    
V2    O20   1.709492 S    
C36   C37   1.526486 S    
O16   V4    2.005283 S    
C37   H18   1.109236 S    
O5    V1    1.962653 S    
O17   C7    1.302999 A    
C21   C26   1.554124 S    
O6    V2    1.962655 S    
O10   C6    1.294538 A    
O18   C8    1.303088 A    
C22   C25   1.553939 S    
O2    V4    1.961341 S    
C13   C18   1.532755 S    
O15   C5    1.298111 A    
C14   C17   1.533885 S    
V3    O19   2.154295 S    
V4    O20   2.154295 S    
N2    O25   1.300368 A    
C21   H5    1.110365 S    
O9    C5    1.294962 A    
O13   V1    2.158908 S    
C10   C12   1.223467 T    
C26   C28   1.548232 S    
O14   V2    2.158908 S    
C34   H11   1.111770 S    
O2    C4    1.299817 A    
C14   C20   1.543102 S    
C24   C27   1.542534 S    
C31   C32   1.440870 S    
O4    V2    1.996910 S    
C16   C18   1.545666 S    
C38   H22   1.110284 S    
C3    C29   1.465457 S    
C13   C15   1.543274 S    
O21   C33   1.414795 S    
N1    O24   1.299912 A    
C28   H8    1.110100 S    
C24   C26   1.529701 S    
