data_mof_unit_49351.cif
_audit_creation_date              2013-03-05T16:48:40-0500
_audit_creation_method            fapswitch 2.2
_symmetry_space_group_name_H-M    P1
_symmetry_Int_Tables_number       1
_space_group_crystal_system       triclinic
_cell_length_a                    10.856043
_cell_length_b                    10.867782
_cell_length_c                    10.438827
_cell_angle_alpha                 90.45627
_cell_angle_beta                  91.267993
_cell_angle_gamma                 90.584515
_cell_volume                      1231.17742055

loop_
_atom_site_label
_atom_site_type_symbol
_atom_site_description
_atom_site_fract_x
_atom_site_fract_y
_atom_site_fract_z
_atom_type_partial_charge
O1    O     O_R   0.499990 0.319650 0.605810 -0.582760
O2    O     O_R   0.500010 0.680350 0.394190 -0.582995
O3    O     O_R   0.499990 0.319640 0.394190 -0.569201
O4    O     O_R   0.500010 0.680360 0.605810 -0.564164
C1    C     C_R   0.493257 0.261076 0.499263 0.819157
C2    C     C_R   0.485619 0.737699 0.499708 0.820925
O5    O     O_R   0.319640 0.500010 0.605810 -0.584259
O6    O     O_R   0.680360 0.499990 0.394190 -0.580514
O7    O     O_R   0.319650 0.500010 0.394190 -0.580335
O8    O     O_R   0.680350 0.499990 0.605810 -0.565443
C3    C     C_R   0.261482 0.497742 0.498342 0.772787
C4    C     C_R   0.738498 0.501365 0.501709 0.818815
Cu1   Cu    Cu3+1 0.500000 0.500000 0.625300 0.975689
Cu2   Cu    Cu3+1 0.500000 0.500000 0.374700 0.969887
H1    H     H_    0.212048 0.278584 0.940714 0.162716
H2    H     H_    0.779480 0.651850 0.080319 0.174634
C5    C     C_R   0.187113 0.440886 0.054063 -0.208646
C6    C     C_R   0.830195 0.505868 0.953891 -0.207802
H3    H     H_    0.218505 0.501474 0.979633 0.142755
H4    H     H_    0.815886 0.435411 0.024874 0.149061
C7    C     C_R   0.149516 0.489526 0.170941 -0.079226
C8    C     C_R   0.870434 0.473603 0.832161 -0.108000
H5    H     H_    0.150626 0.588186 0.185840 0.130734
H6    H     H_    0.887871 0.377909 0.809904 0.142175
C9    C     C_R   0.109023 0.410828 0.267447 0.075336
C10   C     C_R   0.889837 0.564748 0.740223 0.069081
C11   C     C_R   0.102250 0.283518 0.244033 -0.274556
C12   C     C_R   0.870167 0.688652 0.771690 -0.233960
H7    H     H_    0.067130 0.223519 0.317464 0.168946
H8    H     H_    0.888132 0.758708 0.701088 0.167488
C13   C     C_R   0.137784 0.234124 0.125721 0.363025
C14   C     C_R   0.830467 0.722038 0.894582 0.385540
C15   C     C_R   0.182468 0.314024 0.031869 -0.208918
C16   C     C_R   0.809974 0.629146 0.985046 -0.192570
C17   C     C_R   0.929976 0.465185 0.391844 -0.229737
C18   C     C_R   0.069827 0.530376 0.609122 -0.243175
H9    H     H_    0.875953 0.437414 0.307552 0.160760
H10   H     H_    0.123625 0.555786 0.694163 0.158053
C19   C     C_R   0.871970 0.500256 0.504513 -0.086934
C20   C     C_R   0.127960 0.496781 0.495951 -0.087351
C21   C     C_R   0.942708 0.531289 0.615524 0.020196
C22   C     C_R   0.057139 0.461429 0.386307 0.023122
H11   H     H_    0.703709 0.232610 0.959950 0.139272
H12   H     H_    0.325294 0.698361 0.039744 0.121802
C23   C     C_R   0.532612 0.202489 0.055785 -0.139871
C24   C     C_R   0.461004 0.804429 0.940405 -0.124327
H13   H     H_    0.476377 0.236951 0.977495 0.124404
H14   H     H_    0.530469 0.797793 0.015691 0.153844
C25   C     C_R   0.476891 0.161346 0.167097 -0.090605
C26   C     C_R   0.487989 0.867604 0.828715 -0.096554
H15   H     H_    0.377902 0.164715 0.174327 0.147862
H16   H     H_    0.577288 0.911394 0.819355 0.176391
C27   C     C_R   0.548653 0.112400 0.267583 0.106210
C28   C     C_R   0.400624 0.871891 0.728206 0.099694
C29   C     C_R   0.677382 0.110687 0.257585 -0.117552
C30   C     C_R   0.284859 0.815118 0.741233 -0.095796
H17   H     H_    0.734191 0.073992 0.334551 0.135466
H18   H     H_    0.216568 0.818512 0.664123 0.117383
C31   C     C_R   0.733179 0.155487 0.147509 -0.042369
C32   C     C_R   0.257131 0.754386 0.854603 -0.067788
H19   H     H_    0.832429 0.154159 0.140115 0.177726
H20   H     H_    0.167721 0.711234 0.865431 0.123078
C33   C     C_R   0.660706 0.199978 0.046028 -0.102140
C34   C     C_R   0.345477 0.748414 0.953645 -0.123182
C35   C     C_R   0.459675 0.933899 0.379777 0.117056
C36   C     C_R   0.421791 0.066232 0.604526 0.111691
C37   C     C_R   0.460571 0.870876 0.497399 -0.140819
C38   C     C_R   0.471983 0.127222 0.496751 -0.138050
C39   C     C_R   0.430750 0.937072 0.609350 -0.068762
C40   C     C_R   0.489985 0.059108 0.382205 -0.070845
N1    N     N_1   0.500010 0.499990 0.186410 -0.144076
N2    N     N_1   0.499990 0.500010 0.813590 -0.141051
C41   C     C_1   0.500474 0.499908 0.072005 0.056811
C42   C     C_1   0.500470 0.499664 0.928013 0.066244
C43   C     C_3   0.402438 0.876324 0.258403 -0.369476
C44   C     C_3   0.270236 0.832852 0.282214 -0.740110
H21   H     H_    0.269486 0.747824 0.340197 0.226944
H22   H     H_    0.218989 0.905326 0.333703 0.273733
H23   H     H_    0.220857 0.813720 0.190012 0.261439
H24   H     H_    0.396105 0.942643 0.179119 0.223007
H25   H     H_    0.458736 0.800836 0.220734 0.217341
C45   C     C_3   0.348031 0.134633 0.705971 -0.379495
C46   C     C_3   0.230025 0.187457 0.646551 -0.753901
H26   H     H_    0.250170 0.246749 0.563605 0.230124
H27   H     H_    0.167847 0.111272 0.613351 0.250315
H28   H     H_    0.181308 0.243388 0.718516 0.237440
H29   H     H_    0.318440 0.074288 0.784650 0.236418
H30   H     H_    0.403253 0.206511 0.756575 0.214191
N3    N     N_R   0.126926 0.104031 0.100538 0.114887
O9    O     O_R   0.173768 0.055849 0.998239 -0.385848
O10   O     O_R   0.066419 0.033183 0.177534 -0.381242
N4    N     N_R   0.813746 0.849392 0.928247 0.114830
O11   O     O_R   0.778242 0.880236 0.042247 -0.382416
O12   O     O_R   0.836039 0.935869 0.846118 -0.379668

loop_
_geom_bond_atom_site_label_1
_geom_bond_atom_site_label_2
_geom_bond_distance
_ccdc_geom_bond_type
C36   C38   1.426043 A    
C29   C31   1.399293 A    
C11   H7    1.083476 S    
Cu2   N1    1.965528 S    
C44   H23   1.108451 S    
C43   C44   1.532503 S    
H11   C33   1.082293 S    
C19   C21   1.412603 A    
H12   C34   1.079708 S    
O5    C3    1.275004 A    
C26   C28   1.400061 A    
O1    C1    1.277415 A    
C17   H9    1.085638 S    
C44   H22   1.110941 S    
C45   H30   1.103856 S    
C36   C39   1.409263 A    
C35   C37   1.410592 A    
C45   H29   1.106260 S    
C32   H20   1.082252 S    
C41   C42   1.503085 S    
O4    Cu1   1.972253 S    
C17   C22   1.383972 A    
C18   C20   1.399294 A    
H2    C16   1.082546 S    
C13   N3    1.439174 S    
C26   H16   1.082284 S    
C13   C15   1.405392 A    
N3    O10   1.301240 A    
C43   H24   1.103246 S    
C23   H13   1.080898 S    
Cu1   Cu2   2.615970 S    
C18   C21   1.383244 A    
O2    C2    1.274670 A    
C5    C15   1.396434 A    
C1    C38   1.470526 S    
C27   C40   1.486593 S    
C24   H14   1.080416 S    
C27   C29   1.403977 A    
C7    H5    1.082124 S    
C28   C30   1.404163 A    
C31   H19   1.082161 S    
C11   C13   1.406066 A    
C12   C14   1.408302 A    
C44   H21   1.108742 S    
N2    C42   1.194377 T    
N1    C41   1.194368 T    
C43   H25   1.103145 S    
C25   H15   1.079920 S    
C23   C33   1.397088 A    
C5    C7    1.396696 A    
C30   C32   1.396761 A    
C24   C34   1.398586 A    
C37   C39   1.412861 A    
C14   C16   1.407239 A    
C17   C19   1.398441 A    
O7    Cu2   1.972904 S    
C36   C45   1.533727 S    
C6    C16   1.396838 A    
C46   H26   1.107763 S    
C23   C25   1.396376 A    
O6    C4    1.275338 A    
N4    O12   1.301617 A    
O7    C3    1.269617 A    
O3    Cu2   1.972254 S    
O8    C4    1.268867 A    
O4    C2    1.282488 A    
C2    C37   1.475675 S    
C46   H27   1.111283 S    
C29   H17   1.083089 S    
C8    H6    1.083272 S    
O1    Cu1   1.968922 S    
C7    C9    1.401872 A    
O6    Cu2   1.964056 S    
C6    C8    1.396096 A    
C10   C12   1.403089 A    
C20   C22   1.413064 A    
O3    C1    1.275615 A    
O8    Cu1   1.972903 S    
C9    C22   1.478363 S    
Cu1   N2    1.965529 S    
C9    C11   1.403982 A    
C24   C26   1.392954 A    
C31   C33   1.397872 A    
C35   C43   1.525620 S    
C32   C34   1.396931 A    
C4    C19   1.448799 S    
C18   H10   1.084099 S    
C14   N4    1.439539 S    
C28   C39   1.474913 S    
C25   C27   1.404051 A    
C12   H8    1.083120 S    
N4    O11   1.301411 A    
C5    H3    1.081052 S    
C30   H18   1.083304 S    
C6    H4    1.082221 S    
C3    C20   1.449118 S    
O2    Cu2   1.968922 S    
O5    Cu1   1.964057 S    
C46   H28   1.109235 S    
C38   C40   1.419549 A    
C45   C46   1.530023 S    
C8    C10   1.402299 A    
N3    O9    1.301430 A    
H1    C15   1.080333 S    
C35   C40   1.396596 A    
C10   C21   1.478480 S    
