data_mof_unit_29016.cif
_audit_creation_date              2012-12-10T20:50:10-0500
_audit_creation_method            fapswitch 2.2
_symmetry_space_group_name_H-M    P1
_symmetry_Int_Tables_number       1
_space_group_crystal_system       triclinic
_cell_length_a                    19.04245
_cell_length_b                    9.066723
_cell_length_c                    8.195002
_cell_angle_alpha                 90.000085
_cell_angle_beta                  88.845103
_cell_angle_gamma                 90.000023
_cell_volume                      1414.60114003

loop_
_atom_site_label
_atom_site_type_symbol
_atom_type_description
_atom_site_fract_x
_atom_site_fract_y
_atom_site_fract_z
_atom_type_partial_charge
C1    C     C_R   0.500000 0.218103 0.500000 0.883030
C2    C     C_R   0.251288 0.434808 0.356498 0.079989
C3    C     C_R   0.180956 0.384729 0.654841 0.367583
C4    C     C_R   0.819044 0.384727 0.345159 0.367584
C5    C     C_R   0.814718 0.366395 0.640746 0.405792
C6    C     C_R   0.185282 0.366395 0.359254 0.405791
C7    C     C_R   0.146982 0.350669 0.507347 -0.231315
C8    C     C_R   0.853017 0.350669 0.492653 -0.231316
C9    C     C_R   0.288401 0.451338 0.503415 -0.267611
C10   C     C_R   0.711599 0.451337 0.496585 -0.267611
C11   C     C_R   0.928732 0.309014 0.496107 0.324985
C12   C     C_R   0.500000 0.781896 0.500000 0.920863
C13   C     C_R   0.071268 0.309014 0.503892 0.324986
C14   C     C_3   0.331215 0.241833 0.785451 -0.733189
C15   C     C_3   0.668784 0.241831 0.214549 -0.733190
C16   C     C_3   0.716985 0.637957 0.821463 -0.789060
C17   C     C_3   0.283015 0.637956 0.178536 -0.789060
C18   C     C_3   0.104998 0.504236 0.832839 0.149527
C19   C     C_3   0.141192 0.606726 0.951856 -0.374398
C20   C     C_3   0.089650 0.714968 0.031908 -0.993120
C21   C     C_3   0.895002 0.504235 0.167161 0.149527
C22   C     C_3   0.858808 0.606726 0.048147 -0.374397
C23   C     C_R   0.364446 0.491504 0.501154 0.916032
C24   C     C_3   0.910350 0.714971 0.968098 -0.993121
C25   C     C_3   0.831006 0.160909 0.796798 0.137159
C26   C     C_3   0.771921 0.131908 0.919972 -0.342642
C27   C     C_3   0.746692 0.973614 0.919176 -1.038655
C28   C     C_3   0.168994 0.160907 0.203203 0.137156
C29   C     C_3   0.228077 0.131906 0.080022 -0.342646
C30   C     C_3   0.253307 0.973614 0.080818 -1.038655
C31   C     C_R   0.635554 0.491504 0.498846 0.916032
C32   C     C_1   0.500000 0.065000 0.500000 -0.198584
C33   C     C_1   0.500000 0.935036 0.500000 -0.195475
C34   C     C_R   0.253929 0.410734 0.651512 0.085460
C35   C     C_R   0.746070 0.410732 0.348488 0.085460
C36   C     C_R   0.748712 0.434808 0.643501 0.079988
H1    H     H_    0.266144 0.395405 0.901547 0.266412
H2    H     H_    0.705551 0.661427 0.952222 0.246618
H3    H     H_    0.675359 0.689310 0.748049 0.258529
H4    H     H_    0.767887 0.688890 0.785016 0.244646
H5    H     H_    0.323046 0.423087 0.160523 0.247828
H6    H     H_    0.294449 0.661424 0.047777 0.246618
H7    H     H_    0.324642 0.689308 0.251948 0.258530
H8    H     H_    0.232115 0.688890 0.214985 0.244646
H9    H     H_    0.054489 0.467833 0.889926 0.195579
H10   H     H_    0.091566 0.566753 0.720182 0.103966
H11   H     H_    0.163819 0.538867 0.048779 0.311934
H12   H     H_    0.294398 0.148169 0.771986 0.221067
H13   H     H_    0.184018 0.667609 0.887169 0.204547
H14   H     H_    0.047133 0.653803 0.097079 0.274415
H15   H     H_    0.067182 0.789248 0.938714 0.277909
H16   H     H_    0.116364 0.782406 0.124684 0.263517
H17   H     H_    0.945511 0.467832 0.110073 0.195579
H18   H     H_    0.908434 0.566751 0.279820 0.103967
H19   H     H_    0.836181 0.538868 0.951221 0.311933
H20   H     H_    0.815981 0.667608 0.112835 0.204547
H21   H     H_    0.952866 0.653808 0.902926 0.274415
H22   H     H_    0.932817 0.789249 0.061294 0.277909
H23   H     H_    0.362671 0.227483 0.896903 0.231874
H24   H     H_    0.883635 0.782411 0.875323 0.263519
H25   H     H_    0.879839 0.109493 0.842283 0.173470
H26   H     H_    0.819729 0.105770 0.678030 0.106160
H27   H     H_    0.791511 0.159532 0.042502 0.270810
H28   H     H_    0.726456 0.201973 0.890754 0.226632
H29   H     H_    0.732750 0.941120 0.793359 0.276233
H30   H     H_    0.699187 0.962478 0.998991 0.279670
H31   H     H_    0.787820 0.900868 0.967551 0.285505
H32   H     H_    0.120161 0.109490 0.157725 0.173468
H33   H     H_    0.180274 0.105770 0.321970 0.106160
H34   H     H_    0.367337 0.237361 0.678294 0.249644
H35   H     H_    0.208484 0.159525 0.957494 0.270812
H36   H     H_    0.273541 0.201973 0.109233 0.226637
H37   H     H_    0.267255 0.941126 0.206634 0.276235
H38   H     H_    0.300809 0.962477 0.000992 0.279668
H39   H     H_    0.212178 0.900865 0.032457 0.285506
H40   H     H_    0.733856 0.395402 0.098452 0.266412
H41   H     H_    0.705601 0.148167 0.228016 0.221068
H42   H     H_    0.637329 0.227480 0.103096 0.231874
H43   H     H_    0.632662 0.237360 0.321705 0.249645
H44   H     H_    0.676954 0.423090 0.839477 0.247828
N1    N     N_1   0.500000 0.500000 0.073640 -0.037695
N2    N     N_2   0.279676 0.480280 0.202862 -0.287385
N3    N     N_1   0.500000 0.500000 0.926360 -0.037695
N4    N     N_R   0.037291 0.301889 0.360328 -0.144888
N5    N     N_R   0.962709 0.301889 0.639671 -0.144888
N6    N     N_R   0.967669 0.299291 0.356749 -0.156511
N7    N     N_R   0.032330 0.299291 0.643250 -0.156511
N8    N     N_2   0.293412 0.380995 0.793304 -0.271418
N9    N     N_2   0.706587 0.380993 0.206696 -0.271419
N10   N     N_2   0.720324 0.480282 0.797138 -0.287384
O1    O     O_R   0.500000 0.285350 0.636850 -0.621360
O2    O     O_3   0.854051 0.375337 0.195699 -0.632028
O3    O     O_3   0.841785 0.315377 0.785502 -0.618037
O4    O     O_3   0.158215 0.315375 0.214498 -0.618035
O5    O     O_R   0.500000 0.714650 0.363150 -0.612534
O6    O     O_R   0.500000 0.714650 0.636850 -0.612533
O7    O     O_R   0.500000 0.285350 0.363150 -0.621360
O8    O     O_R   0.398140 0.500000 0.636920 -0.581071
O9    O     O_R   0.601860 0.500000 0.363080 -0.581071
O10   O     O_R   0.601860 0.500000 0.636920 -0.627472
O11   O     O_R   0.398140 0.500000 0.363080 -0.627472
O12   O     O_3   0.145949 0.375338 0.804301 -0.632028
Zn1   Zn    Zn3+2 0.500000 0.500000 0.682780 0.971979
Zn2   Zn    Zn3+2 0.500000 0.500000 0.317220 0.971979

loop_
_geom_bond_atom_site_label_1
_geom_bond_atom_site_label_2
_ccdc_geom_bond_type
C25   O3    S    
H1    N8    S    
C28   H33   S    
C4    C8    A    
C15   H41   S    
C16   N10   S    
C14   H23   S    
C13   N4    A    
C26   C27   S    
N3    Zn1   S    
C28   C29   S    
C28   H32   S    
N4    N6    A    
C18   C19   S    
C20   H15   S    
C3    C7    A    
C21   H18   S    
C30   H38   S    
C19   H11   S    
C15   H42   S    
C11   N6    A    
O8    Zn1   S    
C5    C36   A    
C28   O4    S    
C17   N2    S    
C18   O12   S    
C26   H28   S    
C17   H6    S    
C20   H14   S    
C10   C31   S    
C15   H43   S    
C19   C20   S    
C24   H21   S    
C6    O4    S    
C34   N8    S    
C12   O5    A    
C10   C35   A    
C31   O9    A    
H40   N9    S    
C29   H36   S    
O9    Zn2   S    
C4    C35   A    
C1    O1    A    
C21   C22   S    
C14   H34   S    
C2    C6    A    
C18   H10   S    
N1    N3    T    
N5    N7    A    
C1    O7    A    
C30   H37   S    
C9    C23   S    
C22   H20   S    
C3    C34   A    
C25   C26   S    
O10   Zn1   S    
C26   H27   S    
C17   H7    S    
C29   C30   S    
C27   H29   S    
C15   N9    S    
C19   H13   S    
C24   H24   S    
C13   N7    A    
C25   H25   S    
C31   O10   A    
C6    C7    A    
C16   H4    S    
C35   N9    S    
C3    O12   S    
O11   Zn2   S    
C9    C34   A    
C22   C24   S    
C2    N2    S    
C18   H9    S    
O5    Zn2   S    
C36   N10   S    
O1    Zn1   S    
C5    C8    A    
C5    O3    S    
C22   H19   S    
C32   C33   T    
C17   H8    S    
C14   N8    S    
C20   H16   S    
C27   H30   S    
C21   H17   S    
C30   H39   S    
C23   O11   A    
C11   N5    A    
C8    C11   S    
H5    N2    S    
C25   H26   S    
C1    C32   S    
H44   N10   S    
O7    Zn2   S    
C27   H31   S    
C16   H3    S    
C7    C13   S    
C23   O8    A    
C24   H22   S    
O6    Zn1   S    
C14   H12   S    
C12   O6    A    
C10   C36   A    
C29   H35   S    
C12   C33   S    
C2    C9    A    
N1    Zn2   S    
C16   H2    S    
C4    O2    S    
C21   O2    S    
