data_mof_unit_13012.cif
_audit_creation_date              2012-12-10T21:26:03-0500
_audit_creation_method            fapswitch 2.2
_symmetry_space_group_name_H-M    P1
_symmetry_Int_Tables_number       1
_space_group_crystal_system       triclinic
_cell_length_a                    8.630319
_cell_length_b                    16.304672
_cell_length_c                    16.86892
_cell_angle_alpha                 85.993752
_cell_angle_beta                  94.580513
_cell_angle_gamma                 100.396248
_cell_volume                      2323.55115139

loop_
_atom_site_label
_atom_site_type_symbol
_atom_type_description
_atom_site_fract_x
_atom_site_fract_y
_atom_site_fract_z
_atom_type_partial_charge
C1    C     C_R   0.498936 0.487616 0.652644 0.886207
C2    C     C_R   0.501058 0.512385 0.347356 0.886228
C3    C     C_R   0.411003 0.757619 0.463551 0.222988
C4    C     C_R   0.589000 0.242382 0.536447 0.222998
C5    C     C_R   0.406558 0.843677 0.470444 -0.029465
C6    C     C_R   0.593446 0.156324 0.529554 -0.029466
C7    C     C_R   0.521667 0.892324 0.519524 0.223625
C8    C     C_R   0.478334 0.107676 0.480477 0.223625
C9    C     C_R   0.635104 0.853007 0.563979 0.049033
C10   C     C_R   0.364892 0.146991 0.436024 0.049032
C11   C     C_R   0.630187 0.765246 0.560117 0.277099
C12   C     C_R   0.369809 0.234753 0.439885 0.277101
C13   C     C_R   0.799733 0.521088 0.501988 0.925757
C14   C     C_R   0.200267 0.478912 0.498012 0.925752
C15   C     C_2   0.964730 0.528894 0.514497 -0.105536
C16   C     C_2   0.035270 0.471107 0.485503 -0.105536
C17   C     C_R   0.503309 0.477435 0.738927 -0.068518
C18   C     C_R   0.496604 0.522569 0.261072 -0.068510
C19   C     C_R   0.586287 0.543118 0.782262 -0.289410
C20   C     C_R   0.413519 0.456905 0.217748 -0.289432
C21   C     C_R   0.589983 0.537698 0.864094 -0.208341
C22   C     C_R   0.409691 0.462343 0.135911 -0.208332
C23   C     C_R   0.508092 0.466685 0.904452 0.298419
C24   C     C_R   0.491556 0.533353 0.095541 0.298404
C25   C     C_R   0.431484 0.397547 0.862096 0.154751
C26   C     C_R   0.568265 0.602476 0.137890 0.154766
C27   C     C_R   0.427628 0.403463 0.778214 0.063723
C28   C     C_R   0.572257 0.596541 0.221775 0.063727
H1    H     H_    0.351366 0.400883 0.247273 0.170706
H2    H     H_    0.648456 0.599143 0.752748 0.170724
H3    H     H_    0.344894 0.410104 0.103921 0.164229
H4    H     H_    0.654714 0.589949 0.896090 0.164236
N1    N     N_2   0.498005 0.464818 0.987452 -0.192483
N2    N     N_2   0.501587 0.535219 0.012538 -0.192497
N3    N     N_R   0.519180 0.718290 0.509780 -0.112089
N4    N     N_R   0.480820 0.281710 0.490220 -0.112088
N5    N     N_2   0.521985 0.979374 0.530161 -0.120216
N6    N     N_2   0.478017 0.020626 0.469839 -0.120214
O1    O     O_R   0.493140 0.422050 0.612640 -0.610175
O2    O     O_R   0.506860 0.577950 0.387360 -0.610186
O3    O     O_R   0.505450 0.562230 0.618920 -0.624738
O4    O     O_R   0.494550 0.437770 0.381080 -0.624734
O5    O     O_R   0.723530 0.446300 0.497600 -0.595748
O6    O     O_R   0.276470 0.553700 0.502400 -0.595747
O7    O     O_R   0.735850 0.586490 0.503880 -0.639417
O8    O     O_R   0.264150 0.413510 0.496120 -0.639419
Zn1   Zn    Zn3+2 0.491780 0.406400 0.495810 0.940445
Zn2   Zn    Zn3+2 0.508220 0.593600 0.504190 0.940442
N7    N     N_3   0.047138 0.591801 0.566173 -0.427366
H5    H     H_    0.032045 0.650426 0.540832 0.197370
H6    H     H_    0.995348 0.583081 0.620805 0.166019
N8    N     N_3   0.952862 0.408200 0.433826 -0.427367
H7    H     H_    0.967954 0.349575 0.459167 0.197367
H8    H     H_    0.004654 0.416920 0.379194 0.166020
C29   C     C_3   0.349088 0.319102 0.905024 -0.940841
H9    H     H_    0.398489 0.264473 0.889454 0.237636
H10   H     H_    0.363333 0.321479 0.970764 0.254384
H11   H     H_    0.220658 0.309101 0.887489 0.240066
C30   C     C_3   0.650639 0.680918 0.094948 -0.940855
H12   H     H_    0.601339 0.735559 0.110573 0.237629
H13   H     H_    0.779095 0.690884 0.112418 0.240078
H14   H     H_    0.636251 0.678562 0.029208 0.254377
N9    N     N_3   0.342794 0.336452 0.732483 -0.430752
H15   H     H_    0.391041 0.282694 0.747957 0.192506
H16   H     H_    0.224488 0.325254 0.746025 0.185543
N10   N     N_3   0.657199 0.663534 0.267495 -0.430775
H17   H     H_    0.608957 0.717301 0.252065 0.192513
H18   H     H_    0.775472 0.674724 0.253898 0.185547
C31   C     C_3   0.706878 0.287982 0.596376 -0.821251
H19   H     H_    0.692600 0.351606 0.604195 0.287255
H20   H     H_    0.694166 0.255458 0.656137 0.198878
H21   H     H_    0.828869 0.290374 0.578886 0.211481
C32   C     C_3   0.293127 0.712020 0.403621 -0.821250
H22   H     H_    0.307400 0.648394 0.395805 0.287255
H23   H     H_    0.171135 0.709630 0.421109 0.211484
H24   H     H_    0.305845 0.744541 0.343860 0.198879
N11   N     N_3   0.718058 0.118587 0.570094 -0.441589
H25   H     H_    0.826802 0.150967 0.552422 0.189877
H26   H     H_    0.713765 0.121249 0.631557 0.193247
N12   N     N_3   0.281949 0.881415 0.429901 -0.441589
H27   H     H_    0.173204 0.849035 0.447572 0.189878
H28   H     H_    0.286247 0.878752 0.368439 0.193248
C33   C     C_3   0.759923 0.907579 0.615146 -0.867309
H29   H     H_    0.851508 0.875289 0.646144 0.238676
H30   H     H_    0.822921 0.959264 0.577052 0.254241
H31   H     H_    0.702371 0.934668 0.661175 0.245836
C34   C     C_3   0.240068 0.092419 0.384861 -0.867304
H32   H     H_    0.148477 0.124707 0.353867 0.238676
H33   H     H_    0.297613 0.065330 0.338830 0.245837
H34   H     H_    0.177077 0.040733 0.422957 0.254241
C35   C     C_3   0.748648 0.725734 0.613243 -0.847310
H35   H     H_    0.869581 0.750159 0.594533 0.213314
H36   H     H_    0.740600 0.739929 0.676057 0.213004
H37   H     H_    0.731565 0.658113 0.613597 0.276234
C36   C     C_3   0.251346 0.274264 0.386760 -0.847313
H38   H     H_    0.130414 0.249842 0.405474 0.213313
H39   H     H_    0.268434 0.341886 0.386404 0.276231
H40   H     H_    0.259387 0.260066 0.323947 0.213011

loop_
_geom_bond_atom_site_label_1
_geom_bond_atom_site_label_2
_ccdc_geom_bond_type
N10   H18   S    
C29   H9    S    
C4    N4    A    
C2    C18   S    
C32   H22   S    
C36   H38   S    
C34   H32   S    
N9    H16   S    
C36   H40   S    
C14   O8    A    
N11   H25   S    
O1    Zn1   S    
C19   C21   A    
C24   C26   A    
C15   C16   D    
N4    Zn1   S    
O2    Zn2   S    
C31   H20   S    
C23   N1    S    
C12   C36   S    
C12   N4    A    
C26   C30   S    
C18   C20   A    
C23   C25   A    
N10   H17   S    
C30   H12   S    
C32   H23   S    
C8    N6    S    
N3    Zn2   S    
C4    C31   S    
N8    H8    S    
C20   H1    S    
N11   H26   S    
C21   C23   A    
C21   H4    S    
C10   C34   S    
C30   H13   S    
C22   H3    S    
C17   C27   A    
C25   C29   S    
C18   C28   A    
C4    C6    A    
C35   H35   S    
C5    C7    A    
C6    N11   S    
C6    C8    A    
N7    H6    S    
C24   N2    S    
C31   H21   S    
C28   N10   S    
N5    N6    D    
C11   C35   S    
C35   H36   S    
C33   H29   S    
C3    N3    A    
N1    N2    D    
C7    N5    S    
C5    N12   S    
C9    C11   A    
C10   C12   A    
C9    C33   S    
N12   H28   S    
C33   H30   S    
C20   C22   A    
C13   C15   S    
C32   H24   S    
C22   C24   A    
C34   H34   S    
C13   O5    A    
N8    H7    S    
C14   O6    A    
O7    Zn2   S    
C1    O3    A    
C7    C9    A    
O8    Zn1   S    
C30   H14   S    
C1    C17   S    
C16   N8    S    
N12   H27   S    
C3    C5    A    
C36   H39   S    
C25   C27   A    
C26   C28   A    
C29   H10   S    
C35   H37   S    
C13   O7    A    
C2    O4    A    
C11   N3    A    
C17   C19   A    
O3    Zn2   S    
C14   C16   S    
O4    Zn1   S    
C15   N7    S    
C31   H19   S    
C3    C32   S    
C1    O1    A    
N9    H15   S    
C2    O2    A    
C33   H31   S    
C8    C10   A    
N7    H5    S    
C29   H11   S    
C34   H33   S    
C27   N9    S    
C19   H2    S    
O5    Zn1   S    
O6    Zn2   S    
