data_mof_unit_49937.cif
_audit_creation_date              2013-03-05T15:48:19-0500
_audit_creation_method            fapswitch 2.2
_symmetry_space_group_name_H-M    P1
_symmetry_Int_Tables_number       1
_space_group_crystal_system       triclinic
_cell_length_a                    21.026569
_cell_length_b                    7.233429
_cell_length_c                    18.474454
_cell_angle_alpha                 90.550072
_cell_angle_beta                  93.151383
_cell_angle_gamma                 90.462633
_cell_volume                      2805.37462055

loop_
_atom_site_label
_atom_site_type_symbol
_atom_site_description
_atom_site_fract_x
_atom_site_fract_y
_atom_site_fract_z
_atom_type_partial_charge
O1    O     O_R   0.448880 0.506250 0.415280 -0.572388
O2    O     O_R   0.551120 0.006250 0.584720 -0.597738
O3    O     O_R   0.434830 0.174000 0.557310 -0.578153
O4    O     O_R   0.565170 0.674000 0.442690 -0.548192
C1    C     C_R   0.418222 0.344242 0.581254 0.930652
C2    C     C_R   0.581616 0.844207 0.418596 0.939531
O5    O     O_R   0.441680 0.176440 0.414130 -0.581747
O6    O     O_R   0.558320 0.676440 0.585870 -0.563773
O7    O     O_R   0.558020 0.007570 0.440520 -0.578223
O8    O     O_R   0.441980 0.507570 0.559480 -0.536837
C3    C     C_R   0.427032 0.343965 0.388990 0.853374
C4    C     C_R   0.572872 0.846339 0.610929 0.863642
O9    O     O_3   0.538160 0.339670 0.508820 -0.274063
O10   O     O_3   0.461840 0.839670 0.491180 -0.260154
V1    V     V_3+5 0.492920 0.064260 0.498360 1.181617
V2    V     V_3+5 0.507080 0.564260 0.501640 1.219990
C5    C     C_R   0.884544 0.840739 0.692509 -0.249989
C6    C     C_R   0.124672 0.553670 0.305820 -0.251472
H1    H     H_    0.809769 0.795304 0.577239 0.167178
H2    H     H_    0.201050 0.558172 0.421054 0.170182
H3    H     H_    0.908141 0.809991 0.643115 0.177177
H4    H     H_    0.104615 0.607878 0.354441 0.176389
C7    C     C_R   0.890876 0.930333 0.818984 -0.292579
C8    C     C_R   0.110331 0.451577 0.180904 -0.296550
C9    C     C_R   0.580820 0.865683 0.745024 -0.145647
C10   C     C_R   0.415010 0.295840 0.255698 -0.144437
C11   C     C_R   0.615040 0.852988 0.812711 -0.208332
C12   C     C_R   0.381937 0.317449 0.187705 -0.191118
C13   C     C_R   0.682268 0.844093 0.816379 0.307535
C14   C     C_R   0.318388 0.380056 0.183606 0.298397
C15   C     C_R   0.716878 0.861986 0.752464 -0.053560
C16   C     C_R   0.284411 0.400838 0.247744 -0.035070
C17   C     C_R   0.682066 0.854295 0.683004 0.003946
C18   C     C_R   0.319464 0.396697 0.317039 0.004007
C19   C     C_R   0.785588 0.878893 0.755092 0.138910
C20   C     C_R   0.216724 0.435185 0.244850 0.141160
C21   C     C_R   0.817836 0.843034 0.691504 0.082922
C22   C     C_R   0.188975 0.503400 0.307453 0.082351
C23   C     C_R   0.783868 0.816520 0.625898 -0.165436
C24   C     C_R   0.224321 0.513393 0.372917 -0.170212
C25   C     C_R   0.717941 0.834731 0.619835 -0.059194
C26   C     C_R   0.286509 0.447993 0.379786 -0.067515
C27   C     C_R   0.823816 0.935524 0.817573 -0.192146
C28   C     C_R   0.174873 0.399054 0.182900 -0.193812
C29   C     C_R   0.921570 0.880624 0.755814 0.354172
C30   C     C_R   0.085176 0.531276 0.243056 0.362579
C31   C     C_R   0.613394 0.858753 0.680008 -0.214739
C32   C     C_R   0.385888 0.347067 0.320192 -0.219823
H5    H     H_    0.802948 0.987104 0.865608 0.173405
H6    H     H_    0.191026 0.328632 0.135784 0.176735
C33   C     C_1   0.864149 0.939019 0.131621 -0.190891
C34   C     C_1   0.135811 0.438949 0.868309 -0.189710
C35   C     C_1   0.820960 0.924913 0.174948 0.134460
C36   C     C_1   0.178946 0.424731 0.824924 0.138425
C37   C     C_1   0.769953 0.905725 0.226494 0.050958
C38   C     C_1   0.229878 0.405331 0.773307 0.056296
C39   C     C_1   0.727028 0.889036 0.270030 0.037300
C40   C     C_1   0.272746 0.388453 0.729714 0.045524
C41   C     C_1   0.676169 0.869834 0.321753 0.109107
C42   C     C_1   0.323558 0.369112 0.677950 0.120157
C43   C     C_1   0.633319 0.855675 0.365499 -0.211290
C44   C     C_1   0.366416 0.355084 0.634214 -0.216910
O11   O     O_R   0.058070 0.289240 0.940580 -0.553105
O12   O     O_R   0.941930 0.789240 0.059420 -0.548057
O13   O     O_R   0.058330 0.616740 0.085880 -0.577756
O14   O     O_R   0.941670 0.116740 0.914120 -0.574698
C45   C     C_R   0.071964 0.450118 0.111443 1.024279
C46   C     C_R   0.928193 0.947121 0.888667 1.023809
O15   O     O_R   0.065180 0.619040 0.942700 -0.557229
O16   O     O_R   0.934820 0.119040 0.057300 -0.562383
O17   O     O_R   0.948870 0.787780 0.915270 -0.578838
O18   O     O_R   0.051130 0.287780 0.084730 -0.579716
C47   C     C_R   0.083292 0.450344 0.920291 0.942034
C48   C     C_R   0.916721 0.950369 0.079689 0.943719
O19   O     O_3   0.961870 0.453310 0.991210 -0.269752
O20   O     O_3   0.038130 0.953310 0.008790 -0.273449
V3    V     V_3+5 0.007070 0.728770 0.001630 1.272245
V4    V     V_3+5 0.992930 0.228770 0.998370 1.260881
N1    N     N_R   0.990006 0.872507 0.754555 0.229867
O21   O     O_R   0.026124 0.985081 0.794203 -0.405018
O22   O     O_R   0.016456 0.763934 0.708568 -0.380428
N2    N     N_R   0.019482 0.586415 0.243996 0.230770
O23   O     O_R   0.975007 0.493683 0.207369 -0.404513
O24   O     O_R   0.003038 0.718791 0.287183 -0.384482
C49   C     C_2   0.509629 0.872886 0.740861 0.488334
H7    H     H_    0.484852 0.958141 0.700583 0.033576
O25   O     O_2   0.478015 0.778264 0.780102 -0.567012
C50   C     C_2   0.481919 0.226046 0.259751 0.517532
H8    H     H_    0.516308 0.277535 0.301200 0.011797
O26   O     O_2   0.498739 0.105785 0.218260 -0.570291
N3    N     N_R   0.714284 0.795594 0.884184 0.236148
O27   O     O_R   0.746809 0.643517 0.889239 -0.369535
O28   O     O_R   0.710620 0.901923 0.941053 -0.385595
N4    N     N_R   0.293755 0.459795 0.116799 0.218221
O29   O     O_R   0.283706 0.358607 0.058616 -0.356511
O30   O     O_R   0.278159 0.633508 0.115241 -0.373459
C51   C     C_2   0.579778 0.848117 0.880352 0.770331
H9    H     H_    0.540806 0.942892 0.887440 0.017328
O31   O     O_2   0.592126 0.733978 0.927209 -0.505836
C52   C     C_2   0.417019 0.295519 0.120537 0.774744
H10   H     H_    0.463913 0.357788 0.117386 -0.002608
O32   O     O_2   0.395555 0.199929 0.070033 -0.493974
C53   C     C_2   0.690788 0.839195 0.545021 0.502034
H11   H     H_    0.661699 0.954755 0.527506 -0.013395
O33   O     O_2   0.703601 0.718165 0.501718 -0.580268
C54   C     C_2   0.311662 0.423683 0.454872 0.537302
H12   H     H_    0.333151 0.293840 0.470705 -0.033461
O34   O     O_2   0.305524 0.545208 0.500264 -0.579957

loop_
_geom_bond_atom_site_label_1
_geom_bond_atom_site_label_2
_geom_bond_distance
_ccdc_geom_bond_type
O14   C46   1.332450 A    
C7    C29   1.409340 A    
O16   V4    1.858864 S    
O12   V3    1.835391 S    
O15   V3    1.858363 S    
O1    C3    1.334443 A    
C33   C48   1.505251 S    
O17   V3    2.008002 S    
O2    C4    1.332870 A    
C2    O7    1.352385 A    
C51   H9    1.085253 S    
C23   C25   1.392007 A    
C49   H7    1.084811 S    
O5    C3    1.334199 A    
C16   C20   1.444900 A    
C2    C43   1.506095 S    
C19   C21   1.411283 A    
C5    C29   1.395323 A    
H2    C24   1.086306 S    
C39   C41   1.479358 S    
C11   C13   1.413472 A    
C54   H12   1.081392 S    
C40   C42   1.479118 S    
C7    C27   1.409662 A    
C42   C44   1.247087 T    
C45   O18   1.330843 A    
O18   V4    1.997257 S    
C8    C45   1.477635 S    
C30   N2    1.441810 S    
C53   O33   1.221914 D    
O13   C45   1.326453 A    
C18   C26   1.430319 A    
O16   C48   1.350543 A    
C15   C17   1.442309 A    
O15   C47   1.349292 A    
C19   C27   1.424748 A    
C9    C31   1.415688 A    
C10   C32   1.416802 A    
C12   C52   1.485879 S    
C24   C26   1.393785 A    
O6    V2    2.004497 S    
C22   C24   1.385229 A    
C13   C15   1.427069 A    
C3    C32   1.498111 S    
C4    C31   1.496577 S    
C6    C30   1.395998 A    
C52   O32   1.220083 D    
C51   O31   1.221025 D    
C34   C36   1.247183 T    
C35   C37   1.479459 S    
O14   V4    2.004553 S    
C36   C38   1.479219 S    
C41   C43   1.247237 T    
O13   V3    2.023575 S    
C49   O25   1.221086 D    
O20   V3    1.746788 S    
O4    C2    1.361646 A    
C34   C47   1.505005 S    
N3    O27   1.301391 A    
N1    O22   1.301577 A    
C27   H5    1.076254 S    
O5    V1    2.023542 S    
O11   C47   1.341650 A    
C5    H3    1.084451 S    
C25   C53   1.466879 S    
C33   C35   1.247329 T    
C16   C18   1.442344 A    
C7    C46   1.473811 S    
O4    V2    1.858840 S    
N3    O28   1.302167 A    
O6    C4    1.336301 A    
C9    C49   1.495984 S    
C29   N1    1.442115 S    
O1    V2    1.995818 S    
C5    C21   1.401970 A    
N4    O30   1.301367 A    
O2    V1    2.006388 S    
C26   C54   1.469843 S    
H1    C23   1.086628 S    
C50   O26   1.221199 D    
N2    O24   1.301532 A    
C37   C39   1.247396 T    
C17   C31   1.442599 A    
C15   C19   1.447032 A    
C20   C28   1.425602 A    
C18   C32   1.443088 A    
C13   N3    1.436989 S    
O3    V1    1.858332 S    
C28   H6    1.076691 S    
C11   C51   1.488238 S    
C6    H4    1.084430 S    
O3    C1    1.359231 A    
C9    C11   1.412180 A    
C10   C12   1.412571 A    
C8    C30   1.410503 A    
C20   C22   1.410471 A    
C6    C22   1.401742 A    
C17   C25   1.430474 A    
C1    O8    1.352334 A    
C14   N4    1.439610 S    
O8    V2    1.828615 S    
C14   C16   1.424225 A    
C54   O34   1.221546 D    
C46   O17   1.324572 A    
C8    C28   1.410863 A    
C12   C14   1.412670 A    
C52   H10   1.085437 S    
C38   C40   1.247247 T    
C1    C44   1.505687 S    
O7    V1    1.828974 S    
N4    O29   1.301233 A    
O19   V4    1.758916 S    
N1    O21   1.301432 A    
C21   C23   1.383502 A    
C50   H8    1.085006 S    
C10   C50   1.496792 S    
N2    O23   1.301492 A    
O9    V2    1.759431 S    
C53   H11   1.081298 S    
O12   C48   1.342768 A    
O10   V1    1.747293 S    
O11   V4    1.835005 S    
