data_mof_unit_11638.cif
_audit_creation_date              2012-10-26T19:35:16-0400
_audit_creation_method            fapswitch 2.2
_symmetry_space_group_name_H-M    P1
_symmetry_Int_Tables_number       1
_space_group_crystal_system       triclinic
_cell_length_a                    10.775593
_cell_length_b                    10.820223
_cell_length_c                    9.541644
_cell_angle_alpha                 90.188559
_cell_angle_beta                  90.037507
_cell_angle_gamma                 90.055229
_cell_volume                      1112.49470439

loop_
_atom_site_label
_atom_site_type_symbol
_atom_type_description
_atom_site_fract_x
_atom_site_fract_y
_atom_site_fract_z
_atom_type_partial_charge
C1    C     C_R   0.497564 0.262330 0.499741 0.533792
C2    C     C_R   0.476141 0.935187 0.371933 -0.167952
C3    C     C_R   0.483996 0.870853 0.499578 -0.005462
C4    C     C_R   0.262588 0.495646 0.499983 0.540879
C5    C     C_R   0.472828 0.937091 0.624893 0.094280
C6    C     C_3   0.548071 0.931681 0.757097 -0.099480
C7    C     C_3   0.549394 0.072456 0.755391 -0.280348
C8    C     C_R   0.564521 0.588046 0.074008 0.168737
C9    C     C_R   0.427437 0.420368 0.074091 -0.005666
C10   C     C_R   0.427383 0.420394 0.925157 -0.002040
C11   C     C_R   0.564826 0.587703 0.926676 0.197895
C12   C     C_R   0.065639 0.394836 0.577075 0.027141
C13   C     C_3   0.701212 0.610489 0.921077 -0.281510
C14   C     C_3   0.700903 0.611235 0.080080 -0.288529
C15   C     C_R   0.497344 0.737741 0.500124 0.552479
C16   C     C_R   0.737410 0.495677 0.500055 0.534846
C17   C     C_R   0.129501 0.300295 0.649484 -0.107338
C18   C     C_R   0.064607 0.209802 0.722935 -0.119376
C19   C     C_R   0.935546 0.210257 0.723798 -0.125147
C20   C     C_R   0.870584 0.301097 0.651006 -0.114018
C21   C     C_R   0.934391 0.395097 0.577565 0.025126
C22   C     C_2   0.478997 0.880163 0.881174 0.225006
C23   C     C_R   0.128892 0.486796 0.499732 0.006214
C24   C     C_R   0.063975 0.572551 0.419198 -0.145129
C25   C     C_R   0.936021 0.572567 0.419279 -0.157445
C26   C     C_R   0.871110 0.486973 0.500101 0.000369
C27   C     C_R   0.474075 0.064344 0.624194 0.000818
C28   C     C_R   0.484465 0.129351 0.498768 -0.001763
C29   C     C_R   0.476141 0.063982 0.371547 -0.161554
Cu1   Cu    Cu3+1 0.499990 0.499980 0.640670 0.961939
Cu2   Cu    Cu3+1 0.500010 0.500020 0.359330 0.938582
H1    H     H_    0.112781 0.641763 0.358480 0.135954
H2    H     H_    0.722941 0.703279 0.125871 0.118366
H3    H     H_    0.229525 0.293430 0.647912 0.128895
H4    H     H_    0.114723 0.138036 0.777830 0.126218
H5    H     H_    0.885512 0.138855 0.779460 0.106811
H6    H     H_    0.770528 0.295007 0.650830 0.134017
H7    H     H_    0.887229 0.641725 0.358522 0.120062
H8    H     H_    0.476358 0.111546 0.271830 0.133406
H9    H     H_    0.476565 0.886787 0.272379 0.141540
H10   H     H_    0.519075 0.889321 0.985036 0.078856
H11   H     H_    0.641187 0.889617 0.741533 0.087005
H12   H     H_    0.496795 0.117206 0.842081 0.129521
H13   H     H_    0.643295 0.111693 0.736920 0.114107
H14   H     H_    0.370656 0.354233 0.129701 0.115738
H15   H     H_    0.370552 0.354282 0.869013 0.108652
H16   H     H_    0.753799 0.531344 0.876295 0.159860
H17   H     H_    0.723828 0.701980 0.875107 0.118601
H18   H     H_    0.753690 0.532734 0.125425 0.160815
N1    N     N_R   0.500790 0.500930 0.147930 -0.232116
N2    N     N_R   0.500790 0.500890 0.852020 -0.224751
O1    O     O_R   0.500000 0.319640 0.618810 -0.523567
O2    O     O_R   0.500010 0.319680 0.381230 -0.512263
O3    O     O_R   0.319640 0.499980 0.618820 -0.491836
O4    O     O_R   0.319650 0.500020 0.381230 -0.501903
O5    O     O_R   0.499990 0.680320 0.618770 -0.462717
O6    O     O_R   0.500000 0.680360 0.381190 -0.507451
O7    O     O_R   0.680350 0.499980 0.618770 -0.518712
O8    O     O_R   0.680360 0.500020 0.381180 -0.505569
O9    O     O_2   0.379422 0.827498 0.867073 -0.482881

loop_
_geom_bond_atom_site_label_1
_geom_bond_atom_site_label_2
_ccdc_geom_bond_type
C12   C17   A    
C10   H15   S    
C13   H17   S    
C8    C14   S    
Cu1   N2    S    
C24   H1    S    
C9    H14   S    
C6    C7    S    
C7    H12   S    
C25   H7    S    
C1    C28   S    
Cu1   O3    S    
C9    C10   A    
C19   C20   A    
C23   C24   A    
C4    O3    A    
C15   O5    A    
C29   H8    S    
C14   H2    S    
C17   C18   A    
C7    C27   S    
C16   O7    A    
C13   C14   S    
C24   C25   A    
C16   C26   S    
C20   H6    S    
C11   C13   S    
C12   C23   A    
Cu2   O6    S    
Cu1   Cu2   S    
C2    C29   A    
C15   O6    A    
C10   N2    A    
Cu1   O7    S    
C28   C29   A    
C21   C26   A    
C6    H11   S    
C2    C3    A    
C8    N1    A    
C19   H5    S    
C8    C11   A    
C4    O4    A    
C22   O9    D    
C5    C6    S    
C1    O1    A    
C22   H10   S    
C11   N2    A    
C17   H3    S    
Cu2   N1    S    
C14   H18   S    
C2    H9    S    
C3    C15   S    
C20   C21   A    
C18   C19   A    
C18   H4    S    
Cu2   O8    S    
C27   C28   A    
C13   H16   S    
C4    C23   S    
C1    O2    A    
Cu1   O1    S    
Cu2   O4    S    
C25   C26   A    
C5    C27   A    
Cu1   O5    S    
C12   C21   A    
C7    H13   S    
Cu2   O2    S    
C9    N1    A    
C3    C5    A    
C16   O8    A    
C6    C22   S    
