data_mof_unit_9261.cif
_audit_creation_date              2012-12-10T17:18:21-0500
_audit_creation_method            fapswitch 2.2
_symmetry_space_group_name_H-M    P1
_symmetry_Int_Tables_number       1
_space_group_crystal_system       triclinic
_cell_length_a                    10.140304
_cell_length_b                    10.829889
_cell_length_c                    14.872367
_cell_angle_alpha                 89.173743
_cell_angle_beta                  83.243979
_cell_angle_gamma                 94.384662
_cell_volume                      1616.71870438

loop_
_atom_site_label
_atom_site_type_symbol
_atom_type_description
_atom_site_fract_x
_atom_site_fract_y
_atom_site_fract_z
_atom_type_partial_charge
C1    C     C_R   0.555030 0.733289 0.492544 0.775045
C2    C     C_2   0.076084 0.505479 0.482873 0.014325
C3    C     C_R   0.501954 0.497595 0.672673 0.859452
C4    C     C_R   0.497306 0.501336 0.327409 0.852873
C5    C     C_R   0.457391 0.390639 0.192413 -0.229252
C6    C     C_R   0.518161 0.608683 0.810304 -0.227467
C7    C     C_R   0.488481 0.501650 0.232956 -0.049017
C8    C     C_R   0.506561 0.496549 0.767628 -0.056577
C9    C     C_R   0.505803 0.613145 0.184634 -0.222173
C10   C     C_R   0.487276 0.384728 0.815758 -0.219206
C11   C     C_R   0.496493 0.613879 0.092110 -0.034344
C12   C     C_R   0.444023 0.266338 0.503984 0.779125
C13   C     C_R   0.469020 0.384436 0.910072 -0.035247
C14   C     C_R   0.480906 0.499625 0.048250 -0.069949
C15   C     C_R   0.486480 0.498213 0.954216 -0.068419
C16   C     C_R   0.462150 0.386925 0.098624 -0.036130
C17   C     C_R   0.513199 0.610616 0.903889 -0.039994
C18   C     C_R   0.508719 0.726205 0.041984 0.386699
C19   C     C_R   0.436618 0.273390 0.961424 0.392621
C20   C     C_3   0.368632 0.851037 0.124175 0.085971
C21   C     C_3   0.275673 0.880205 0.053763 -0.297079
C22   C     C_3   0.138817 0.907957 0.099847 -0.982353
C23   C     C_R   0.534846 0.723253 0.947811 0.380569
C24   C     C_3   0.268051 0.174519 0.888835 0.087102
C25   C     C_3   0.156572 0.221205 0.956883 -0.384682
C26   C     C_3   0.039294 0.255799 0.908476 -0.978326
C27   C     C_3   0.720360 0.814163 0.861815 0.063195
C28   C     C_3   0.816202 0.902741 0.905285 -0.348346
C29   C     C_3   0.960259 0.886047 0.869893 -1.028973
C30   C     C_3   0.571628 0.142339 0.127698 0.089275
C31   C     C_3   0.674229 0.117369 0.047552 -0.301166
C32   C     C_3   0.807403 0.095756 0.080733 -1.038582
C33   C     C_3   0.185951 0.111942 0.554111 0.103188
C34   C     C_R   0.448786 0.273269 0.054328 0.382865
C35   C     C_3   0.140742 0.165969 0.646218 -0.370543
C36   C     C_3   0.011079 0.227655 0.644480 -0.845784
C37   C     C_3   0.709636 0.931124 0.593445 0.057997
C38   C     C_3   0.657962 0.053245 0.628690 -0.347332
C39   C     C_3   0.684785 0.077538 0.725827 -0.958555
C40   C     C_3   0.149652 0.699599 0.640835 0.202744
C41   C     C_3   0.184261 0.698467 0.738212 -0.356507
C42   C     C_3   0.265919 0.817102 0.758582 -0.927610
C43   C     C_3   0.867704 0.281843 0.379806 0.163083
C44   C     C_3   0.926104 0.155857 0.379204 -0.376974
C45   C     C_2   0.583615 0.867464 0.481487 0.334937
C46   C     C_3   0.908762 0.086966 0.292568 -0.952929
C47   C     C_2   0.412031 0.131803 0.497377 0.259199
C48   C     C_2   0.489436 0.933359 0.452154 -0.203036
C49   C     C_2   0.502298 0.067899 0.448346 -0.232985
C50   C     C_2   0.930002 0.526091 0.493298 0.082368
H1    H     H_    0.434121 0.307281 0.234366 0.139261
H2    H     H_    0.071591 0.924158 0.048003 0.271507
H3    H     H_    0.147382 0.992068 0.141313 0.279697
H4    H     H_    0.233407 0.080995 0.867566 0.157215
H5    H     H_    0.280335 0.232291 0.826084 0.143528
H6    H     H_    0.122674 0.148365 0.009440 0.232326
H7    H     H_    0.191751 0.305414 0.991491 0.218601
H8    H     H_    0.072133 0.331423 0.857634 0.278246
H9    H     H_    0.960486 0.289402 0.958235 0.277827
H10   H     H_    0.996940 0.174688 0.873770 0.268755
H11   H     H_    0.729650 0.835150 0.788054 0.150244
H12   H     H_    0.530674 0.693875 0.770004 0.149091
H13   H     H_    0.753032 0.718523 0.868921 0.140957
H14   H     H_    0.794799 0.999390 0.890620 0.238015
H15   H     H_    0.802029 0.883765 0.979484 0.252763
H16   H     H_    0.988180 0.796037 0.895257 0.279944
H17   H     H_    0.026131 0.960342 0.895429 0.268982
H18   H     H_    0.974356 0.890592 0.794686 0.269818
H19   H     H_    0.560221 0.061254 0.175183 0.172387
H20   H     H_    0.612489 0.220390 0.166165 0.119400
H21   H     H_    0.636557 0.035505 0.011809 0.296807
H22   H     H_    0.689732 0.197817 0.999270 0.199674
H23   H     H_    0.527025 0.698489 0.219395 0.148490
H24   H     H_    0.843273 0.178468 0.116707 0.273010
H25   H     H_    0.883109 0.081351 0.023000 0.284780
H26   H     H_    0.797177 0.012421 0.126112 0.289796
H27   H     H_    0.591001 0.113604 0.410354 0.156086
H28   H     H_    0.393733 0.888634 0.439774 0.153953
H29   H     H_    0.114588 0.032183 0.542793 0.136315
H30   H     H_    0.180412 0.179159 0.497638 0.142743
H31   H     H_    0.125506 0.090457 0.698635 0.200906
H32   H     H_    0.218519 0.235239 0.665366 0.240890
H33   H     H_    0.029360 0.313943 0.602830 0.312212
H34   H     H_    0.484580 0.299179 0.779001 0.146017
H35   H     H_    0.970754 0.251354 0.714133 0.258391
H36   H     H_    0.936615 0.164862 0.615308 0.264804
H37   H     H_    0.815684 0.929323 0.605237 0.153365
H38   H     H_    0.654560 0.850804 0.632861 0.102888
H39   H     H_    0.705841 0.131291 0.584129 0.263454
H40   H     H_    0.548826 0.049908 0.627315 0.249772
H41   H     H_    0.613877 0.018026 0.773453 0.310199
H42   H     H_    0.670205 0.175674 0.741714 0.275535
H43   H     H_    0.788572 0.059857 0.735406 0.261242
H44   H     H_    0.116262 0.455341 0.424556 0.109892
H45   H     H_    0.371033 0.927971 0.172459 0.184136
H46   H     H_    0.898445 0.612486 0.521300 0.115252
H47   H     H_    0.071152 0.764786 0.635825 0.089907
H48   H     H_    0.236972 0.737124 0.594285 0.180414
H49   H     H_    0.090764 0.686703 0.785056 0.207890
H50   H     H_    0.241174 0.618262 0.751163 0.259275
H51   H     H_    0.363409 0.824677 0.715330 0.270126
H52   H     H_    0.284299 0.815639 0.830715 0.272562
H53   H     H_    0.212193 0.899630 0.745434 0.264149
H54   H     H_    0.927230 0.343010 0.326473 0.108289
H55   H     H_    0.762498 0.271053 0.365356 0.162897
H56   H     H_    0.325328 0.768097 0.165473 0.118794
H57   H     H_    0.034027 0.169435 0.386079 0.200748
H58   H     H_    0.876971 0.098622 0.437910 0.272850
H59   H     H_    0.801704 0.075723 0.282595 0.267419
H60   H     H_    0.946354 0.993703 0.297125 0.278221
H61   H     H_    0.967129 0.138574 0.234190 0.263309
H62   H     H_    0.319825 0.961149 0.011252 0.300838
H63   H     H_    0.263231 0.799795 0.009125 0.190042
H64   H     H_    0.093984 0.828395 0.144021 0.264631
N1    N     N_2   0.842700 0.448880 0.462930 0.039648
N2    N     N_2   0.157300 0.551120 0.537070 0.041971
O1    O     O_R   0.431060 0.692470 0.507460 -0.660898
O2    O     O_3   0.391881 0.163643 0.923808 -0.627269
O3    O     O_3   0.587179 0.829838 0.899823 -0.630118
O4    O     O_3   0.444464 0.160669 0.100594 -0.632595
O5    O     O_3   0.312358 0.066243 0.555863 -0.658547
O6    O     O_3   0.705118 0.924027 0.498685 -0.650894
O7    O     O_3   0.098118 0.580322 0.619367 -0.579488
O8    O     O_3   0.874896 0.330788 0.466056 -0.584907
O9    O     O_R   0.568940 0.307530 0.492540 -0.611140
O10   O     O_R   0.651120 0.659650 0.483670 -0.604589
O11   O     O_R   0.348880 0.340350 0.516330 -0.615064
O12   O     O_R   0.389960 0.516440 0.644050 -0.598714
O13   O     O_R   0.610040 0.483560 0.355950 -0.627605
O14   O     O_R   0.610030 0.483620 0.620260 -0.595263
O15   O     O_R   0.389970 0.516380 0.379740 -0.632973
O16   O     O_3   0.501225 0.839449 0.083661 -0.640890
Zn1   Zn    Zn3+2 0.353060 0.521920 0.515880 0.949952
Zn2   Zn    Zn3+2 0.646940 0.478080 0.484120 0.974748

loop_
_geom_bond_atom_site_label_1
_geom_bond_atom_site_label_2
_ccdc_geom_bond_type
O9    Zn2   S    
C11   C18   A    
N2    O7    S    
C3    O14   A    
C41   C42   S    
C37   H38   S    
C18   O16   S    
C35   C36   S    
C25   H6    S    
O1    Zn1   S    
C42   H53   S    
C30   H19   S    
C32   H25   S    
C35   H31   S    
C47   C49   D    
C12   O11   A    
C24   H5    S    
C38   H39   S    
C17   C23   A    
C25   H7    S    
C28   C29   S    
C12   C47   S    
C23   O3    S    
C30   C31   S    
C11   C14   A    
C47   O5    S    
C36   H33   S    
C24   H4    S    
C15   C17   A    
C50   N1    D    
C43   H55   S    
C48   H28   S    
C6    C17   A    
C43   H54   S    
C39   H43   S    
C5    C16   A    
C2    C50   S    
C16   C34   A    
C29   H17   S    
C2    N2    D    
C19   O2    S    
C41   H49   S    
C4    O15   A    
C27   H11   S    
C26   H9    S    
C31   H21   S    
C21   C22   S    
C33   O5    S    
O14   Zn2   S    
C9    H23   S    
C20   O16   S    
C4    C7    S    
C42   H52   S    
C39   H41   S    
C30   H20   S    
C35   H32   S    
C44   C46   S    
C22   H3    S    
C20   H56   S    
C44   H58   S    
C34   O4    S    
C13   C19   A    
C18   C23   A    
C2    H44   S    
C1    O10   A    
C21   H63   S    
C3    C8    S    
C40   H47   S    
C5    C7    A    
C3    O12   A    
C33   H29   S    
C6    C8    A    
N2    Zn1   S    
C45   C48   D    
C36   H36   S    
C25   C26   S    
C19   C34   A    
C29   H16   S    
C43   C44   S    
C37   C38   S    
C29   H18   S    
C26   H8    S    
C31   C32   S    
C40   H48   S    
C41   H50   S    
C1    O1    A    
C24   C25   S    
C9    C11   A    
C27   H13   S    
C28   H14   S    
C40   C41   S    
C20   H45   S    
C46   H60   S    
C45   O6    S    
C14   C16   A    
C42   H51   S    
C39   H42   S    
C21   H62   S    
C22   H2    S    
C44   H57   S    
C7    C9    A    
C40   O7    S    
C31   H22   S    
N1    O8    S    
C37   H37   S    
O11   Zn1   S    
O15   Zn1   S    
C10   C13   A    
C32   H26   S    
C33   H30   S    
C4    O13   A    
C12   O9    A    
N1    Zn2   S    
C27   O3    S    
C36   H35   S    
C38   H40   S    
C24   O2    S    
C6    H12   S    
C13   C15   A    
C28   H15   S    
C1    C45   S    
O12   Zn1   S    
C32   H24   S    
C50   H46   S    
C38   C39   S    
C30   O4    S    
C48   C49   S    
C10   H34   S    
C33   C35   S    
C49   H27   S    
O13   Zn2   S    
C37   O6    S    
C22   H64   S    
C20   C21   S    
O10   Zn2   S    
C8    C10   A    
C46   H59   S    
C27   C28   S    
C14   C15   A    
C5    H1    S    
C46   H61   S    
C26   H10   S    
C43   O8    S    
