data_mof_unit_40453.cif
_audit_creation_date              2012-12-10T17:30:20-0500
_audit_creation_method            fapswitch 2.2
_symmetry_space_group_name_H-M    P1
_symmetry_Int_Tables_number       1
_space_group_crystal_system       triclinic
_cell_length_a                    12.069403
_cell_length_b                    12.778614
_cell_length_c                    15.017921
_cell_angle_alpha                 91.176328
_cell_angle_beta                  84.999652
_cell_angle_gamma                 91.928347
_cell_volume                      2305.73556356

loop_
_atom_site_label
_atom_site_type_symbol
_atom_type_description
_atom_site_fract_x
_atom_site_fract_y
_atom_site_fract_z
_atom_type_partial_charge
C1    C     C_R   0.520841 0.699732 0.498042 0.926513
C2    C     C_R   0.457084 0.155511 0.600867 -0.252630
C3    C     C_R   0.520810 0.876588 0.559519 0.103346
C4    C     C_R   0.479189 0.123412 0.440482 0.103345
C5    C     C_R   0.495532 0.981186 0.545248 0.030948
C6    C     C_R   0.504469 0.018814 0.454752 0.030948
C7    C     C_R   0.959819 0.392729 0.423386 -0.156874
C8    C     C_R   0.040181 0.607272 0.576612 -0.156874
C9    C     C_R   0.843018 0.404574 0.429037 0.258812
C10   C     C_R   0.156982 0.595426 0.570962 0.258812
C11   C     C_R   0.855631 0.546844 0.531439 -0.009976
C12   C     C_R   0.479159 0.300268 0.501958 0.926513
C13   C     C_R   0.144369 0.453156 0.468560 -0.009974
C14   C     C_R   0.973614 0.538954 0.527473 -0.036882
C15   C     C_R   0.026386 0.461046 0.472527 -0.036881
C16   C     C_R   0.498858 0.495572 0.673157 0.914592
C17   C     C_R   0.501143 0.504429 0.326843 0.914592
C18   C     C_R   0.588156 0.462845 0.179027 -0.207816
C19   C     C_R   0.411847 0.537165 0.820972 -0.207808
C20   C     C_R   0.502505 0.510073 0.230954 -0.126344
C21   C     C_R   0.497495 0.489931 0.769046 -0.126344
C22   C     C_R   0.418831 0.561109 0.191506 0.150771
C23   C     C_R   0.312914 0.571125 0.966177 -0.100292
C24   C     C_R   0.581171 0.438898 0.808495 0.150774
C25   C     C_R   0.408457 0.544404 0.099762 0.012650
C26   C     C_R   0.591546 0.455609 0.900238 0.012650
C27   C     C_R   0.500066 0.501890 0.046456 0.056027
C28   C     C_R   0.499938 0.498124 0.953543 0.056024
C29   C     C_R   0.592104 0.463492 0.086448 0.038930
C30   C     C_R   0.407902 0.536523 0.913551 0.038927
C31   C     C_R   0.310771 0.569755 0.059890 -0.112364
C32   C     C_R   0.689235 0.430262 0.940109 -0.112364
C33   C     C_2   0.011075 0.307753 0.366877 0.933882
C34   C     C_R   0.687095 0.428896 0.033822 -0.100296
C35   C     C_2   0.988926 0.692251 0.633118 0.933876
C36   C     C_2   0.202585 0.580022 0.114763 0.985820
C37   C     C_2   0.797421 0.419999 0.885234 0.985817
C38   C     C_2   0.212484 0.601216 0.923610 0.964916
C39   C     C_2   0.787533 0.398822 0.076389 0.964892
C40   C     C_2   0.580604 0.983935 0.292189 0.974411
C41   C     C_2   0.419396 0.016065 0.707811 0.974413
C42   C     C_R   0.468067 0.190734 0.514010 -0.086415
C43   C     C_R   0.531933 0.809266 0.485990 -0.086414
C44   C     C_R   0.537839 0.950019 0.382669 -0.012399
C45   C     C_R   0.462162 0.049981 0.617331 -0.012401
C46   C     C_R   0.542916 0.844489 0.399133 -0.252630
H1    H     H_    0.653575 0.428093 0.211624 0.194062
H2    H     H_    0.902976 0.477111 0.785070 0.363940
H3    H     H_    0.058944 0.559360 0.889876 0.375664
H4    H     H_    0.941074 0.440706 0.110119 0.375656
H5    H     H_    0.685442 0.079864 0.217556 0.385880
H6    H     H_    0.314559 0.920134 0.782443 0.385885
H7    H     H_    0.346427 0.571915 0.788374 0.194060
H8    H     H_    0.439621 0.210817 0.655754 0.175509
H9    H     H_    0.560380 0.789184 0.344247 0.175509
H10   H     H_    0.186830 0.394105 0.427308 0.176680
H11   H     H_    0.813170 0.605895 0.572692 0.176684
H12   H     H_    0.027988 0.152466 0.346486 0.375238
H13   H     H_    0.972015 0.847541 0.653503 0.375237
H14   H     H_    0.097020 0.522906 0.214919 0.363934
I1    I     I_    0.338661 0.689420 0.264168 -0.202206
I2    I     I_    0.661339 0.310583 0.735838 -0.202210
I3    I     I_    0.430532 0.182705 0.316708 -0.201146
I4    I     I_    0.569468 0.817294 0.683292 -0.201145
I5    I     I_    0.248787 0.695861 0.654559 -0.149690
I6    I     I_    0.751213 0.304140 0.345440 -0.149678
N1    N     N_R   0.207800 0.519350 0.516680 -0.135396
N2    N     N_R   0.792200 0.480650 0.483320 -0.135397
O1    O     O_R   0.421700 0.658830 0.504450 -0.583278
O2    O     O_R   0.988382 0.203356 0.390021 -0.736502
O3    O     O_2   0.927128 0.670903 0.699569 -0.573836
O4    O     O_R   0.011620 0.796648 0.609970 -0.736500
O5    O     O_2   0.141345 0.651629 0.102139 -0.551852
O6    O     O_R   0.171388 0.507307 0.181386 -0.738429
O7    O     O_2   0.858669 0.348398 0.897863 -0.551849
O8    O     O_R   0.828608 0.492708 0.818603 -0.738426
O9    O     O_2   0.208576 0.688549 0.892537 -0.554804
O10   O     O_R   0.122652 0.529786 0.920121 -0.749346
O11   O     O_2   0.791456 0.311489 0.107464 -0.554788
O12   O     O_R   0.578300 0.341170 0.495550 -0.583279
O13   O     O_R   0.877358 0.470269 0.079874 -0.749330
O14   O     O_2   0.549254 0.938077 0.226151 -0.564466
O15   O     O_R   0.661386 0.064712 0.282515 -0.742576
O16   O     O_2   0.450745 0.061923 0.773850 -0.564466
O17   O     O_R   0.338614 0.935287 0.717485 -0.742575
O18   O     O_R   0.609310 0.646410 0.493750 -0.623603
O19   O     O_R   0.390690 0.353590 0.506250 -0.623602
O20   O     O_R   0.406180 0.506230 0.637500 -0.620721
O21   O     O_R   0.593820 0.493770 0.362500 -0.620722
O22   O     O_R   0.593800 0.493820 0.626800 -0.589996
O23   O     O_R   0.406200 0.506180 0.373200 -0.589997
O24   O     O_2   0.072873 0.329106 0.300426 -0.573828
Zn1   Zn    Zn3+2 0.374730 0.508290 0.507150 1.021238
Zn2   Zn    Zn3+2 0.625270 0.491710 0.492850 1.021238

loop_
_geom_bond_atom_site_label_1
_geom_bond_atom_site_label_2
_ccdc_geom_bond_type
C25   C31   A    
C16   O22   A    
C16   C21   S    
C27   C29   A    
H2    O8    S    
C17   O23   A    
C18   H1    S    
C10   N1    A    
C26   C32   A    
C4    I3    S    
C3    C43   A    
H6    O17   S    
C19   C21   A    
C24   C26   A    
O1    Zn1   S    
C5    C6    A    
C11   C14   A    
C12   O12   A    
C17   C20   S    
H3    O10   S    
O21   Zn2   S    
C9    I6    S    
C12   C42   S    
O18   Zn2   S    
C32   C34   A    
C1    C43   S    
C22   C25   A    
C46   H9    S    
C8    C14   A    
H13   O4    S    
C13   H10   S    
C19   H7    S    
C7    C15   A    
C37   O7    D    
C35   O3    D    
C6    C44   A    
C7    C33   S    
C40   O15   S    
C44   C46   A    
O22   Zn2   S    
C2    C45   A    
C34   C39   S    
C23   C30   A    
C40   O14   D    
C17   O21   A    
C39   O13   S    
C4    C6    A    
C2    H8    S    
C33   O24   D    
H12   O2    S    
C38   O10   S    
C3    I4    S    
C41   O16   D    
C5    C45   A    
C29   C34   A    
N2    Zn2   S    
C8    C35   S    
C39   O11   D    
O23   Zn1   S    
C18   C29   A    
C32   C37   S    
C36   O6    S    
C33   O2    S    
C37   O8    S    
C20   C22   A    
C35   O4    S    
C13   C15   A    
O12   Zn2   S    
H5    O15   S    
C11   N2    A    
C16   O20   A    
C13   N1    A    
C10   I5    S    
C1    O18   A    
C7    C9    A    
O20   Zn1   S    
C24   I2    S    
C12   O19   A    
C14   C15   A    
C3    C5    A    
C38   O9    D    
C25   C27   A    
C23   C38   S    
C41   O17   S    
C26   C28   A    
C28   C30   A    
C9    N2    A    
C22   I1    S    
C4    C42   A    
C2    C42   A    
O19   Zn1   S    
H14   O6    S    
C18   C20   A    
C43   C46   A    
C1    O1    A    
C36   O5    D    
C40   C44   S    
C8    C10   A    
C21   C24   A    
C27   C28   A    
N1    Zn1   S    
C41   C45   S    
C31   C36   S    
C11   H11   S    
C19   C30   A    
H4    O13   S    
C23   C31   A    
