data_mof_unit_14375.cif
_audit_creation_date              2012-12-10T20:55:49-0500
_audit_creation_method            fapswitch 2.2
_symmetry_space_group_name_H-M    P1
_symmetry_Int_Tables_number       1
_space_group_crystal_system       triclinic
_cell_length_a                    15.827149
_cell_length_b                    15.113792
_cell_length_c                    10.989601
_cell_angle_alpha                 90.190413
_cell_angle_beta                  90.171857
_cell_angle_gamma                 90.336368
_cell_volume                      2628.73129279

loop_
_atom_site_label
_atom_site_type_symbol
_atom_type_description
_atom_site_fract_x
_atom_site_fract_y
_atom_site_fract_z
_atom_type_partial_charge
C1    C     C_1   0.250577 0.499310 0.500666 -0.021288
C2    C     C_R   0.421452 0.046139 0.481298 0.262255
C3    C     C_R   0.956908 0.579817 0.484278 -0.118868
C4    C     C_R   0.043080 0.419764 0.513219 -0.123980
C5    C     C_R   0.044497 0.579434 0.484197 -0.131950
C6    C     C_R   0.955494 0.420152 0.513362 -0.128147
C7    C     C_R   0.338971 0.499782 0.501175 1.002725
C8    C     C_R   0.661031 0.500211 0.501373 0.989396
C9    C     C_R   0.499651 0.499709 0.259505 1.025543
C10   C     C_R   0.500130 0.500015 0.741086 0.956028
C11   C     C_R   0.913091 0.500192 0.499093 0.129774
C12   C     C_1   0.749424 0.500615 0.500942 -0.020180
C13   C     C_R   0.086901 0.499430 0.498852 0.136465
C14   C     C_1   0.500979 0.806932 0.495295 0.393018
C15   C     C_1   0.499072 0.193005 0.495821 0.402245
C16   C     C_1   0.824290 0.500593 0.500114 0.001822
C17   C     C_1   0.175707 0.499203 0.499822 -0.004438
C18   C     C_R   0.578927 0.643392 0.103631 0.353641
C19   C     C_R   0.525180 0.335658 0.895742 0.365970
C20   C     C_R   0.468636 0.662898 0.903351 0.348542
C21   C     C_R   0.423177 0.352449 0.103840 0.368524
C22   C     C_R   0.569218 0.728058 0.049456 -0.031354
C23   C     C_R   0.499144 0.499594 0.874324 -0.060581
C24   C     C_R   0.486119 0.259386 0.944880 -0.003591
C25   C     C_R   0.504780 0.739434 0.959303 -0.020631
C26   C     C_R   0.430986 0.268431 0.046747 -0.036041
C27   C     C_R   0.497414 0.579562 0.942372 -0.115721
C28   C     C_R   0.473446 0.423060 0.060508 -0.111350
C29   C     C_R   0.526239 0.574253 0.061322 -0.124171
C30   C     C_R   0.500558 0.418883 0.940534 -0.114053
C31   C     C_3   0.386785 0.187240 0.098772 -0.300600
C32   C     C_3   0.447658 0.132487 0.176359 -0.345590
C33   C     C_3   0.425188 0.034328 0.170289 -0.800467
C34   C     C_R   0.499876 0.498845 0.127249 -0.071673
C35   C     C_3   0.476626 0.831462 0.921789 -0.359023
C36   C     C_3   0.516664 0.861766 0.801495 -0.314486
C37   C     C_3   0.576313 0.941550 0.817192 -0.759596
C38   C     C_3   0.491956 0.171669 0.877970 -0.390191
C39   C     C_3   0.412207 0.156955 0.800160 -0.353550
C40   C     C_3   0.386806 0.059656 0.791912 -0.740421
C41   C     C_3   0.627621 0.804459 0.082845 -0.321329
C42   C     C_3   0.594213 0.860168 0.188674 -0.376181
C43   C     C_3   0.632362 0.953298 0.184170 -0.696684
C44   C     C_R   0.501201 0.905033 0.488898 -0.385604
C45   C     C_R   0.498850 0.094837 0.490024 -0.375086
C46   C     C_R   0.423681 0.951112 0.471355 0.287490
C47   C     C_R   0.577051 0.048632 0.491227 0.266419
C48   C     C_R   0.578117 0.953851 0.501279 0.257817
H1    H     H_    0.079034 0.641008 0.473092 0.170465
H2    H     H_    0.331566 0.203567 0.155287 0.285589
H3    H     H_    0.358597 0.146594 0.025413 0.217889
H4    H     H_    0.573996 0.984409 0.736137 0.258511
H5    H     H_    0.558624 0.983544 0.895506 0.226039
H6    H     H_    0.642457 0.919405 0.828754 0.295120
H7    H     H_    0.551254 0.806646 0.757648 0.264325
H8    H     H_    0.465030 0.879962 0.738133 0.235648
H9    H     H_    0.407048 0.834352 0.913753 0.256126
H10   H     H_    0.489265 0.879573 0.994876 0.193133
H11   H     H_    0.429056 0.025226 0.727972 0.245642
H12   H     H_    0.920958 0.358607 0.524760 0.178390
H13   H     H_    0.389320 0.026928 0.881885 0.242493
H14   H     H_    0.321044 0.053810 0.758368 0.311335
H15   H     H_    0.357371 0.195030 0.834760 0.244517
H16   H     H_    0.424961 0.182788 0.708544 0.262777
H17   H     H_    0.547705 0.167543 0.817718 0.258190
H18   H     H_    0.501166 0.117838 0.944119 0.209769
H19   H     H_    0.702428 0.950319 0.186465 0.312925
H20   H     H_    0.612276 0.987709 0.100012 0.229084
H21   H     H_    0.610565 0.992828 0.262450 0.259751
H22   H     H_    0.524349 0.864335 0.186898 0.215987
H23   H     H_    0.923474 0.641669 0.473179 0.175457
H24   H     H_    0.610923 0.828016 0.275730 0.294259
H25   H     H_    0.692262 0.782696 0.105272 0.274561
H26   H     H_    0.637432 0.845764 0.001769 0.217163
H27   H     H_    0.270720 0.231051 0.533922 0.402050
H28   H     H_    0.781839 0.848159 0.432848 0.405447
H29   H     H_    0.708023 0.242399 0.416042 0.397127
H30   H     H_    0.236913 0.820131 0.547745 0.399370
H31   H     H_    0.747164 0.603857 0.023432 0.357586
H32   H     H_    0.686382 0.441852 0.905093 0.366319
H33   H     H_    0.299330 0.684541 0.991696 0.358469
H34   H     H_    0.076513 0.357930 0.524511 0.170287
H35   H     H_    0.309554 0.512483 0.137872 0.367399
H36   H     H_    0.356729 0.023097 0.184871 0.327972
H37   H     H_    0.442258 0.007415 0.080124 0.223430
H38   H     H_    0.460910 0.998238 0.240496 0.239996
H39   H     H_    0.514534 0.141140 0.147974 0.233757
H40   H     H_    0.443681 0.156394 0.271124 0.257523
N1    N     N_1   0.500000 0.270550 0.500000 -0.035218
N2    N     N_1   0.500000 0.729450 0.500000 -0.044769
O1    O     O_R   0.378020 0.573650 0.500040 -0.575491
O2    O     O_2   0.257242 0.053465 0.552378 -0.209735
O3    O     O_3   0.328401 0.206535 0.541422 -0.593536
O4    O     O_2   0.727967 0.950215 0.622439 -0.207397
O5    O     O_2   0.659787 0.807649 0.591516 -0.340683
O6    O     O_3   0.730930 0.881055 0.407061 -0.506277
O7    O     O_2   0.702403 0.136613 0.604462 -0.205118
O8    O     O_2   0.741507 0.059788 0.416650 -0.189572
O9    O     O_3   0.658662 0.204173 0.396889 -0.572027
O10   O     O_2   0.269020 0.937214 0.359146 -0.195869
O11   O     O_2   0.351397 0.803221 0.371674 -0.328745
O12   O     O_R   0.621980 0.426350 0.499960 -0.586133
O13   O     O_3   0.282951 0.861870 0.569996 -0.468354
O14   O     O_2   0.678021 0.672196 0.299688 -0.262329
O15   O     O_2   0.675015 0.520267 0.220780 -0.343789
O16   O     O_3   0.757368 0.637462 0.099675 -0.519740
O17   O     O_2   0.679900 0.264137 0.896217 -0.254664
O18   O     O_2   0.616344 0.291550 0.697749 -0.248706
O19   O     O_3   0.674758 0.425985 0.819087 -0.564443
O20   O     O_2   0.379621 0.722142 0.710828 -0.252714
O21   O     O_2   0.335995 0.578635 0.792798 -0.326398
O22   O     O_3   0.298402 0.718671 0.914897 -0.506293
O23   O     O_R   0.621980 0.573650 0.499960 -0.580703
O24   O     O_2   0.254454 0.346228 0.120897 -0.277337
O25   O     O_2   0.334551 0.327238 0.308612 -0.253449
O26   O     O_3   0.321137 0.485652 0.218301 -0.589453
O27   O     O_R   0.378020 0.426350 0.500040 -0.582805
O28   O     O_R   0.499990 0.573670 0.316780 -0.612079
O29   O     O_R   0.500010 0.426330 0.683220 -0.607188
O30   O     O_R   0.500010 0.573670 0.683220 -0.605741
O31   O     O_R   0.499990 0.426330 0.316780 -0.604372
O32   O     O_2   0.290823 0.113767 0.352906 -0.247194
S1    S     S_3+6 0.322113 0.104334 0.481190 0.062042
S2    S     S_3+6 0.675151 0.896644 0.535099 0.056591
S3    S     S_3+6 0.673254 0.111514 0.478664 0.091033
S4    S     S_3+6 0.330080 0.887438 0.437683 0.081720
S5    S     S_3+6 0.672383 0.616373 0.186642 0.010972
S6    S     S_3+6 0.625837 0.326935 0.824751 0.051757
S7    S     S_3+6 0.369752 0.668909 0.825018 0.037015
S8    S     S_3+6 0.331251 0.376729 0.190539 0.020332
Zn1   Zn    Zn3+2 0.500000 0.598370 0.500000 1.131177
Zn2   Zn    Zn3+2 0.500000 0.401630 0.500000 1.122957

loop_
_geom_bond_atom_site_label_1
_geom_bond_atom_site_label_2
_ccdc_geom_bond_type
O5    S2    D    
C21   C26   A    
C27   C29   A    
O30   Zn1   S    
C41   C42   S    
C7    O27   A    
C35   C36   S    
C20   S7    S    
O9    S3    S    
C2    S1    S    
C2    C46   A    
C39   H16   S    
N1    Zn2   S    
C35   H10   S    
O10   S4    D    
C36   C37   S    
O12   Zn2   S    
O17   S6    D    
C38   C39   S    
C22   C41   S    
O1    Zn1   S    
C20   C25   A    
C32   H40   S    
C19   S6    S    
C42   H22   S    
C40   H14   S    
O20   S7    D    
C4    C13   A    
O27   Zn2   S    
O13   S4    S    
C33   H37   S    
C14   N2    T    
O28   Zn1   S    
C41   H26   S    
O21   S7    D    
O8    S3    D    
C12   C16   T    
C43   H20   S    
C22   C25   A    
H32   O19   S    
C24   C38   S    
C38   H17   S    
C10   O29   A    
C23   C27   A    
O22   S7    S    
C5    C13   A    
C37   H5    S    
C28   C34   A    
C26   C31   S    
C43   H21   S    
C40   H11   S    
C1    C7    S    
C9    O28   A    
O24   S8    D    
C5    H1    S    
C44   C46   A    
C47   S3    S    
C45   C47   A    
C2    C45   A    
O15   S5    D    
C23   C30   A    
C6    H12   S    
C3    C11   A    
O7    S3    D    
O2    S1    D    
C6    C11   A    
C37   H4    S    
O6    S2    S    
C32   H39   S    
O16   S5    S    
C40   H13   S    
H31   O16   S    
C3    H23   S    
C33   H38   S    
C36   H8    S    
C18   S5    S    
C15   N1    T    
C11   C16   S    
O19   S6    S    
C9    O31   A    
C47   C48   A    
H33   O22   S    
C8    C12   S    
C7    O1    A    
C42   H24   S    
O11   S4    D    
O26   S8    S    
C18   C29   A    
O18   S6    D    
C8    O23   A    
C25   C35   S    
N2    Zn1   S    
C4    C6    A    
C21   C28   A    
C9    C34   S    
C42   C43   S    
C37   H6    S    
C31   H2    S    
C39   C40   S    
H27   O3    S    
C14   C44   S    
C38   H18   S    
O23   Zn1   S    
H30   O13   S    
C18   C22   A    
H35   O26   S    
C46   S4    S    
C31   C32   S    
O3    S1    S    
C31   H3    S    
C3    C5    A    
O29   Zn2   S    
C48   S2    S    
C20   C27   A    
C10   C23   S    
C39   H15   S    
C1    C17   T    
C13   C17   S    
C35   H9    S    
C32   C33   S    
C28   C30   A    
C19   C24   A    
C36   H7    S    
H28   O6    S    
C24   C26   A    
O14   S5    D    
C29   C34   A    
H29   O9    S    
C33   H36   S    
C21   S8    S    
C10   O30   A    
C41   H25   S    
C4    H34   S    
C43   H19   S    
C15   C45   S    
O31   Zn2   S    
O32   S1    D    
C19   C30   A    
C8    O12   A    
C44   C48   A    
O25   S8    D    
O4    S2    D    
