data_mof_unit_28687.cif
_audit_creation_date              2013-03-05T16:47:42-0500
_audit_creation_method            fapswitch 2.2
_symmetry_space_group_name_H-M    P1
_symmetry_Int_Tables_number       1
_space_group_crystal_system       triclinic
_cell_length_a                    10.910521
_cell_length_b                    12.961883
_cell_length_c                    11.719279
_cell_angle_alpha                 100.216522
_cell_angle_beta                  94.679235
_cell_angle_gamma                 90.88049
_cell_volume                      1624.88423698

loop_
_atom_site_label
_atom_site_type_symbol
_atom_site_description
_atom_site_fract_x
_atom_site_fract_y
_atom_site_fract_z
_atom_type_partial_charge
O1    O     O_R   0.506570 0.354460 0.582000 -0.582271
O2    O     O_R   0.493430 0.645540 0.418000 -0.582261
O3    O     O_R   0.490940 0.341410 0.386200 -0.587762
O4    O     O_R   0.509060 0.658590 0.613800 -0.587787
C1    C     C_R   0.502379 0.299180 0.478217 0.819080
C2    C     C_R   0.497615 0.700819 0.521782 0.819077
O5    O     O_R   0.327460 0.506540 0.597900 -0.590972
O6    O     O_R   0.672540 0.493460 0.402100 -0.590892
O7    O     O_R   0.311830 0.493480 0.402100 -0.584171
O8    O     O_R   0.688170 0.506520 0.597900 -0.584167
C3    C     C_R   0.262073 0.500372 0.498940 0.794089
C4    C     C_R   0.737925 0.499606 0.501058 0.794084
Cu1   Cu    Cu3+1 0.509250 0.507730 0.615930 0.960111
Cu2   Cu    Cu3+1 0.490750 0.492270 0.384070 0.960150
C5    C     C_R   0.190483 0.593617 0.138525 -0.310672
C6    C     C_R   0.809397 0.406234 0.861378 -0.311103
H1    H     H_    0.235840 0.661593 0.116761 0.209294
H2    H     H_    0.763993 0.338260 0.883098 0.209331
C7    C     C_R   0.153689 0.598666 0.251578 0.054731
C8    C     C_R   0.846232 0.401209 0.748342 0.054692
C9    C     C_R   0.095518 0.508835 0.279292 0.036675
C10   C     C_R   0.904464 0.491038 0.720685 0.036825
C11   C     C_R   0.073191 0.418809 0.193661 -0.243532
C12   C     C_R   0.926817 0.581031 0.806355 -0.243906
H3    H     H_    0.026657 0.350809 0.214395 0.165438
H4    H     H_    0.973381 0.649033 0.785657 0.165400
C13   C     C_R   0.107665 0.415235 0.080825 0.240118
C14   C     C_R   0.892317 0.584578 0.919182 0.240182
C15   C     C_R   0.166744 0.503803 0.052160 0.005930
C16   C     C_R   0.833176 0.496009 0.947789 0.006076
C17   C     C_R   0.924431 0.505060 0.400139 -0.191051
C18   C     C_R   0.075563 0.494845 0.599848 -0.191064
H5    H     H_    0.866636 0.509819 0.322329 0.196794
H6    H     H_    0.133357 0.490058 0.677652 0.196701
C19   C     C_R   0.871972 0.499271 0.503495 -0.071597
C20   C     C_R   0.128024 0.500663 0.496497 -0.071592
C21   C     C_R   0.949109 0.493907 0.605281 0.086897
C22   C     C_R   0.050884 0.506001 0.394706 0.086869
C23   C     C_R   0.489826 0.814411 0.534657 -0.099300
C24   C     C_R   0.510152 0.185587 0.465340 -0.099229
C25   C     C_R   0.564161 0.015762 0.361805 -0.202573
C26   C     C_R   0.435808 0.984235 0.638187 -0.202543
C27   C     C_R   0.558732 0.124673 0.367611 0.245578
C28   C     C_R   0.441234 0.875323 0.632381 0.245579
C29   C     C_R   0.469589 0.138262 0.554416 -0.222619
C30   C     C_R   0.530386 0.861737 0.445580 -0.222672
C31   C     C_R   0.476370 0.030763 0.548487 0.117513
C32   C     C_R   0.523601 0.969235 0.451507 0.117514
H7    H     H_    0.567956 0.814582 0.371248 0.153540
H8    H     H_    0.432024 0.185418 0.628749 0.153586
H9    H     H_    0.602183 0.966903 0.289189 0.142442
H10   H     H_    0.397786 0.033098 0.710802 0.142455
N1    N     N_R   0.523180 0.519350 0.790130 -0.193183
N2    N     N_R   0.476820 0.480650 0.209870 -0.193096
C33   C     C_R   0.452507 0.368046 0.020357 -0.278556
C34   C     C_R   0.547490 0.631954 0.979641 -0.278590
C35   C     C_R   0.447602 0.384872 0.141970 0.071863
C36   C     C_R   0.552411 0.615126 0.858031 0.072197
C37   C     C_R   0.509067 0.562741 0.157407 0.069922
C38   C     C_R   0.490925 0.437261 0.842592 0.069810
C39   C     C_R   0.513677 0.549476 0.034628 0.073289
C40   C     C_R   0.486319 0.450525 0.965371 0.073331
H11   H     H_    0.465313 0.361867 0.789489 0.136764
H12   H     H_    0.534674 0.638136 0.210509 0.136646
H13   H     H_    0.577589 0.680561 0.818451 0.152473
H14   H     H_    0.422440 0.319435 0.181553 0.152503
H15   H     H_    0.430384 0.290705 0.969796 0.138582
H16   H     H_    0.569590 0.709300 0.030197 0.138294
C41   C     C_2   0.201836 0.506564 0.932839 0.826186
O9    O     O_2   0.199444 0.426318 0.859901 -0.595413
O10   O     O_R   0.239937 0.601697 0.904222 -0.805966
H17   H     H_    0.265861 0.593924 0.822185 0.337741
C42   C     C_2   0.798107 0.493187 0.067105 0.826242
O11   O     O_2   0.800528 0.573401 0.140091 -0.595695
O12   O     O_R   0.760013 0.398032 0.095675 -0.805937
H18   H     H_    0.734156 0.405766 0.177733 0.337716
C43   C     C_2   0.176845 0.698443 0.337109 0.837036
O13   O     O_2   0.250931 0.764217 0.318917 -0.612752
O14   O     O_R   0.113567 0.718838 0.437362 -0.778585
H19   H     H_    0.139038 0.788783 0.488245 0.329349
C44   C     C_2   0.823065 0.301455 0.662775 0.836948
O15   O     O_2   0.748962 0.235680 0.680933 -0.612729
O16   O     O_R   0.886356 0.281081 0.562529 -0.778620
H20   H     H_    0.860878 0.211151 0.511621 0.329335
N3    N     N_2   0.075377 0.324479 0.995312 -0.387485
H21   H     H_    0.983418 0.302956 0.989923 0.264821
C45   C     C_3   0.154748 0.236131 0.998115 -0.628726
H22   H     H_    0.101094 0.167135 0.013876 0.204806
H23   H     H_    0.231321 0.253571 0.067776 0.206789
H24   H     H_    0.194073 0.215203 0.912900 0.247773
N4    N     N_2   0.924617 0.675310 0.004733 -0.387438
H25   H     H_    0.016463 0.697095 0.009672 0.264739
C46   C     C_3   0.844827 0.763447 0.002339 -0.628890
H26   H     H_    0.898448 0.833135 0.988436 0.204857
H27   H     H_    0.804238 0.783054 0.087044 0.248229
H28   H     H_    0.769213 0.746503 0.931685 0.206573
N5    N     N_2   0.392832 0.825198 0.719264 -0.417800
H29   H     H_    0.324816 0.768657 0.688290 0.260514
C47   C     C_3   0.378453 0.884871 0.833822 -0.702780
H30   H     H_    0.361316 0.830062 0.894059 0.249008
H31   H     H_    0.298630 0.936736 0.830503 0.222569
H32   H     H_    0.463745 0.931925 0.868281 0.230420
N6    N     N_2   0.607129 0.174795 0.280724 -0.417811
H33   H     H_    0.675210 0.231282 0.311679 0.260472
C48   C     C_3   0.621369 0.115140 0.166127 -0.702791
H34   H     H_    0.638474 0.169960 0.105894 0.249037
H35   H     H_    0.536029 0.068130 0.131728 0.230415
H36   H     H_    0.701164 0.063233 0.169352 0.222576

loop_
_geom_bond_atom_site_label_1
_geom_bond_atom_site_label_2
_geom_bond_distance
_ccdc_geom_bond_type
C45   H22   1.112097 S    
C46   H26   1.111869 S    
C13   C15   1.412673 A    
C42   O12   1.399833 S    
C42   O11   1.222010 D    
C35   H14   1.078505 S    
O7    Cu2   1.980577 S    
N5    H29   1.031751 S    
C43   O13   1.223559 D    
O5    C3    1.300271 A    
C48   H35   1.111287 S    
C30   H7    1.085139 S    
C37   H12   1.080693 S    
C38   H11   1.080693 S    
O1    C1    1.294436 A    
C18   C20   1.394440 A    
C38   C40   1.423641 A    
C3    C20   1.460572 S    
C19   C21   1.415436 A    
C12   H4    1.084460 S    
C41   O9    1.222034 D    
C6    C16   1.405977 A    
C33   C40   1.401903 A    
C41   O10   1.399833 S    
O4    Cu1   1.960043 S    
C7    C43   1.493302 S    
Cu1   Cu2   2.679619 S    
N5    C47   1.447408 S    
C24   C27   1.416752 A    
C9    C22   1.480708 S    
C47   H30   1.110573 S    
C17   H5    1.077171 S    
C11   C13   1.397221 A    
Cu1   N1    2.013232 S    
C6    C8    1.406281 A    
C43   O14   1.398092 S    
C46   H27   1.109872 S    
C8    C44   1.493307 S    
C25   C27   1.403627 A    
O2    C2    1.294433 A    
C26   C28   1.403640 A    
C44   O16   1.398091 S    
N1    C38   1.374718 A    
C13   N3    1.422574 S    
C5    C15   1.405977 A    
C15   C41   1.485915 S    
N2    C37   1.374724 A    
C29   C31   1.386175 A    
C24   C29   1.398601 A    
C48   H36   1.110726 S    
C30   C32   1.386169 A    
C37   C39   1.423647 A    
N3    C45   1.449677 S    
O4    C2    1.291372 A    
N4    H25   1.031176 S    
C16   C42   1.485934 S    
N3    H21   1.031149 S    
C10   C21   1.480724 S    
C44   O15   1.223558 D    
C18   H6    1.077180 S    
C5    C7    1.406281 A    
O12   H18   1.012599 S    
N4    C46   1.449737 S    
C28   N5    1.431656 S    
C36   H13   1.078509 S    
C31   C32   1.407109 A    
O6    C4    1.300270 A    
N6    C48   1.447422 S    
C33   C35   1.408620 A    
C18   C21   1.386301 A    
C4    C19   1.460561 S    
O7    C3    1.287135 A    
O3    Cu2   1.960042 S    
O8    C4    1.287129 A    
C23   C30   1.398601 A    
C47   H31   1.110718 S    
C8    C10   1.417444 A    
C46   H28   1.110366 S    
C9    C11   1.401442 A    
C10   C12   1.401437 A    
O16   H20   1.014002 S    
O1    Cu1   1.954968 S    
C5    H1    1.083137 S    
O6    Cu2   1.976962 S    
Cu2   N2    2.013231 S    
C34   C39   1.401906 A    
C12   C14   1.397252 A    
O3    C1    1.291367 A    
O8    Cu1   1.980577 S    
C33   H15   1.082985 S    
N1    C36   1.368244 A    
C23   C28   1.416763 A    
C48   H34   1.110574 S    
C17   C22   1.386279 A    
C20   C22   1.415434 A    
O10   H17   1.012585 S    
C34   H16   1.082965 S    
C29   H8    1.085138 S    
C14   C16   1.412707 A    
C25   C32   1.399012 A    
C34   C36   1.408606 A    
C14   N4    1.422621 S    
C17   C19   1.394417 A    
C26   C31   1.399012 A    
C11   H3    1.084459 S    
C39   C40   1.404395 A    
O2    Cu2   1.954969 S    
C27   N6    1.431640 S    
O14   H19   1.013999 S    
O5    Cu1   1.976962 S    
C47   H32   1.111277 S    
C6    H2    1.083139 S    
C45   H24   1.110119 S    
N6    H33   1.031758 S    
C45   H23   1.110409 S    
C2    C23   1.457731 S    
C1    C24   1.457727 S    
C25   H9    1.082536 S    
C26   H10   1.082534 S    
C7    C9    1.417446 A    
N2    C35   1.368233 A    
