data_mof_unit_26893.cif
_audit_creation_date              2012-12-10T18:45:08-0500
_audit_creation_method            fapswitch 2.2
_symmetry_space_group_name_H-M    P1
_symmetry_Int_Tables_number       1
_space_group_crystal_system       triclinic
_cell_length_a                    10.650189
_cell_length_b                    9.847967
_cell_length_c                    10.68958
_cell_angle_alpha                 89.508783
_cell_angle_beta                  89.230188
_cell_angle_gamma                 90.471394
_cell_volume                      1120.97070417

loop_
_atom_site_label
_atom_site_type_symbol
_atom_type_description
_atom_site_fract_x
_atom_site_fract_y
_atom_site_fract_z
_atom_type_partial_charge
C1    C     C_R   0.260647 0.499437 0.502619 0.905901
C2    C     C_R   0.506885 0.499533 0.739368 0.823751
C3    C     C_R   0.667263 0.702659 0.120473 -0.281164
C4    C     C_R   0.685807 0.677835 0.862967 -0.169734
C5    C     C_R   0.745852 0.792532 0.052688 -0.042768
C6    C     C_R   0.756323 0.779154 0.921583 0.043598
C7    C     C_R   0.600657 0.593099 0.930590 0.077546
C8    C     C_R   0.594826 0.601139 0.061161 0.115718
C9    C     C_R   0.518232 0.504466 0.127085 -0.096465
C10   C     C_R   0.521800 0.498115 0.871038 -0.095714
C11   C     C_R   0.449523 0.405224 0.065218 -0.198379
C12   C     C_R   0.739605 0.500086 0.502739 0.874573
C13   C     C_R   0.450211 0.402975 0.937808 -0.194945
C14   C     C_R   0.067447 0.541116 0.398305 0.071215
C15   C     C_R   0.937553 0.538791 0.397670 0.075035
C16   C     C_R   0.872329 0.499125 0.506429 -0.113919
C17   C     C_R   0.128337 0.498582 0.506286 -0.140951
C18   C     C_2   0.818145 0.894003 0.125198 0.325954
C19   C     C_2   0.835183 0.872208 0.842789 0.421627
C20   C     C_2   0.858011 0.423442 0.731881 0.459837
C21   C     C_2   0.136549 0.399157 0.722953 0.537606
C22   C     C_R   0.932890 0.456615 0.616410 -0.057109
C23   C     C_R   0.064311 0.452552 0.614849 -0.074798
C24   C     C_R   0.571126 0.071816 0.583040 -0.051249
C25   C     C_R   0.428975 0.072052 0.416854 -0.052194
C26   C     C_R   0.571048 0.928014 0.583027 -0.045525
C27   C     C_R   0.429029 0.928194 0.416810 -0.065052
C28   C     C_R   0.507481 0.501382 0.260080 0.901193
H1    H     H_    0.391031 0.331961 0.115715 0.168767
H2    H     H_    0.860677 0.972434 0.875299 0.139259
H3    H     H_    0.116022 0.520058 0.214721 0.198949
H4    H     H_    0.116055 0.682935 0.266545 0.210649
H5    H     H_    0.897850 0.672871 0.260269 0.199933
H6    H     H_    0.895341 0.507943 0.215582 0.212776
H7    H     H_    0.765724 0.377144 0.725356 0.041210
H8    H     H_    0.225808 0.445257 0.746840 0.014120
H9    H     H_    0.391324 0.329247 0.891159 0.180718
H10   H     H_    0.668067 0.712214 0.220623 0.184848
H11   H     H_    0.699191 0.665420 0.763451 0.175350
H12   H     H_    0.628075 0.126125 0.649454 0.129694
H13   H     H_    0.372095 0.126603 0.350416 0.138230
H14   H     H_    0.627734 0.873598 0.649417 0.148912
H15   H     H_    0.372217 0.873824 0.350336 0.146142
H16   H     H_    0.782604 0.926197 0.215806 0.092134
N1    N     N_R   0.500000 0.857200 0.500000 -0.092799
N2    N     N_R   0.500000 0.142810 0.500000 -0.086252
N3    N     N_3   0.139135 0.582895 0.289409 -0.455319
N4    N     N_3   0.870531 0.574756 0.287042 -0.469229
O1    O     O_R   0.316770 0.614620 0.499990 -0.591627
O2    O     O_2   0.871267 0.838529 0.738713 -0.574501
O3    O     O_2   0.896391 0.452740 0.835419 -0.528942
O4    O     O_2   0.100058 0.299583 0.782252 -0.529141
O5    O     O_R   0.683230 0.614620 0.500010 -0.608857
O6    O     O_R   0.316800 0.385290 0.500000 -0.620995
O7    O     O_R   0.683200 0.385290 0.500000 -0.630148
O8    O     O_R   0.500010 0.614690 0.316770 -0.632502
O9    O     O_R   0.499990 0.614690 0.683230 -0.628069
O10   O     O_R   0.500040 0.385360 0.316770 -0.616672
O11   O     O_R   0.499960 0.385360 0.683230 -0.631295
O12   O     O_2   0.920339 0.936864 0.089224 -0.563002
Zn1   Zn    Zn3+2 0.500000 0.653120 0.500000 0.963230
Zn2   Zn    Zn3+2 0.500000 0.346880 0.500000 0.960843

loop_
_geom_bond_atom_site_label_1
_geom_bond_atom_site_label_2
_ccdc_geom_bond_type
O10   Zn2   S    
C7    C10   A    
C1    O6    A    
O9    Zn1   S    
C14   N3    S    
C28   O10   A    
C25   C27   A    
C11   C13   A    
C13   H9    S    
C12   O5    A    
C19   O2    D    
C4    H11   S    
C24   N2    A    
C27   N1    A    
C14   C15   A    
C28   O8    A    
C2    O9    A    
C7    C8    A    
C21   H8    S    
H3    N3    S    
C6    C19   S    
C9    C11   A    
C14   C17   A    
C11   H1    S    
C17   C23   A    
C2    O11   A    
O5    Zn1   S    
C15   N4    S    
N2    Zn2   S    
C4    C7    A    
C18   O12   D    
C24   H12   S    
C20   C22   S    
C20   O3    D    
C18   H16   S    
C21   C23   S    
C5    C6    A    
H4    N3    S    
C12   O7    A    
O1    Zn1   S    
C15   C16   A    
C2    C10   S    
O7    Zn2   S    
C27   H15   S    
H6    N4    S    
C1    C17   S    
C26   H14   S    
C4    C6    A    
C3    C8    A    
C9    C28   S    
C25   H13   S    
H5    N4    S    
O8    Zn1   S    
O11   Zn2   S    
C16   C22   A    
C5    C18   S    
O6    Zn2   S    
C26   N1    A    
C22   C23   A    
C19   H2    S    
C1    O1    A    
C25   N2    A    
C20   H7    S    
C21   O4    D    
N1    Zn1   S    
C12   C16   S    
C3    H10   S    
C24   C26   A    
C8    C9    A    
C3    C5    A    
C10   C13   A    
