data_mof_unit_28159.cif
_audit_creation_date              2013-03-05T16:36:13-0500
_audit_creation_method            fapswitch 2.2
_symmetry_space_group_name_H-M    P1
_symmetry_Int_Tables_number       1
_space_group_crystal_system       triclinic
_cell_length_a                    27.870105
_cell_length_b                    9.143948
_cell_length_c                    7.779796
_cell_angle_alpha                 89.462738
_cell_angle_beta                  90.000107
_cell_angle_gamma                 89.998959
_cell_volume                      1982.5377613

loop_
_atom_site_label
_atom_site_type_symbol
_atom_site_description
_atom_site_fract_x
_atom_site_fract_y
_atom_site_fract_z
_atom_type_partial_charge
O1    O     O_R   0.500000 0.288390 0.642760 -0.562636
O2    O     O_R   0.500000 0.711610 0.357240 -0.562630
O3    O     O_R   0.500000 0.711610 0.642760 -0.582195
O4    O     O_R   0.500000 0.288390 0.357240 -0.582202
C1    C     C_R   0.499260 0.219938 0.500471 0.880992
C2    C     C_R   0.499257 0.780062 0.499530 0.880848
O5    O     O_R   0.430260 0.500000 0.642770 -0.576153
O6    O     O_R   0.569740 0.500000 0.357230 -0.560671
O7    O     O_R   0.569740 0.500000 0.642770 -0.560632
O8    O     O_R   0.430260 0.500000 0.357230 -0.576073
C3    C     C_R   0.407130 0.499985 0.500002 0.893889
C4    C     C_R   0.592555 0.500006 0.500000 0.876631
Cu1   Cu    Cu3+1 0.500000 0.500000 0.669080 1.080913
Cu2   Cu    Cu3+1 0.500000 0.500000 0.330920 1.080923
C5    C     C_R   0.176139 0.369910 0.491519 0.658914
C6    C     C_R   0.822627 0.612249 0.420462 0.648722
C7    C     C_R   0.176166 0.630279 0.509368 0.658967
C8    C     C_R   0.822607 0.388336 0.580390 0.648691
O9    O     O_2   0.200441 0.243486 0.472081 -0.455249
O10   O     O_2   0.798454 0.716293 0.331932 -0.449462
O11   O     O_2   0.200499 0.756660 0.528692 -0.455211
O12   O     O_2   0.798410 0.284296 0.668839 -0.449468
N1    N     N_R   0.200490 0.500072 0.500397 -0.439103
N2    N     N_R   0.798211 0.500281 0.500362 -0.439468
C9    C     C_R   0.277587 0.573097 0.367548 0.296784
C10   C     C_R   0.720857 0.378548 0.435386 0.296502
C11   C     C_R   0.277623 0.426874 0.632829 0.296813
C12   C     C_R   0.720797 0.621865 0.564880 0.296464
C13   C     C_R   0.328188 0.577320 0.370148 -0.155002
C14   C     C_R   0.670587 0.373151 0.453787 -0.154766
C15   C     C_R   0.328221 0.422551 0.629980 -0.154939
C16   C     C_R   0.670533 0.627108 0.546277 -0.154652
C17   C     C_R   0.252356 0.500024 0.500263 0.116840
C18   C     C_R   0.746294 0.500236 0.500204 0.110139
C19   C     C_R   0.100552 0.500163 0.500569 -0.045915
C20   C     C_R   0.898206 0.500290 0.500558 -0.045461
C21   C     C_R   0.125917 0.367297 0.503377 -0.030938
C22   C     C_R   0.872838 0.619402 0.430062 -0.038761
C23   C     C_R   0.125940 0.632983 0.497692 -0.030935
C24   C     C_R   0.872819 0.381188 0.570984 -0.038737
C25   C     C_R   0.100659 0.235419 0.517238 -0.105667
C26   C     C_R   0.898089 0.742018 0.369990 -0.106205
C27   C     C_R   0.100702 0.764906 0.483902 -0.105621
C28   C     C_R   0.898053 0.258569 0.631147 -0.106141
C29   C     C_R   0.353800 0.499945 0.500030 -0.249405
C30   C     C_R   0.645457 0.500087 0.500011 -0.228878
H1    H     H_    0.119383 0.131742 0.519334 0.186136
H2    H     H_    0.879400 0.835046 0.314589 0.205026
H3    H     H_    0.119444 0.868550 0.481768 0.186195
H4    H     H_    0.879349 0.165554 0.686512 0.205046
C31   C     C_R   0.974108 0.371427 0.548370 0.041096
C32   C     C_R   0.024640 0.633002 0.472481 0.045567
C33   C     C_R   0.974125 0.629095 0.452886 0.041107
C34   C     C_R   0.024621 0.367449 0.528776 0.045577
C35   C     C_R   0.948967 0.500273 0.500611 0.080999
C36   C     C_R   0.049781 0.500206 0.500616 0.079914
C37   C     C_R   0.947799 0.251915 0.615763 -0.206166
C38   C     C_R   0.050955 0.764963 0.466819 -0.199651
C39   C     C_R   0.947833 0.748639 0.385480 -0.206157
C40   C     C_R   0.050915 0.235446 0.534415 -0.199643
H5    H     H_    0.965109 0.154304 0.664268 0.147586
H6    H     H_    0.033633 0.870166 0.456258 0.131016
H7    H     H_    0.965157 0.846244 0.337021 0.147572
H8    H     H_    0.033577 0.130271 0.545004 0.131018
C41   C     C_1   0.498631 0.065259 0.500624 -0.142061
C42   C     C_1   0.498630 0.934741 0.499379 -0.142092
N3    N     N_1   0.500000 0.500000 0.076820 -0.028067
N4    N     N_1   0.500000 0.500000 0.923180 -0.028077
C43   C     C_2   0.354009 0.333875 0.761742 0.986007
O13   O     O_2   0.346156 0.352911 0.914565 -0.508992
O14   O     O_R   0.386987 0.227688 0.710250 -0.751432
H9    H     H_    0.402354 0.174744 0.811236 0.340334
C44   C     C_2   0.643860 0.766107 0.556007 0.937278
O15   O     O_2   0.645094 0.841089 0.685167 -0.501271
O16   O     O_R   0.616224 0.807788 0.413850 -0.726953
H10   H     H_    0.596974 0.899395 0.432341 0.317614
C45   C     C_2   0.353942 0.665809 0.238142 0.986106
O17   O     O_2   0.346054 0.646545 0.085388 -0.509034
O18   O     O_R   0.386928 0.772080 0.289319 -0.751319
H11   H     H_    0.402276 0.824861 0.188180 0.340359
C46   C     C_2   0.643963 0.234081 0.443842 0.937478
O19   O     O_2   0.645294 0.159113 0.314682 -0.501031
O20   O     O_R   0.616261 0.192301 0.585791 -0.727036
H12   H     H_    0.597051 0.100646 0.567130 0.317726
N5    N     N_R   0.251520 0.353961 0.768359 0.164872
O21   O     O_R   0.259078 0.216120 0.801673 -0.251318
O22   O     O_R   0.216868 0.420989 0.847187 -0.280410
N6    N     N_R   0.746172 0.737704 0.649443 0.164351
O23   O     O_R   0.740568 0.873074 0.601070 -0.208119
O24   O     O_R   0.777274 0.706881 0.769155 -0.302992
N7    N     N_R   0.251444 0.646015 0.232110 0.164910
O25   O     O_R   0.259057 0.783789 0.198554 -0.251381
O26   O     O_R   0.216718 0.579083 0.153595 -0.280595
N8    N     N_R   0.746298 0.262792 0.350918 0.164286
O27   O     O_R   0.740743 0.127410 0.399311 -0.208127
O28   O     O_R   0.777428 0.293719 0.231336 -0.303108

loop_
_geom_bond_atom_site_label_1
_geom_bond_atom_site_label_2
_geom_bond_distance
_ccdc_geom_bond_type
C38   H6    1.078748 S    
C10   N8    1.438039 S    
C44   O15   1.222250 D    
O3    C2    1.273105 A    
C46   O19   1.222252 D    
C33   C39   1.412812 A    
C34   C40   1.412378 A    
C45   O17   1.222942 D    
C11   C17   1.412098 A    
C5    O9    1.349519 S    
C7    N1    1.372401 A    
C2    C42   1.414475 S    
O1    C1    1.276951 A    
C19   C21   1.405594 A    
C22   C26   1.400337 A    
C43   O13   1.222961 D    
C43   O14   1.398321 S    
C7    C23   1.402962 A    
C11   N5    1.439562 S    
C8    C24   1.402900 A    
C5    C21   1.402943 A    
C20   C24   1.405591 A    
O7    Cu1   1.954407 S    
C27   C38   1.392812 A    
C10   C18   1.416172 A    
N1    C17   1.445511 S    
C12   N6    1.438044 S    
Cu2   N3    1.976845 S    
C31   C37   1.412816 A    
C24   C28   1.400323 A    
O3    Cu1   1.943845 S    
C6    O10   1.349461 S    
C45   O18   1.398306 S    
C12   C18   1.416157 A    
C6    N2    1.373235 A    
Cu1   Cu2   2.630817 S    
C21   C25   1.399617 A    
C44   O16   1.397752 S    
O2    C2    1.276955 A    
C46   O20   1.397746 S    
O5    C3    1.284225 A    
C33   C35   1.417340 A    
C9    C13   1.410932 A    
C34   C36   1.417165 A    
C9    N7    1.439619 S    
N5    O22   1.300556 A    
C11   C15   1.410888 A    
N3    N4    1.195289 T    
C12   C16   1.409107 A    
C1    C41   1.414472 S    
O8    Cu2   1.954410 S    
C16   C44   1.474966 S    
C27   H3    1.082138 S    
C23   C27   1.399627 A    
N5    O21   1.301549 A    
N2    C18   1.446924 S    
C13   C29   1.420463 A    
C19   C23   1.405597 A    
O16   H10   1.006189 S    
N7    O26   1.300521 A    
O20   H12   1.006170 S    
C15   C43   1.486343 S    
C28   C37   1.392963 A    
O6    C4    1.279857 A    
C25   H1    1.082137 S    
C26   H2    1.083398 S    
N8    O28   1.301263 A    
C32   C38   1.412385 A    
C4    C30   1.474384 S    
N6    O24   1.301262 A    
C10   C14   1.409124 A    
C8    N2    1.373228 A    
C3    C29   1.486310 S    
O1    Cu1   1.947665 S    
N7    O25   1.301576 A    
C32   C33   1.416561 A    
C28   H4    1.083406 S    
O6    Cu2   1.954406 S    
C19   C36   1.414974 A    
C8    O12   1.349466 S    
C16   C30   1.405293 A    
C14   C30   1.405302 A    
C25   C40   1.392797 A    
O4    C1    1.273108 A    
C26   C39   1.392978 A    
C37   H5    1.079572 S    
C39   H7    1.079575 S    
C40   H8    1.078748 S    
C31   C34   1.416546 A    
C14   C46   1.474979 S    
C20   C22   1.405579 A    
O14   H9    1.013845 S    
C20   C35   1.414734 A    
C5    N1    1.372395 A    
C31   C35   1.417329 A    
O4    Cu2   1.943846 S    
N8    O27   1.299788 A    
O2    Cu2   1.947664 S    
O7    C4    1.279854 A    
C7    O11   1.349523 S    
O8    C3    1.284250 A    
O18   H11   1.013846 S    
O5    Cu1   1.954409 S    
C13   C45   1.486278 S    
N6    O23   1.299791 A    
C41   C42   1.193578 T    
C15   C29   1.420464 A    
C9    C17   1.412112 A    
C32   C36   1.417166 A    
C6    C22   1.402934 A    
Cu1   N4    1.976845 S    
