data_mof_unit_24627.cif
_audit_creation_date              2012-12-11T17:02:17-0500
_audit_creation_method            fapswitch 2.2
_symmetry_space_group_name_H-M    P1
_symmetry_Int_Tables_number       1
_space_group_crystal_system       triclinic
_cell_length_a                    21.667768
_cell_length_b                    7.055975
_cell_length_c                    14.878482
_cell_angle_alpha                 89.563789
_cell_angle_beta                  106.235608
_cell_angle_gamma                 89.754029
_cell_volume                      2183.90177387

loop_
_atom_site_label
_atom_site_type_symbol
_atom_type_description
_atom_site_fract_x
_atom_site_fract_y
_atom_site_fract_z
_atom_type_partial_charge
O1    O     O_R   0.585850 0.505770 0.002130 -0.541056
O2    O     O_R   0.414150 0.005770 0.997870 -0.547140
O3    O     O_R   0.467530 0.173560 0.861970 -0.542860
O4    O     O_R   0.532470 0.673560 0.138030 -0.539868
C1    C     C_R   0.455792 0.345315 0.825386 0.671177
C2    C     C_R   0.544043 0.843418 0.175035 0.694100
O5    O     O_R   0.588690 0.175900 0.993250 -0.511979
O6    O     O_R   0.411310 0.675900 0.006750 -0.516181
O7    O     O_R   0.536170 0.007950 0.130090 -0.535423
O8    O     O_R   0.463830 0.507950 0.869910 -0.542210
C3    C     C_R   0.615433 0.343940 0.998942 0.725210
C4    C     C_R   0.384996 0.844879 0.002779 0.720228
O9    O     O_3   0.482630 0.339970 0.044740 -0.371806
O10   O     O_3   0.517370 0.839970 0.955260 -0.372678
V1    V     V_3+5 0.503220 0.064200 0.991700 1.463434
V2    V     V_3+5 0.496780 0.564200 0.008300 1.462517
C5    C     C_R   0.275025 0.993971 0.949608 0.019064
C6    C     C_R   0.712203 0.523036 0.986035 0.075401
C7    C     C_R   0.316003 0.852366 0.000593 -0.197269
C8    C     C_R   0.685244 0.352232 0.004940 -0.205464
C9    C     C_R   0.288085 0.711890 0.045440 0.458709
C10   C     C_R   0.727726 0.195861 0.036527 0.453927
C11   C     C_R   0.222021 0.721423 0.040931 -0.260965
C12   C     C_R   0.793073 0.210602 0.034516 -0.298403
H1    H     H_    0.202286 0.613452 0.076866 0.137087
H2    H     H_    0.824626 0.088572 0.051740 0.144569
C13   C     C_R   0.183234 0.875558 0.997119 -0.161028
C14   C     C_R   0.817567 0.379773 0.007312 -0.160175
C15   C     C_R   0.210787 0.006653 0.948952 0.088027
C16   C     C_R   0.776513 0.537103 0.987970 0.096932
C17   C     C_3   0.212340 0.217883 0.952013 -0.375300
C18   C     C_3   0.761589 0.668673 0.905548 -0.411097
C19   C     C_3   0.282410 0.203993 0.951924 -0.346248
C20   C     C_3   0.691187 0.652258 0.902983 -0.374800
H3    H     H_    0.205942 0.274315 0.018422 0.180367
H4    H     H_    0.772851 0.605698 0.843643 0.157228
H5    H     H_    0.180902 0.283583 0.887048 0.161644
H6    H     H_    0.781357 0.812668 0.924435 0.177976
H7    H     H_    0.316771 0.251459 0.017992 0.224577
H8    H     H_    0.661648 0.578920 0.839701 0.148386
H9    H     H_    0.291259 0.260970 0.886808 0.151654
H10   H     H_    0.670234 0.786922 0.919630 0.218552
C21   C     C_R   0.926460 0.894075 0.723344 -0.036543
C22   C     C_R   0.072708 0.380250 0.276122 -0.026821
C23   C     C_R   0.570669 0.845092 0.277147 -0.039676
C24   C     C_R   0.427609 0.355748 0.724296 -0.022772
C25   C     C_R   0.931171 0.005228 0.571595 -0.163585
C26   C     C_R   0.060918 0.351926 0.432011 -0.161100
C27   C     C_R   0.961316 0.969199 0.665618 -0.168693
C28   C     C_R   0.033431 0.364646 0.335712 -0.175837
C29   C     C_R   0.861202 0.851837 0.686324 -0.216390
C30   C     C_R   0.139545 0.382553 0.312480 -0.213816
C31   C     C_R   0.828755 0.891698 0.591141 0.082426
C32   C     C_R   0.168933 0.368404 0.410077 0.083904
C33   C     C_R   0.865233 0.971282 0.534503 0.143683
C34   C     C_R   0.128031 0.353861 0.469574 0.141602
C35   C     C_R   0.761353 0.860485 0.550972 0.058350
C36   C     C_R   0.237169 0.368678 0.450373 0.060524
C37   C     C_R   0.731894 0.910480 0.454978 0.061092
C38   C     C_R   0.263194 0.357910 0.549943 0.059050
C39   C     C_R   0.770085 0.996781 0.403593 -0.198741
C40   C     C_R   0.220172 0.343621 0.605748 -0.187761
C41   C     C_R   0.835447 0.023142 0.442077 -0.204870
C42   C     C_R   0.154159 0.341243 0.566142 -0.203003
C43   C     C_R   0.722390 0.781609 0.603422 -0.188552
C44   C     C_R   0.280224 0.378256 0.394471 -0.194711
C45   C     C_R   0.657442 0.748733 0.563338 -0.201222
C46   C     C_R   0.346235 0.380086 0.434047 -0.206071
C47   C     C_R   0.628787 0.788898 0.469030 0.141358
C48   C     C_R   0.372331 0.372327 0.530684 0.144040
C49   C     C_R   0.665294 0.871083 0.413233 0.079672
C50   C     C_R   0.331415 0.360966 0.590272 0.082816
C51   C     C_R   0.564126 0.741210 0.429342 -0.161884
C52   C     C_R   0.439442 0.375275 0.568205 -0.162954
C53   C     C_R   0.535721 0.765800 0.333803 -0.170018
C54   C     C_R   0.466919 0.366853 0.664590 -0.176950
C55   C     C_R   0.634236 0.901600 0.316714 -0.219945
C56   C     C_R   0.360777 0.353258 0.687998 -0.209746
H11   H     H_    0.862796 0.088357 0.399315 0.118948
H12   H     H_    0.123150 0.329693 0.611874 0.120595
H13   H     H_    0.658895 0.957711 0.268958 0.111672
H14   H     H_    0.333544 0.345426 0.738337 0.088386
H15   H     H_    0.486813 0.719196 0.303625 0.100588
H16   H     H_    0.518757 0.368868 0.692644 0.099962
H17   H     H_    0.629682 0.686276 0.606248 0.121332
H18   H     H_    0.377310 0.387353 0.388323 0.114318
H19   H     H_    0.959012 0.066270 0.528486 0.111410
H20   H     H_    0.029646 0.340407 0.477310 0.110484
H21   H     H_    0.011489 0.005647 0.694214 0.106472
H22   H     H_    0.981599 0.362307 0.307630 0.100856
H23   H     H_    0.836731 0.798569 0.735027 0.095852
H24   H     H_    0.166757 0.396039 0.262304 0.090270
H25   H     H_    0.750699 0.048826 0.333316 0.120633
H26   H     H_    0.235693 0.332944 0.680897 0.121144
H27   H     H_    0.740586 0.741545 0.675963 0.122890
H28   H     H_    0.264721 0.383160 0.319226 0.122100
H29   H     H_    0.536173 0.677920 0.471711 0.111315
H30   H     H_    0.470720 0.383823 0.522796 0.111455
O11   O     O_R   0.036080 0.231270 0.130120 -0.539260
O12   O     O_R   0.963920 0.731270 0.869880 -0.539552
O13   O     O_R   0.911300 0.558970 0.006750 -0.542329
O14   O     O_R   0.088700 0.058970 0.993250 -0.541974
C57   C     C_R   0.884873 0.390338 0.002021 0.716831
C58   C     C_R   0.115176 0.889647 0.998386 0.716781
O15   O     O_R   0.032450 0.561140 0.138040 -0.540456
O16   O     O_R   0.967550 0.061140 0.861960 -0.539618
O17   O     O_R   0.085870 0.728910 0.002130 -0.540513
O18   O     O_R   0.914130 0.228910 0.997870 -0.540930
C59   C     C_R   0.044510 0.391574 0.175002 0.689462
C60   C     C_R   0.954887 0.893832 0.824863 0.693971
O19   O     O_3   0.017320 0.394650 0.955270 -0.373491
O20   O     O_3   0.982680 0.894650 0.044730 -0.374841
V3    V     V_3+5 0.996780 0.670490 0.008300 1.409138
V4    V     V_3+5 0.003220 0.170490 0.991700 1.410885
O21   O     O_3   0.325428 0.567423 0.096341 -0.556786
C61   C     C_3   0.345917 0.621284 0.191030 -0.269660
H31   H     H_    0.373068 0.756752 0.199938 0.116837
H32   H     H_    0.378858 0.510064 0.230972 0.155857
H33   H     H_    0.304582 0.633043 0.221319 0.136522
O22   O     O_3   0.702727 0.027942 0.061213 -0.548190
C62   C     C_3   0.746844 0.931224 0.135520 -0.272458
H34   H     H_    0.780550 0.844158 0.108915 0.147970
H35   H     H_    0.719800 0.832075 0.168314 0.157884
H36   H     H_    0.773904 0.029382 0.190564 0.121560

loop_
_geom_bond_atom_site_label_1
_geom_bond_atom_site_label_2
_ccdc_geom_bond_type
C44   C46   A    
O12   C60   A    
C2    C23   S    
C13   C15   A    
C5    C15   A    
C20   H10   S    
C9    O21   S    
O2    C4    A    
C54   H16   S    
O11   V4    S    
C24   C54   A    
C25   C27   A    
C41   H11   S    
C51   H29   S    
C19   H7    S    
C52   C54   A    
O16   V4    S    
C20   H8    S    
C18   H4    S    
O15   V3    S    
C7    C9    A    
C12   H2    S    
C26   C28   A    
C32   C36   A    
C39   H25   S    
C35   C37   A    
C38   C50   A    
C36   C38   A    
O21   C61   S    
O11   C59   A    
C13   C58   S    
C46   H18   S    
C61   H31   S    
C38   C40   A    
O18   V4    S    
C39   C41   A    
O17   V3    S    
C62   H36   S    
C50   C56   A    
C29   H23   S    
C28   H22   S    
C30   C32   A    
C43   C45   A    
C33   C41   A    
C48   C52   A    
C40   C42   A    
C17   C19   S    
C47   C51   A    
C57   O18   A    
C6    C16   A    
C21   C60   S    
C11   C13   A    
C6    C8    A    
C22   C59   S    
C22   C30   A    
O5    V1    S    
C47   C49   A    
O13   C57   A    
C42   H12   S    
C5    C19   S    
C2    O7    A    
O20   V4    S    
O20   V3    S    
C36   C44   A    
O5    C3    A    
C31   C33   A    
C32   C34   A    
C3    C8    S    
C45   H17   S    
C37   C39   A    
C44   H28   S    
C53   H15   S    
C52   H30   S    
C27   H21   S    
C24   C56   A    
C31   C35   A    
C21   C27   A    
C17   H5    S    
C29   C31   A    
C18   C20   S    
O4    V2    S    
C10   O22   S    
O14   V4    S    
C56   H14   S    
C55   H13   S    
O6    C4    A    
C26   H20   S    
O19   V3    S    
O1    V2    S    
O14   C58   A    
O2    V1    S    
C6    C20   S    
C62   H34   S    
O4    C2    A    
C8    C10   A    
C18   H6    S    
C40   H26   S    
C17   H3    S    
C30   H24   S    
C51   C53   A    
C49   C55   A    
O3    V1    S    
O22   C62   S    
C25   C33   A    
O16   C60   A    
C22   C28   A    
C26   C34   A    
O15   C59   A    
O12   V3    S    
C12   C14   A    
C35   C43   A    
O3    C1    A    
C48   C50   A    
C1    C24   S    
C61   H33   S    
C23   C53   A    
C19   H9    S    
C9    C11   A    
O7    V1    S    
C1    O8    A    
C15   C17   S    
O8    V2    S    
C16   C18   S    
C14   C57   S    
C21   C29   A    
C34   C42   A    
C4    C7    S    
C14   C16   A    
C5    C7    A    
C61   H32   S    
O19   V4    S    
C10   C12   A    
C11   H1    S    
O13   V3    S    
C62   H35   S    
C43   H27   S    
O6    V2    S    
O9    V2    S    
C46   C48   A    
O10   V1    S    
C23   C55   A    
O1    C3    A    
C45   C47   A    
C58   O17   A    
C37   C49   A    
C25   H19   S    
