data_mof_unit_67098.cif
_audit_creation_date              2012-12-11T17:44:23-0500
_audit_creation_method            fapswitch 2.2
_symmetry_space_group_name_H-M    P1
_symmetry_Int_Tables_number       1
_space_group_crystal_system       triclinic
_cell_length_a                    8.305405
_cell_length_b                    13.086891
_cell_length_c                    15.01172
_cell_angle_alpha                 97.780595
_cell_angle_beta                  97.936393
_cell_angle_gamma                 98.637217
_cell_volume                      1577.26085007

loop_
_atom_site_label
_atom_site_type_symbol
_atom_type_description
_atom_site_fract_x
_atom_site_fract_y
_atom_site_fract_z
_atom_type_partial_charge
Ba1   Ba    Ba6+2 0.843760 0.550230 0.455610 1.826740
Ba2   Ba    Ba6+2 0.346080 0.449860 0.544400 1.794701
Br1   Br    Br    0.996128 0.086511 0.374991 -0.474467
Br2   Br    Br    0.987719 0.787682 0.816472 -0.296913
Br3   Br    Br    0.713307 0.667604 0.923066 -0.606087
Br4   Br    Br    0.861403 0.326041 0.075422 -0.471378
Br5   Br    Br    0.338705 0.002850 0.297379 -0.554682
C1    C     C_3   0.586656 0.894074 0.141672 0.289708
C2    C     C_R   0.104958 0.466265 0.205789 0.020539
C3    C     C_R   0.937260 0.457020 0.763719 -0.221217
C4    C     C_3   0.060096 0.768548 0.206316 0.387421
C5    C     C_R   0.829451 0.431002 0.824680 0.067340
C6    C     C_R   0.884131 0.453752 0.917712 -0.040967
C7    C     C_R   0.049644 0.494817 0.952667 -0.001333
C8    C     C_R   0.146314 0.540906 0.891134 -0.055301
C9    C     C_R   0.117933 0.499235 0.047521 -0.021459
C10   C     C_R   0.280563 0.556085 0.078970 -0.076529
C11   C     C_R   0.368003 0.602669 0.017461 -0.023264
C12   C     C_3   0.579159 0.813363 0.206607 0.577553
C13   C     C_R   0.300730 0.598345 0.927031 0.057381
C14   C     C_R   0.037841 0.445304 0.111609 0.177214
C15   C     C_R   0.259018 0.529125 0.234491 -0.266225
C16   C     C_3   0.011093 0.791058 0.109940 0.335417
C17   C     C_R   0.085507 0.527315 0.795174 0.064949
C18   C     C_R   0.769739 0.176157 0.533167 -0.231289
C19   C     C_R   0.427869 0.807235 0.461458 -0.282573
C20   C     C_R   0.402567 0.973833 0.415652 0.251294
C21   C     C_R   0.331836 0.872139 0.421641 -0.015630
C22   C     C_R   0.585719 0.846881 0.510375 0.089375
C23   C     C_3   0.364463 0.266592 0.263924 0.576317
C24   C     C_R   0.649035 0.958514 0.519787 -0.036986
C25   C     C_R   0.554137 0.023796 0.471241 -0.019920
C26   C     C_R   0.615552 0.134992 0.480030 -0.002141
C27   C     C_R   0.868612 0.113444 0.575565 0.032606
C28   C     C_3   0.270508 0.766939 0.644936 0.407902
C29   C     C_R   0.806515 0.005752 0.571002 -0.051288
C30   C     C_3   0.340942 0.882996 0.665217 0.233909
C31   C     C_3   0.821137 0.226231 0.293198 0.338128
C32   C     C_3   0.815969 0.110545 0.290032 0.057563
C33   C     C_3   0.764246 0.738826 0.754551 0.718167
C34   C     C_3   0.236773 0.194057 0.190606 -0.124522
C35   C     C_3   0.656524 0.750432 0.829053 0.497946
C36   C     C_3   0.122106 0.244353 0.800132 0.351457
C37   C     C_3   0.199292 0.240521 0.898235 0.353943
C38   C     C_3   0.603793 0.180250 0.749618 0.383033
C39   C     C_3   0.636642 0.089048 0.797217 0.333910
C40   C     C_R   0.353136 0.566025 0.171598 0.019497
Cl1   Cl    Cl    0.689356 0.870514 0.314943 -0.685162
Cl2   Cl    Cl    0.209140 0.952320 0.722317 -0.522044
Cl3   Cl    Cl    0.737679 0.604969 0.709461 -0.721628
Cl4   Cl    Cl    0.677015 0.881426 0.884136 -0.455801
Cl5   Cl    Cl    0.434217 0.853907 0.042661 -0.527127
Cl6   Cl    Cl    0.479438 0.350517 0.204816 -0.705253
Cl7   Cl    Cl    0.179756 0.110671 0.924507 -0.350601
Cl8   Cl    Cl    0.780992 0.132850 0.898897 -0.461438
Cl9   Cl    Cl    0.077211 0.923521 0.097743 -0.439532
H1    H     H_    0.351696 0.916413 0.602448 -0.086698
H2    H     H_    0.303366 0.313309 0.312095 0.019481
H3    H     H_    0.151685 0.141500 0.221527 0.186613
H4    H     H_    0.163136 0.240121 0.149234 0.110563
H5    H     H_    0.298922 0.145367 0.144213 0.213559
H6    H     H_    0.710360 0.908134 0.121189 0.133525
H7    H     H_    0.062946 0.738892 0.060875 0.056126
H8    H     H_    0.176197 0.321191 0.784144 -0.047519
H9    H     H_    0.987235 0.239709 0.796238 -0.025892
H10   H     H_    0.332253 0.274750 0.910162 0.079798
H11   H     H_    0.139246 0.288168 0.946341 0.013161
H12   H     H_    0.463838 0.894788 0.707749 0.041405
H13   H     H_    0.719552 0.211274 0.725578 -0.198102
H14   H     H_    0.506194 0.151593 0.689196 0.019498
H15   H     H_    0.687017 0.032236 0.751576 0.004947
H16   H     H_    0.988004 0.691281 0.211142 -0.012568
H17   H     H_    0.520671 0.050985 0.816140 0.162414
H18   H     H_    0.313138 0.540681 0.305718 0.067312
H19   H     H_    0.490224 0.645331 0.038855 0.164401
H20   H     H_    0.894324 0.435840 0.691165 0.091862
H21   H     H_    0.792392 0.445716 0.961401 0.156057
H22   H     H_    0.371802 0.640119 0.885013 0.136768
H23   H     H_    0.721979 0.237286 0.240070 0.140227
H24   H     H_    0.884102 0.959297 0.605520 0.148672
H25   H     H_    0.817576 0.258732 0.538256 0.039138
H26   H     H_    0.192175 0.762767 0.216286 -0.100734
H27   H     H_    0.374994 0.725850 0.458433 0.034998
H28   H     H_    0.875913 0.774817 0.091544 0.116392
H29   H     H_    0.358447 0.724845 0.612422 -0.142630
H30   H     H_    0.151591 0.754859 0.597958 0.050914
H31   H     H_    0.807133 0.261633 0.362515 -0.011831
H32   H     H_    0.697948 0.076230 0.308483 0.093182
H33   H     H_    0.828224 0.074181 0.220680 0.128461
H34   H     H_    0.560932 0.969250 0.174587 0.088269
H35   H     H_    0.526783 0.726095 0.798423 0.050478
H36   H     H_    0.449141 0.788221 0.213000 -0.034985
O1    O     O_2   0.827930 0.435360 0.277760 -0.403358
O2    O     O_2   0.208999 0.124246 0.573371 -0.422885
O3    O     O_3   0.155814 0.161269 0.739748 -0.514588
O4    O     O_3   0.100310 0.439010 0.391180 -0.495057
O5    O     O_3   0.587770 0.631830 0.546230 -0.438489
O6    O     O_2   0.332600 0.233710 0.456170 -0.419627
O7    O     O_3   0.472053 0.207390 0.305513 -0.628950
O8    O     O_2   0.492764 0.445856 0.824559 -0.458999
O9    O     O_3   0.549066 0.254005 0.810390 -0.574210
O10   O     O_3   0.625610 0.634200 0.333270 -0.438992
O11   O     O_2   0.680928 0.538983 0.175380 -0.389383
O12   O     O_3   0.726054 0.803861 0.689516 -0.661184
O13   O     O_3   0.971666 0.268017 0.272270 -0.638161
O14   O     O_3   0.655272 0.730603 0.174698 -0.627622
O15   O     O_2   0.857120 0.766320 0.543890 -0.442189
O16   O     O_3   0.056570 0.691100 0.379020 -0.520092
O17   O     O_2   0.007076 0.876339 0.446079 -0.381772
O18   O     O_3   0.027530 0.847088 0.271993 -0.471699
O19   O     O_2   0.361790 0.564680 0.722290 -0.459295
O20   O     O_3   0.089410 0.561080 0.608830 -0.492736
O21   O     O_3   0.564100 0.365890 0.666740 -0.450026
O22   O     O_3   0.247940 0.732181 0.727172 -0.566358
O23   O     O_3   0.601940 0.368260 0.453780 -0.465004
O24   O     O_3   0.133140 0.308990 0.620990 -0.502323
P1    P     P_3+3 0.998770 0.403620 0.291990 1.043017
P2    P     P_3+3 0.687370 0.751000 0.571300 1.058739
P3    P     P_3+3 0.108790 0.823745 0.380288 1.112080
P4    P     P_3+3 0.190950 0.596470 0.708020 1.057992
P5    P     P_3+3 0.086975 0.175217 0.626837 1.062459
P6    P     P_3+3 0.575940 0.616892 0.214164 1.062043
P7    P     P_3+3 0.506741 0.234104 0.425185 1.001480
P8    P     P_3+3 0.609760 0.377805 0.783654 1.076676

loop_
_geom_bond_atom_site_label_1
_geom_bond_atom_site_label_2
_ccdc_geom_bond_type
Br3   C35   S    
C11   H19   S    
C2    P1    S    
C37   H10   S    
C34   H5    S    
C16   Cl9   S    
C38   C39   S    
Ba2   O20   S    
C19   H27   S    
C28   C30   S    
Ba1   Ba2   S    
Ba1   O20   S    
C31   C32   S    
C28   H30   S    
C2    C15   A    
C31   H23   S    
C30   H12   S    
Br5   C20   S    
C28   O22   S    
C35   H35   S    
C4    C16   S    
O5    P2    S    
C12   H36   S    
C3    H20   S    
Br2   C33   S    
Ba2   O5    S    
C9    C10   A    
C39   Cl8   S    
C36   O3    S    
C23   C34   S    
C1    Cl5   S    
O15   P2    D    
C11   C13   A    
C35   Cl4   S    
O3    P5    S    
C33   C35   S    
C15   C40   A    
C20   C25   A    
Br1   C32   S    
C6    C7    A    
C4    O18   S    
C18   H25   S    
O16   P3    S    
O13   P1    S    
O6    P7    D    
O1    P1    D    
C32   H32   S    
C3    C5    A    
C36   H8    S    
O12   P2    S    
C4    H26   S    
C8    C13   A    
C23   Cl6   S    
C6    H21   S    
Ba2   O19   S    
C17   P4    S    
O9    P8    S    
O23   P7    S    
O24   P5    S    
C38   H13   S    
C1    C12   S    
O4    P1    S    
C34   H3    S    
C16   H28   S    
Ba1   O5    S    
O20   P4    S    
Ba2   P4    S    
C4    H16   S    
C40   P6    S    
C3    C17   A    
Br4   C14   S    
C23   O7    S    
O19   P4    D    
O8    P8    D    
C36   C37   S    
O2    P5    D    
C33   O12   S    
C30   Cl2   S    
Ba2   O23   S    
C24   C25   A    
C5    P8    S    
C36   H9    S    
O14   P6    S    
C7    C8    A    
C10   C11   A    
Ba1   P1    S    
C39   H15   S    
C38   O9    S    
Ba1   O15   S    
C8    C17   A    
C27   P5    S    
C29   H24   S    
C7    C9    A    
C1    H34   S    
C15   H18   S    
O17   P3    D    
O7    P7    S    
C38   H14   S    
C12   Cl1   S    
C10   C40   A    
C34   H4    S    
C21   P3    S    
O18   P3    S    
Ba2   O24   S    
C9    C14   A    
C22   P2    S    
C18   C27   A    
C19   C21   A    
C13   H22   S    
C31   H31   S    
C25   C26   A    
C31   O13   S    
Ba2   O4    S    
C22   C24   A    
C28   H29   S    
C2    C14   A    
O21   P8    S    
Ba1   O4    S    
C33   Cl3   S    
C23   H2    S    
C16   H7    S    
Ba2   O21   S    
C27   C29   A    
Ba1   P2    S    
C30   H1    S    
Ba1   O16   S    
C12   O14   S    
C37   Cl7   S    
C5    C6    A    
Ba2   O6    S    
C19   C22   A    
Ba1   O1    S    
C18   C26   A    
C20   C21   A    
C26   P7    S    
C24   C29   A    
C37   H11   S    
Ba1   O23   S    
O10   P6    S    
O11   P6    D    
Ba1   O10   S    
C32   H33   S    
C39   H17   S    
O22   P4    S    
C1    H6    S    
