data_mof_unit_5723.cif
_audit_creation_date              2013-03-05T16:01:16-0500
_audit_creation_method            fapswitch 2.2
_symmetry_space_group_name_H-M    P1
_symmetry_Int_Tables_number       1
_space_group_crystal_system       triclinic
_cell_length_a                    14.720639
_cell_length_b                    14.766874
_cell_length_c                    17.186306
_cell_angle_alpha                 106.390399
_cell_angle_beta                  72.598546
_cell_angle_gamma                 115.028402
_cell_volume                      3177.40909441

loop_
_atom_site_label
_atom_site_type_symbol
_atom_site_description
_atom_site_fract_x
_atom_site_fract_y
_atom_site_fract_z
_atom_type_partial_charge
O1    O     O_R   0.020090 0.662480 0.528530 -0.482951
O2    O     O_R   0.979910 0.337520 0.471470 -0.497915
O3    O     O_R   0.160710 0.620650 0.491980 -0.533498
O4    O     O_R   0.839290 0.379350 0.508020 -0.548060
C1    C     C_R   0.118886 0.688252 0.513066 0.970840
C2    C     C_R   0.881108 0.311752 0.487057 0.880349
O5    O     O_R   0.921540 0.523360 0.633990 -0.546362
O6    O     O_R   0.078460 0.476640 0.366010 -0.543560
O7    O     O_R   0.062170 0.481520 0.597440 -0.577474
O8    O     O_R   0.937830 0.518480 0.402560 -0.578994
C3    C     C_R   0.988976 0.503477 0.652877 0.851933
C4    C     C_R   0.010979 0.496436 0.347150 0.843339
Cu1   Cu    Cu3+1 0.916740 0.524770 0.521640 1.111032
Cu2   Cu    Cu3+1 0.083260 0.475230 0.478360 1.111810
C5    C     C_R   0.976461 0.497974 0.738863 -0.125611
C6    C     C_R   0.013692 0.485814 0.259855 -0.143473
C7    C     C_R   0.059890 0.541983 0.779300 0.350356
C8    C     C_R   0.005644 0.560342 0.228693 0.316927
C9    C     C_R   0.042914 0.526949 0.860035 -0.137000
C10   C     C_R   0.001459 0.541122 0.145099 -0.140905
C11   C     C_R   0.945365 0.468029 0.899679 0.042891
C12   C     C_R   0.003512 0.449004 0.093506 0.046934
C13   C     C_R   0.863058 0.427429 0.859750 -0.025193
C14   C     C_R   0.014467 0.377343 0.124686 -0.031961
C15   C     C_R   0.878443 0.442673 0.780018 -0.202692
C16   C     C_R   0.019960 0.395848 0.207244 -0.198001
C17   C     C_2   0.928627 0.451684 0.984463 0.178482
C18   C     C_2   0.997353 0.428947 0.005790 0.172187
H1    H     H_    0.026030 0.338322 0.230865 0.217153
H2    H     H_    0.814098 0.408524 0.749301 0.187201
H3    H     H_    0.787259 0.382549 0.889799 0.190829
H4    H     H_    0.017017 0.306368 0.085469 0.196846
H5    H     H_    0.997696 0.598524 0.119767 0.191426
H6    H     H_    0.105606 0.562247 0.892593 0.190416
C19   C     C_R   0.185998 0.796616 0.521066 -0.359034
C20   C     C_R   0.813947 0.203402 0.479473 -0.381157
C21   C     C_R   0.211664 0.976395 0.558066 0.287581
C22   C     C_R   0.788037 0.023542 0.442702 0.280430
C23   C     C_R   0.146109 0.874018 0.553838 0.538707
C24   C     C_R   0.853664 0.125882 0.446402 0.512336
C25   C     C_R   0.292217 0.822651 0.496643 0.651540
C26   C     C_R   0.707800 0.177502 0.504692 0.632391
C27   C     C_R   0.359248 0.923721 0.513513 -0.105557
C28   C     C_R   0.640577 0.076475 0.488154 -0.106402
C29   C     C_R   0.319134 0.001468 0.533848 -0.350694
C30   C     C_R   0.680614 0.998645 0.467604 -0.349934
C31   C     C_R   0.466152 0.949494 0.503918 -0.158309
C32   C     C_R   0.533640 0.050825 0.498075 -0.160000
C33   C     C_R   0.492273 0.121886 0.498402 0.648733
C34   C     C_R   0.507513 0.878484 0.503710 0.655561
C35   C     C_R   0.387236 0.099768 0.521509 0.629618
C36   C     C_R   0.612530 0.900476 0.480336 0.622682
N1    N     N_R   0.208390 0.438070 0.445820 -0.290636
N2    N     N_R   0.791610 0.561930 0.554180 -0.289124
C37   C     C_R   0.298688 0.332496 0.358176 0.498019
C38   C     C_R   0.701303 0.667513 0.641843 0.495844
C39   C     C_R   0.214190 0.361104 0.381274 0.767185
C40   C     C_R   0.785826 0.638921 0.618710 0.773196
C41   C     C_R   0.284802 0.489365 0.489518 -0.020046
C42   C     C_R   0.715141 0.510602 0.510542 -0.020594
C43   C     C_R   0.373543 0.464139 0.469110 -0.076202
C44   C     C_R   0.626389 0.535827 0.530970 -0.071951
C45   C     C_R   0.378662 0.383615 0.401742 -0.096104
C46   C     C_R   0.621281 0.616361 0.598327 -0.105765
C47   C     C_R   0.456595 0.515233 0.512612 0.128329
C48   C     C_R   0.543319 0.484719 0.487487 0.141939
C49   C     C_R   0.543989 0.404208 0.419801 -0.101432
C50   C     C_R   0.455931 0.595757 0.580284 -0.084120
C51   C     C_R   0.463417 0.354853 0.378267 0.010636
C52   C     C_R   0.536501 0.645106 0.621824 0.019400
H7    H     H_    0.468034 0.293337 0.326824 0.214619
H8    H     H_    0.531881 0.706628 0.673261 0.221786
H9    H     H_    0.725687 0.450829 0.460210 0.185044
H10   H     H_    0.274218 0.549096 0.539880 0.210463
H11   H     H_    0.606164 0.377101 0.396955 0.169997
H12   H     H_    0.393798 0.622914 0.603064 0.203924
N3    N     N_R   0.160469 0.603762 0.740810 0.121698
O9    O     O_R   0.171449 0.664275 0.693535 -0.353509
O10   O     O_R   0.241335 0.608908 0.760794 -0.321699
N4    N     N_R   0.004481 0.655933 0.279700 0.143104
O11   O     O_R   0.958531 0.704397 0.262989 -0.239254
O12   O     O_R   0.058934 0.700678 0.336659 -0.328977
F1    F     F_    0.551749 0.210085 0.469811 -0.615024
F2    F     F_    0.448032 0.790450 0.532555 -0.602120
F3    F     F_    0.862570 0.688476 0.661161 -0.542885
F4    F     F_    0.137469 0.311565 0.338799 -0.566126
F5    F     F_    0.302215 0.255090 0.293407 -0.570899
F6    F     F_    0.697802 0.744940 0.706597 -0.569741
N5    N     N_R   0.069251 0.389950 0.943603 0.118910
O13   O     O_R   0.158959 0.410365 0.956992 -0.280625
O14   O     O_R   0.041637 0.325766 0.877560 -0.279322
N6    N     N_R   0.840959 0.465711 0.044698 0.118008
O15   O     O_R   0.803836 0.528434 0.038119 -0.280388
O16   O     O_R   0.791872 0.408601 0.100948 -0.312880
F7    F     F_    0.352831 0.172106 0.522195 -0.575677
F8    F     F_    0.646982 0.828173 0.479647 -0.575359
F9    F     F_    0.670555 0.248766 0.555236 -0.595209
F10   F     F_    0.329839 0.751492 0.446471 -0.586281
F11   F     F_    0.956127 0.149025 0.418519 -0.534251
F12   F     F_    0.043537 0.850741 0.580899 -0.524042
N7    N     N_R   0.168261 0.053581 0.590978 0.222685
O17   O     O_R   0.200095 0.125265 0.652194 -0.228091
O18   O     O_R   0.088085 0.044867 0.567743 -0.185534
N8    N     N_R   0.831249 0.946212 0.409538 0.226060
O19   O     O_R   0.798545 0.874151 0.348812 -0.222199
O20   O     O_R   0.912018 0.955102 0.431984 -0.170572

loop_
_geom_bond_atom_site_label_1
_geom_bond_atom_site_label_2
_geom_bond_distance
_ccdc_geom_bond_type
C21   N7    1.436473 S    
N7    O17   1.301397 A    
C20   C26   1.399465 A    
C24   F11   1.358456 S    
N8    O20   1.301306 A    
N1    C41   1.366134 A    
C34   F2    1.357695 S    
N2    C42   1.366120 A    
N3    O9    1.301431 A    
O5    C3    1.292348 A    
O1    C1    1.299295 A    
C9    C11   1.405512 A    
C14   C16   1.387631 A    
C5    C15   1.402723 A    
C29   C35   1.404397 A    
C30   C36   1.404406 A    
C42   H9    1.075252 S    
C39   F4    1.355070 S    
C42   C44   1.425679 A    
O4    Cu1   1.941736 S    
C51   H7    1.083752 S    
C22   N8    1.436640 S    
C3    C5    1.454877 S    
C45   C51   1.396569 A    
C2    C20   1.474891 S    
C33   C35   1.390606 A    
C37   C45   1.404528 A    
C34   C36   1.390721 A    
C38   C46   1.404541 A    
C18   N5    1.444241 S    
C46   C52   1.396730 A    
N5    O14   1.301806 A    
C44   C46   1.416566 A    
C48   C49   1.410433 A    
C11   C17   1.474989 S    
N7    O18   1.301300 A    
C12   C18   1.474984 S    
Cu1   Cu2   2.686420 S    
C25   C27   1.402157 A    
O2    C2    1.299276 A    
C26   C28   1.401941 A    
O2    Cu2   1.953974 S    
N6    O16   1.301772 A    
N8    O19   1.301400 A    
C28   C30   1.418645 A    
C31   C34   1.416712 A    
N3    O10   1.301550 A    
C6    C16   1.402465 A    
C41   C43   1.425556 A    
C44   C48   1.439037 A    
C4    C6    1.453861 S    
C20   C24   1.405576 A    
N4    O12   1.301371 A    
C26   F9    1.360153 S    
N1    C39   1.357754 A    
C9    H6    1.083382 S    
C49   C51   1.388825 A    
C13   H3    1.083390 S    
C19   C23   1.405423 A    
O7    Cu2   1.957153 S    
C14   H4    1.083341 S    
C27   C29   1.418686 A    
C31   C32   1.415418 A    
O6    C4    1.291914 A    
C47   C50   1.410386 A    
C7    N3    1.440090 S    
C17   N6    1.444338 S    
O7    C3    1.296544 A    
C41   H10   1.075259 S    
O3    Cu2   1.941738 S    
O8    C4    1.296391 A    
C10   H5    1.083312 S    
C8    N4    1.440285 S    
C32   C33   1.416790 A    
C10   C12   1.405551 A    
C37   C39   1.392092 A    
C12   C14   1.396107 A    
O4    C2    1.299814 A    
O1    Cu1   1.953973 S    
C21   C29   1.417976 A    
C40   F3    1.355083 S    
Cu1   N2    2.018100 S    
N2    C40   1.357793 A    
C15   H2    1.083916 S    
C5    C7    1.412054 A    
O6    Cu2   1.959406 S    
C43   C45   1.416608 A    
N4    O11   1.301533 A    
O3    C1    1.299747 A    
O8    Cu1   1.957153 S    
C50   H12   1.076221 S    
C33   F1    1.357685 S    
C11   C13   1.396018 A    
C21   C23   1.402693 A    
C22   C24   1.402987 A    
C23   F12   1.358448 S    
C1    C19   1.474777 S    
N6    O15   1.301393 A    
C7    C9    1.398756 A    
C38   C40   1.392251 A    
C36   F8    1.358214 S    
C8    C10   1.398715 A    
C13   C15   1.387447 A    
C37   F5    1.358632 S    
C19   C25   1.399542 A    
C22   C30   1.418103 A    
C38   F6    1.358623 S    
C43   C47   1.439023 A    
O5    Cu1   1.959405 S    
Cu2   N1    2.018100 S    
C49   H11   1.076311 S    
C16   H1    1.083948 S    
C6    C8    1.411709 A    
C47   C48   1.437524 A    
C17   C18   1.359868 D    
C50   C52   1.388863 A    
C25   F10   1.360089 S    
C52   H8    1.083756 S    
N5    O13   1.301337 A    
C27   C31   1.421961 A    
C28   C32   1.421954 A    
C35   F7    1.358223 S    
