data_mof_unit_62503.cif
_audit_creation_date              2012-12-10T18:54:35-0500
_audit_creation_method            fapswitch 2.2
_symmetry_space_group_name_H-M    P1
_symmetry_Int_Tables_number       1
_space_group_crystal_system       orthorhombic
_cell_length_a                    30.168479
_cell_length_b                    42.586208
_cell_length_c                    42.900336
_cell_angle_alpha                 90.0
_cell_angle_beta                  90.0
_cell_angle_gamma                 90.0
_cell_volume                      55116.6838023

loop_
_atom_site_label
_atom_site_type_symbol
_atom_type_description
_atom_site_fract_x
_atom_site_fract_y
_atom_site_fract_z
_atom_type_partial_charge
Br1   Br    Br    0.934323 0.027221 0.099777 -0.478932
Br2   Br    Br    0.565624 0.972806 0.599797 -0.479089
Br3   Br    Br    0.434375 0.972806 0.400204 -0.478489
Br4   Br    Br    0.565681 0.027223 0.400225 -0.478932
Br5   Br    Br    0.934376 0.527193 0.599797 -0.479090
Br6   Br    Br    0.065624 0.472806 0.599797 -0.479184
Br7   Br    Br    0.934324 0.472780 0.400223 -0.478932
Br8   Br    Br    0.065625 0.527194 0.400203 -0.478485
Br9   Br    Br    0.065625 0.972806 0.099797 -0.478485
Br10  Br    Br    0.934376 0.972806 0.900203 -0.479090
Br11  Br    Br    0.065625 0.027194 0.900204 -0.479184
Br12  Br    Br    0.434377 0.527193 0.099797 -0.478488
Br13  Br    Br    0.565681 0.472777 0.099775 -0.478931
Br14  Br    Br    0.434376 0.472806 0.900203 -0.479184
Br15  Br    Br    0.565624 0.527193 0.900203 -0.479089
Br16  Br    Br    0.434376 0.027193 0.599797 -0.479184
C1    C     C_R   0.998504 0.206495 0.206905 0.869336
C2    C     C_R   0.501496 0.793505 0.706905 0.869351
C3    C     C_R   0.026848 0.085766 0.883475 -0.196432
C4    C     C_R   0.473153 0.585765 0.116526 -0.196252
C5    C     C_R   0.526873 0.414219 0.116512 -0.196313
C6    C     C_R   0.473152 0.414235 0.883475 -0.196431
C7    C     C_R   0.526848 0.585765 0.883474 -0.196351
C8    C     C_R   0.473153 0.085765 0.616526 -0.196431
C9    C     C_R   0.526848 0.914235 0.616525 -0.196351
C10   C     C_R   0.473152 0.914234 0.383475 -0.196253
C11   C     C_R   0.526873 0.085781 0.383488 -0.196313
C12   C     C_R   0.973152 0.585765 0.616525 -0.196350
C13   C     C_R   0.498504 0.793505 0.293094 0.869348
C14   C     C_R   0.026848 0.414234 0.616525 -0.196431
C15   C     C_R   0.973129 0.414220 0.383487 -0.196312
C16   C     C_R   0.026848 0.585766 0.383475 -0.196253
C17   C     C_R   0.972875 0.062643 0.093757 0.279267
C18   C     C_R   0.027102 0.937370 0.093768 0.279209
C19   C     C_R   0.972898 0.937370 0.906232 0.279235
C20   C     C_R   0.027102 0.062630 0.906232 0.279216
C21   C     C_R   0.472899 0.562630 0.093768 0.279206
C22   C     C_R   0.527126 0.437356 0.093756 0.279268
C23   C     C_R   0.472898 0.437370 0.906232 0.279216
C24   C     C_R   0.501496 0.206495 0.293095 0.869336
C25   C     C_R   0.527102 0.562630 0.906232 0.279236
C26   C     C_R   0.472898 0.062630 0.593768 0.279216
C27   C     C_R   0.527102 0.937370 0.593768 0.279236
C28   C     C_R   0.472897 0.937369 0.406233 0.279207
C29   C     C_R   0.527127 0.062644 0.406244 0.279267
C30   C     C_R   0.972898 0.562630 0.593768 0.279236
C31   C     C_R   0.027102 0.437370 0.593768 0.279216
C32   C     C_R   0.972876 0.437357 0.406243 0.279267
C33   C     C_R   0.027102 0.562630 0.406232 0.279210
C34   C     C_R   0.001855 0.065345 0.068189 -0.080554
C35   C     C_R   0.998504 0.706495 0.706905 0.869349
C36   C     C_R   0.998144 0.934655 0.068189 -0.080648
C37   C     C_R   0.001856 0.934655 0.931811 -0.080573
C38   C     C_R   0.998144 0.065344 0.931811 -0.080549
C39   C     C_R   0.501856 0.565345 0.068189 -0.080647
C40   C     C_R   0.498145 0.434655 0.068189 -0.080556
C41   C     C_R   0.501856 0.434656 0.931811 -0.080549
C42   C     C_R   0.498144 0.565344 0.931811 -0.080573
C43   C     C_R   0.501856 0.065344 0.568189 -0.080548
C44   C     C_R   0.498144 0.934655 0.568189 -0.080573
C45   C     C_R   0.501856 0.934655 0.431811 -0.080648
C46   C     C_R   0.001496 0.293505 0.706905 0.869353
C47   C     C_R   0.498145 0.065344 0.431811 -0.080556
C48   C     C_R   0.001856 0.565344 0.568189 -0.080573
C49   C     C_R   0.998144 0.434656 0.568189 -0.080549
C50   C     C_R   0.001855 0.434655 0.431811 -0.080553
C51   C     C_R   0.998144 0.565344 0.431811 -0.080647
C52   C     C_R   0.031425 0.090566 0.066074 -0.229865
C53   C     C_R   0.968595 0.909423 0.066064 -0.229819
C54   C     C_R   0.031405 0.909423 0.933936 -0.229849
C55   C     C_R   0.968595 0.090577 0.933936 -0.229938
C56   C     C_R   0.531404 0.590578 0.066063 -0.229819
C57   C     C_R   0.998504 0.293505 0.293095 0.869337
C58   C     C_R   0.468573 0.409435 0.066075 -0.229861
C59   C     C_R   0.531405 0.409423 0.933936 -0.229938
C60   C     C_R   0.468595 0.590577 0.933936 -0.229849
C61   C     C_R   0.531404 0.090577 0.566064 -0.229940
C62   C     C_R   0.468595 0.909423 0.566064 -0.229850
C63   C     C_R   0.531405 0.909423 0.433936 -0.229817
C64   C     C_R   0.468573 0.090565 0.433925 -0.229863
C65   C     C_R   0.031405 0.590577 0.566064 -0.229849
C66   C     C_R   0.968595 0.409423 0.566064 -0.229938
C67   C     C_R   0.031424 0.409434 0.433926 -0.229866
C68   C     C_R   0.001496 0.706495 0.293094 0.869347
C69   C     C_R   0.968595 0.590577 0.433936 -0.229819
C70   C     C_R   0.031448 0.113581 0.088868 -0.161745
C71   C     C_R   0.968573 0.886408 0.088858 -0.161731
C72   C     C_R   0.031427 0.886408 0.911142 -0.161752
C73   C     C_R   0.968572 0.113591 0.911142 -0.161822
C74   C     C_R   0.531426 0.613592 0.088857 -0.161732
C75   C     C_R   0.468550 0.386420 0.088869 -0.161748
C76   C     C_R   0.531427 0.386408 0.911142 -0.161820
C77   C     C_R   0.468573 0.613591 0.911142 -0.161753
C78   C     C_R   0.531427 0.113592 0.588858 -0.161821
C79   C     C_R   0.998994 0.190503 0.151489 -0.193813
C80   C     C_R   0.468573 0.886408 0.588858 -0.161751
C81   C     C_R   0.531428 0.886409 0.411142 -0.161732
C82   C     C_R   0.468550 0.113580 0.411131 -0.161747
C83   C     C_R   0.031427 0.613591 0.588858 -0.161751
C84   C     C_R   0.968572 0.386408 0.588858 -0.161821
C85   C     C_R   0.031448 0.386419 0.411132 -0.161745
C86   C     C_R   0.968573 0.613591 0.411142 -0.161731
C87   C     C_R   0.912410 0.250000 0.250000 0.895885
C88   C     C_R   0.087590 0.750000 0.250000 0.895898
C89   C     C_R   0.912410 0.750000 0.750000 0.895902
C90   C     C_R   0.001057 0.809500 0.151489 -0.191864
C91   C     C_R   0.087590 0.250000 0.750000 0.895911
C92   C     C_R   0.412410 0.750000 0.250000 0.895898
C93   C     C_R   0.587590 0.250000 0.250000 0.895885
C94   C     C_R   0.412410 0.250000 0.750000 0.895911
C95   C     C_R   0.587590 0.750000 0.750000 0.895902
C96   C     C_R   0.002118 0.111317 0.114020 0.052434
C97   C     C_R   0.997881 0.888685 0.114022 0.052170
C98   C     C_R   0.002119 0.888685 0.885978 0.052206
C99   C     C_R   0.997880 0.111314 0.885978 0.052220
C100  C     C_R   0.502119 0.611315 0.114022 0.052169
C101  C     C_R   0.998943 0.809500 0.848510 -0.191888
C102  C     C_R   0.497882 0.388683 0.114020 0.052435
C103  C     C_R   0.502119 0.388685 0.885978 0.052219
C104  C     C_R   0.497881 0.611315 0.885978 0.052206
C105  C     C_R   0.502119 0.111314 0.614022 0.052219
C106  C     C_R   0.497881 0.888685 0.614022 0.052206
C107  C     C_R   0.502119 0.888685 0.385978 0.052170
C108  C     C_R   0.497882 0.111317 0.385980 0.052434
C109  C     C_R   0.002119 0.611314 0.614022 0.052206
C110  C     C_R   0.997880 0.388685 0.614022 0.052219
C111  C     C_R   0.002118 0.388683 0.385980 0.052434
C112  C     C_R   0.001496 0.793505 0.206905 0.869348
C113  C     C_R   0.001056 0.190500 0.848510 -0.191968
C114  C     C_R   0.997881 0.611315 0.385978 0.052170
C115  C     C_R   0.202820 0.237383 0.275386 -0.171462
C116  C     C_R   0.797181 0.724408 0.237512 -0.171757
C117  C     C_R   0.202819 0.724408 0.762488 -0.171778
C118  C     C_R   0.797181 0.275592 0.762488 -0.171800
C119  C     C_R   0.702819 0.775592 0.237512 -0.171756
C120  C     C_R   0.297180 0.237386 0.224612 -0.171462
C121  C     C_R   0.702819 0.224408 0.762488 -0.171801
C122  C     C_R   0.297181 0.775592 0.762488 -0.171778
C123  C     C_R   0.702819 0.275592 0.737512 -0.171800
C124  C     C_R   0.498942 0.690500 0.151489 -0.191864
C125  C     C_R   0.297181 0.724408 0.737512 -0.171778
C126  C     C_R   0.702819 0.724408 0.262488 -0.171757
C127  C     C_R   0.297180 0.262614 0.275388 -0.171462
C128  C     C_R   0.202819 0.775592 0.737512 -0.171777
C129  C     C_R   0.797181 0.224408 0.737512 -0.171800
C130  C     C_R   0.202820 0.262617 0.224613 -0.171464
C131  C     C_R   0.797181 0.775592 0.262488 -0.171757
C132  C     C_R   0.156813 0.237188 0.275305 -0.185470
C133  C     C_R   0.843187 0.724488 0.237322 -0.185554
C134  C     C_R   0.156813 0.724488 0.762678 -0.185578
C135  C     C_R   0.501003 0.309496 0.151489 -0.193814
C136  C     C_R   0.843187 0.275512 0.762678 -0.185605
C137  C     C_R   0.656813 0.775512 0.237322 -0.185554
C138  C     C_R   0.343187 0.237190 0.224694 -0.185471
C139  C     C_R   0.656813 0.224488 0.762678 -0.185604
C140  C     C_R   0.343187 0.775512 0.762678 -0.185578
C141  C     C_R   0.656813 0.275512 0.737322 -0.185604
C142  C     C_R   0.343187 0.724488 0.737322 -0.185578
C143  C     C_R   0.656813 0.724488 0.262678 -0.185554
C144  C     C_R   0.343187 0.262810 0.275306 -0.185470
C145  C     C_R   0.156813 0.775512 0.737322 -0.185579
C146  C     C_R   0.498943 0.309500 0.848510 -0.191968
C147  C     C_R   0.843187 0.224488 0.737322 -0.185605
C148  C     C_R   0.156813 0.262812 0.224695 -0.185469
C149  C     C_R   0.843187 0.775512 0.262678 -0.185553
C150  C     C_R   0.133606 0.250000 0.250000 -0.032451
C151  C     C_R   0.866394 0.750000 0.250000 -0.033518
C152  C     C_R   0.133606 0.750000 0.750000 -0.033504
C153  C     C_R   0.866394 0.250000 0.750000 -0.033500
C154  C     C_R   0.633606 0.750000 0.250000 -0.033518
C155  C     C_R   0.366394 0.250000 0.250000 -0.032448
C156  C     C_R   0.633606 0.250000 0.750000 -0.033500
C157  C     C_R   0.501057 0.690500 0.848510 -0.191889
C158  C     C_R   0.366394 0.750000 0.750000 -0.033504
C159  C     C_R   0.225884 0.250000 0.250000 0.108114
C160  C     C_R   0.774117 0.750000 0.250000 0.107195
C161  C     C_R   0.225883 0.750000 0.750000 0.107213
C162  C     C_R   0.774117 0.250000 0.750000 0.107220
C163  C     C_R   0.725883 0.750000 0.250000 0.107195
C164  C     C_R   0.274116 0.250000 0.250000 0.108113
C165  C     C_R   0.725883 0.250000 0.750000 0.107219
C166  C     C_R   0.274117 0.750000 0.750000 0.107213
C167  C     C_R   0.998186 0.542259 0.456449 0.911223
C168  C     C_R   0.498942 0.190500 0.651490 -0.191969
C169  C     C_R   0.001814 0.457741 0.456449 0.911207
C170  C     C_R   0.998186 0.457741 0.543551 0.911239
C171  C     C_R   0.001814 0.542259 0.543551 0.911272
C172  C     C_R   0.498186 0.042259 0.456449 0.911206
C173  C     C_R   0.501814 0.957741 0.456449 0.911220
C174  C     C_R   0.498186 0.957741 0.543551 0.911273
C175  C     C_R   0.501814 0.042259 0.543551 0.911239
C176  C     C_R   0.498186 0.542259 0.956449 0.911272
C177  C     C_R   0.501814 0.457741 0.956449 0.911240
C178  C     C_R   0.498186 0.457741 0.043551 0.911207
C179  C     C_R   0.501057 0.809500 0.651490 -0.191889
C180  C     C_R   0.501814 0.542259 0.043551 0.911220
C181  C     C_R   0.998186 0.042259 0.956449 0.911238
C182  C     C_R   0.001814 0.957741 0.956449 0.911273
C183  C     C_R   0.998186 0.957741 0.043551 0.911222
C184  C     C_R   0.001814 0.042259 0.043551 0.911206
C185  C     C_R   0.085351 0.250000 0.250000 0.866851
C186  C     C_R   0.914648 0.750000 0.250000 0.866967
C187  C     C_R   0.085352 0.750000 0.750000 0.866990
C188  C     C_R   0.914648 0.250000 0.750000 0.867010
C189  C     C_R   0.585352 0.750000 0.250000 0.866967
C190  C     C_R   0.498943 0.809500 0.348510 -0.191864
C191  C     C_R   0.414648 0.250000 0.250000 0.866850
C192  C     C_R   0.585352 0.250000 0.750000 0.867010
C193  C     C_R   0.414648 0.750000 0.750000 0.866990
C194  C     C_R   0.657745 0.249057 0.221628 -0.252390
C195  C     C_R   0.342255 0.750943 0.221628 -0.252300
C196  C     C_R   0.657745 0.750943 0.778372 -0.252399
C197  C     C_R   0.342255 0.249057 0.778372 -0.252479
C198  C     C_R   0.157745 0.749057 0.221628 -0.252300
C199  C     C_R   0.842255 0.250943 0.221628 -0.252390
C200  C     C_R   0.157745 0.250943 0.778372 -0.252479
C201  C     C_R   0.501003 0.190504 0.348511 -0.193815
C202  C     C_R   0.842255 0.749057 0.778372 -0.252400
C203  C     C_R   0.157745 0.249057 0.721628 -0.252480
C204  C     C_R   0.842255 0.750943 0.721628 -0.252399
C205  C     C_R   0.157745 0.750943 0.278372 -0.252300
C206  C     C_R   0.842255 0.249057 0.278372 -0.252391
C207  C     C_R   0.657745 0.749057 0.721628 -0.252400
C208  C     C_R   0.342255 0.250943 0.721628 -0.252479
C209  C     C_R   0.657745 0.250943 0.278372 -0.252390
C210  C     C_R   0.342255 0.749057 0.278372 -0.252300
C211  C     C_R   0.635134 0.250000 0.250000 -0.061406
C212  C     C_R   0.998943 0.690500 0.651490 -0.191890
C213  C     C_R   0.364866 0.750000 0.250000 -0.061416
C214  C     C_R   0.635134 0.750000 0.750000 -0.061424
C215  C     C_R   0.364866 0.250000 0.750000 -0.061404
C216  C     C_R   0.135134 0.750000 0.250000 -0.061416
C217  C     C_R   0.864866 0.250000 0.250000 -0.061406
C218  C     C_R   0.135134 0.250000 0.750000 -0.061404
C219  C     C_R   0.864866 0.750000 0.750000 -0.061424
C220  C     C_R   0.703744 0.250457 0.278615 0.121174
C221  C     C_R   0.296256 0.749543 0.278615 0.121162
C222  C     C_R   0.703744 0.749543 0.721385 0.121161
C223  C     C_R   0.998504 0.793505 0.793095 0.869351
C224  C     C_R   0.001057 0.309500 0.651490 -0.191969
C225  C     C_R   0.296256 0.250457 0.721385 0.121213
C226  C     C_R   0.203744 0.750457 0.278615 0.121162
C227  C     C_R   0.796256 0.249543 0.278615 0.121175
C228  C     C_R   0.203744 0.249543 0.721385 0.121213
C229  C     C_R   0.796256 0.750457 0.721385 0.121160
C230  C     C_R   0.203744 0.250457 0.778615 0.121212
C231  C     C_R   0.796256 0.749543 0.778615 0.121160
C232  C     C_R   0.203744 0.749543 0.221385 0.121162
C233  C     C_R   0.796256 0.250457 0.221385 0.121175
C234  C     C_R   0.703744 0.750457 0.778615 0.121160
C235  C     C_R   0.998994 0.309496 0.348511 -0.193813
C236  C     C_R   0.296256 0.249543 0.778615 0.121213
C237  C     C_R   0.703744 0.249543 0.221385 0.121175
C238  C     C_R   0.296256 0.750457 0.221385 0.121162
C239  C     C_R   0.726874 0.250000 0.250000 0.058536
C240  C     C_R   0.273126 0.750000 0.250000 0.058556
C241  C     C_R   0.726874 0.750000 0.750000 0.058530
C242  C     C_R   0.273126 0.250000 0.750000 0.058517
C243  C     C_R   0.226874 0.750000 0.250000 0.058556
C244  C     C_R   0.773126 0.250000 0.250000 0.058536
C245  C     C_R   0.226874 0.250000 0.750000 0.058517
C246  C     C_R   0.001057 0.690500 0.348510 -0.191864
C247  C     C_R   0.773126 0.750000 0.750000 0.058530
C248  C     C_R   0.726936 0.250336 0.306893 -0.210617
C249  C     C_R   0.273064 0.749664 0.306893 -0.210509
C250  C     C_R   0.726936 0.749664 0.693106 -0.210614
C251  C     C_R   0.273064 0.250336 0.693106 -0.210735
C252  C     C_R   0.226936 0.750336 0.306893 -0.210509
C253  C     C_R   0.773064 0.249664 0.306893 -0.210617
C254  C     C_R   0.226936 0.249664 0.693106 -0.210735
C255  C     C_R   0.773064 0.750336 0.693106 -0.210614
C256  C     C_R   0.226936 0.250336 0.806894 -0.210735
C257  C     C_R   0.999251 0.182210 0.183116 -0.035340
C258  C     C_R   0.773064 0.749664 0.806894 -0.210614
C259  C     C_R   0.226936 0.749664 0.193106 -0.210509
C260  C     C_R   0.773064 0.250336 0.193106 -0.210617
C261  C     C_R   0.726936 0.750336 0.806894 -0.210614
C262  C     C_R   0.273064 0.249664 0.806894 -0.210735
C263  C     C_R   0.726936 0.249664 0.193106 -0.210617
C264  C     C_R   0.273064 0.750336 0.193106 -0.210509
C265  C     C_R   0.000186 0.167288 0.128870 -0.173445
C266  C     C_R   0.999864 0.832715 0.128871 -0.173154
C267  C     C_R   0.000136 0.832715 0.871129 -0.173186
C268  C     C_R   0.000749 0.817791 0.183116 -0.035327
C269  C     C_R   0.999864 0.167285 0.871129 -0.173309
C270  C     C_R   0.500134 0.667285 0.128871 -0.173154
C271  C     C_R   0.499810 0.332711 0.128870 -0.173445
C272  C     C_R   0.500136 0.332715 0.871129 -0.173309
C273  C     C_R   0.499865 0.667285 0.871129 -0.173185
C274  C     C_R   0.500135 0.167285 0.628871 -0.173309
C275  C     C_R   0.499864 0.832715 0.628871 -0.173186
C276  C     C_R   0.500136 0.832715 0.371129 -0.173154
C277  C     C_R   0.499811 0.167288 0.371130 -0.173444
C278  C     C_R   0.000135 0.667285 0.628871 -0.173185
C279  C     C_R   0.999251 0.817791 0.816883 -0.035288
C280  C     C_R   0.999864 0.332715 0.628871 -0.173309
C281  C     C_R   0.000186 0.332712 0.371130 -0.173447
C282  C     C_R   0.999864 0.667285 0.371129 -0.173153
C283  C     C_R   0.000749 0.182208 0.816883 -0.035250
C284  C     C_R   0.499251 0.682209 0.183116 -0.035327
C285  C     C_R   0.500748 0.317790 0.183116 -0.035339
C286  C     C_R   0.499251 0.317791 0.816883 -0.035250
C287  C     C_R   0.001496 0.206494 0.793095 0.869352
C288  C     C_R   0.500749 0.682209 0.816883 -0.035287
C289  C     C_R   0.499251 0.182208 0.683116 -0.035250
C290  C     C_R   0.500749 0.817791 0.683116 -0.035287
C291  C     C_R   0.499251 0.817791 0.316883 -0.035327
C292  C     C_R   0.500748 0.182210 0.316884 -0.035340
C293  C     C_R   0.999251 0.682209 0.683116 -0.035287
C294  C     C_R   0.000749 0.317791 0.683116 -0.035249
C295  C     C_R   0.999251 0.317790 0.316884 -0.035339
C296  C     C_R   0.000749 0.682209 0.316883 -0.035328
C297  C     C_R   0.000740 0.150511 0.191901 -0.185760
C298  C     C_R   0.498504 0.706495 0.206905 0.869347
C299  C     C_R   0.999211 0.849489 0.191902 -0.187677
C300  C     C_R   0.000789 0.849489 0.808098 -0.187781
C301  C     C_R   0.999211 0.150511 0.808098 -0.187813
C302  C     C_R   0.500790 0.650511 0.191902 -0.187676
C303  C     C_R   0.499263 0.349489 0.191901 -0.185760
C304  C     C_R   0.500789 0.349489 0.808098 -0.187813
C305  C     C_R   0.499211 0.650511 0.808098 -0.187780
C306  C     C_R   0.500790 0.150511 0.691902 -0.187812
C307  C     C_R   0.499211 0.849489 0.691902 -0.187781
C308  C     C_R   0.500788 0.849489 0.308098 -0.187677
C309  C     C_R   0.501496 0.293505 0.206905 0.869336
C310  C     C_R   0.499263 0.150511 0.308099 -0.185760
C311  C     C_R   0.000789 0.650511 0.691902 -0.187780
C312  C     C_R   0.999211 0.349489 0.691902 -0.187813
C313  C     C_R   0.000740 0.349489 0.308099 -0.185761
C314  C     C_R   0.999211 0.650511 0.308098 -0.187676
C315  C     C_R   0.001926 0.127337 0.169277 -0.164673
C316  C     C_R   0.998027 0.872664 0.169278 -0.164868
C317  C     C_R   0.001973 0.872664 0.830722 -0.164971
C318  C     C_R   0.998027 0.127336 0.830722 -0.164981
C319  C     C_R   0.501975 0.627336 0.169278 -0.164870
C320  C     C_R   0.498504 0.293505 0.793095 0.869353
C321  C     C_R   0.498077 0.372663 0.169277 -0.164674
C322  C     C_R   0.501973 0.372664 0.830722 -0.164981
C323  C     C_R   0.498026 0.627336 0.830722 -0.164972
C324  C     C_R   0.501974 0.127336 0.669278 -0.164981
C325  C     C_R   0.498026 0.872664 0.669278 -0.164971
C326  C     C_R   0.501973 0.872664 0.330722 -0.164868
C327  C     C_R   0.498077 0.127336 0.330723 -0.164673
C328  C     C_R   0.001974 0.627336 0.669278 -0.164972
C329  C     C_R   0.998027 0.372664 0.669278 -0.164981
C330  C     C_R   0.001926 0.372663 0.330723 -0.164674
C331  C     C_R   0.501496 0.706495 0.793095 0.869349
C332  C     C_R   0.998027 0.627336 0.330722 -0.164868
C333  C     C_R   0.001600 0.135672 0.137730 0.130374
C334  C     C_R   0.998401 0.864330 0.137731 0.130352
C335  C     C_R   0.001599 0.864330 0.862269 0.130395
C336  C     C_R   0.998400 0.135670 0.862269 0.130438
C337  C     C_R   0.501599 0.635670 0.137731 0.130351
C338  C     C_R   0.498399 0.364328 0.137730 0.130374
C339  C     C_R   0.501599 0.364330 0.862269 0.130438
C340  C     C_R   0.498401 0.635670 0.862269 0.130394
C341  C     C_R   0.501599 0.135670 0.637731 0.130438
C342  C     C_R   0.498504 0.206494 0.706905 0.869352
C343  C     C_R   0.498401 0.864330 0.637731 0.130394
C344  C     C_R   0.501599 0.864330 0.362269 0.130351
C345  C     C_R   0.498399 0.135672 0.362270 0.130373
C346  C     C_R   0.001599 0.635670 0.637731 0.130394
C347  C     C_R   0.998400 0.364330 0.637731 0.130438
C348  C     C_R   0.001600 0.364328 0.362270 0.130375
C349  C     C_R   0.998401 0.635670 0.362269 0.130352
C350  C     C_R   0.973128 0.085780 0.116513 -0.196313
C351  C     C_R   0.026848 0.914234 0.116525 -0.196253
C352  C     C_R   0.973152 0.914234 0.883475 -0.196351
H1    H     H_    0.639447 0.248586 0.199855 0.149507
H2    H     H_    0.860553 0.751414 0.699855 0.149524
H3    H     H_    0.002285 0.214839 0.855782 0.159082
H4    H     H_    0.497711 0.714839 0.144218 0.159163
H5    H     H_    0.502188 0.285156 0.144218 0.158592
H6    H     H_    0.497714 0.285161 0.855782 0.159083
H7    H     H_    0.502287 0.714839 0.855782 0.159150
H8    H     H_    0.497713 0.214839 0.644218 0.159083
H9    H     H_    0.502287 0.785161 0.644218 0.159150
H10   H     H_    0.497715 0.785161 0.355782 0.159163
H11   H     H_    0.502189 0.214844 0.355782 0.158592
H12   H     H_    0.997713 0.714839 0.644218 0.159151
H13   H     H_    0.139447 0.751414 0.300144 0.149535
H14   H     H_    0.002286 0.285161 0.644218 0.159083
H15   H     H_    0.997805 0.285156 0.355782 0.158591
H16   H     H_    0.002286 0.714839 0.355782 0.159163
H17   H     H_    0.001146 0.143594 0.216193 0.163036
H18   H     H_    0.998763 0.856405 0.216195 0.162418
H19   H     H_    0.001236 0.856405 0.783805 0.162351
H20   H     H_    0.998764 0.143595 0.783805 0.162340
H21   H     H_    0.501239 0.643595 0.216195 0.162418
H22   H     H_    0.498860 0.356407 0.216193 0.163037
H23   H     H_    0.501236 0.356405 0.783805 0.162340
H24   H     H_    0.860553 0.248586 0.300144 0.149507
H25   H     H_    0.498763 0.643595 0.783805 0.162351
H26   H     H_    0.501238 0.143595 0.716195 0.162340
H27   H     H_    0.498763 0.856405 0.716195 0.162351
H28   H     H_    0.501236 0.856405 0.283805 0.162418
H29   H     H_    0.498859 0.143593 0.283807 0.163037
H30   H     H_    0.001237 0.643595 0.716195 0.162351
H31   H     H_    0.998764 0.356405 0.716195 0.162340
H32   H     H_    0.001146 0.356407 0.283807 0.163036
H33   H     H_    0.998763 0.643595 0.283805 0.162418
H34   H     H_    0.003452 0.102940 0.176357 0.146172
H35   H     H_    0.639447 0.748586 0.699855 0.149523
H36   H     H_    0.996463 0.897060 0.176358 0.145962
H37   H     H_    0.003537 0.897060 0.823642 0.145871
H38   H     H_    0.996464 0.102940 0.823642 0.145870
H39   H     H_    0.503539 0.602940 0.176358 0.145962
H40   H     H_    0.496554 0.397061 0.176357 0.146172
H41   H     H_    0.503537 0.397060 0.823642 0.145870
H42   H     H_    0.496462 0.602940 0.823642 0.145871
H43   H     H_    0.503538 0.102940 0.676358 0.145870
H44   H     H_    0.496462 0.897060 0.676358 0.145871
H45   H     H_    0.503536 0.897060 0.323642 0.145961
H46   H     H_    0.360552 0.251414 0.699855 0.149477
H47   H     H_    0.496553 0.102939 0.323642 0.146172
H48   H     H_    0.003537 0.602940 0.676358 0.145871
H49   H     H_    0.996463 0.397060 0.676358 0.145870
H50   H     H_    0.003452 0.397060 0.323643 0.146172
H51   H     H_    0.996463 0.602940 0.323642 0.145962
H52   H     H_    0.950505 0.083953 0.136045 0.164384
H53   H     H_    0.049454 0.916070 0.136066 0.164493
H54   H     H_    0.950546 0.916071 0.863933 0.164396
H55   H     H_    0.049454 0.083930 0.863934 0.164382
H56   H     H_    0.450547 0.583929 0.136067 0.164493
H57   H     H_    0.639447 0.251414 0.300144 0.149507
H58   H     H_    0.549498 0.416045 0.136043 0.164383
H59   H     H_    0.450546 0.416071 0.863933 0.164382
H60   H     H_    0.549453 0.583929 0.863933 0.164397
H61   H     H_    0.450547 0.083929 0.636067 0.164382
H62   H     H_    0.549454 0.916071 0.636067 0.164396
H63   H     H_    0.450545 0.916070 0.363934 0.164493
H64   H     H_    0.549498 0.083955 0.363957 0.164384
H65   H     H_    0.950546 0.583929 0.636067 0.164396
H66   H     H_    0.049454 0.416071 0.636066 0.164382
H67   H     H_    0.950505 0.416047 0.363955 0.164384
H68   H     H_    0.360552 0.748586 0.300144 0.149535
H69   H     H_    0.049454 0.583929 0.363934 0.164493
H70   H     H_    0.053989 0.092669 0.046528 0.160077
H71   H     H_    0.946048 0.907310 0.046509 0.160192
H72   H     H_    0.053952 0.907310 0.953491 0.160194
H73   H     H_    0.946047 0.092689 0.953491 0.160164
H74   H     H_    0.553951 0.592690 0.046508 0.160191
H75   H     H_    0.446008 0.407332 0.046530 0.160079
H76   H     H_    0.553952 0.407311 0.953491 0.160164
H77   H     H_    0.446048 0.592690 0.953492 0.160194
H78   H     H_    0.553952 0.092690 0.546508 0.160164
H79   H     H_    0.054400 0.133053 0.086976 0.143053
H80   H     H_    0.446048 0.907310 0.546508 0.160194
H81   H     H_    0.553953 0.907311 0.453491 0.160192
H82   H     H_    0.446008 0.092667 0.453470 0.160080
H83   H     H_    0.053952 0.592690 0.546508 0.160194
H84   H     H_    0.946048 0.407310 0.546509 0.160163
H85   H     H_    0.053988 0.407330 0.453473 0.160077
H86   H     H_    0.946048 0.592689 0.453491 0.160192
H87   H     H_    0.945638 0.866926 0.086958 0.143492
H88   H     H_    0.054362 0.866926 0.913042 0.143490
H89   H     H_    0.360552 0.751414 0.199855 0.149535
H90   H     H_    0.945637 0.133073 0.913041 0.143458
H91   H     H_    0.554360 0.633074 0.086957 0.143492
H92   H     H_    0.445596 0.366948 0.086978 0.143053
H93   H     H_    0.554362 0.366926 0.913042 0.143458
H94   H     H_    0.445638 0.633074 0.913042 0.143490
H95   H     H_    0.554361 0.133074 0.586958 0.143458
H96   H     H_    0.445638 0.866926 0.586958 0.143490
H97   H     H_    0.554363 0.866927 0.413042 0.143492
H98   H     H_    0.445596 0.133051 0.413022 0.143053
H99   H     H_    0.054362 0.633074 0.586958 0.143490
H100  H     H_    0.639447 0.751414 0.800144 0.149524
H101  H     H_    0.945638 0.366926 0.586958 0.143458
H102  H     H_    0.054400 0.366946 0.413024 0.143052
H103  H     H_    0.945638 0.633074 0.413042 0.143492
H104  H     H_    0.220449 0.227421 0.295042 0.136095
H105  H     H_    0.779554 0.704594 0.227648 0.137057
H106  H     H_    0.220446 0.704594 0.772351 0.137036
H107  H     H_    0.779554 0.295406 0.772352 0.137025
H108  H     H_    0.720446 0.795406 0.227648 0.137057
H109  H     H_    0.279551 0.227425 0.204956 0.136095
H110  H     H_    0.720446 0.204594 0.772351 0.137025
H111  H     H_    0.360552 0.248586 0.800144 0.149477
H112  H     H_    0.279554 0.795406 0.772352 0.137036
H113  H     H_    0.720446 0.295406 0.727648 0.137025
H114  H     H_    0.279554 0.704594 0.727648 0.137036
H115  H     H_    0.720446 0.704594 0.272352 0.137057
H116  H     H_    0.279551 0.272575 0.295044 0.136095
H117  H     H_    0.220446 0.795406 0.727648 0.137036
H118  H     H_    0.779554 0.204594 0.727648 0.137025
H119  H     H_    0.220449 0.272579 0.204958 0.136095
H120  H     H_    0.779554 0.795406 0.272352 0.137057
H121  H     H_    0.139447 0.227298 0.295104 0.155952
H122  H     H_    0.139447 0.748586 0.199855 0.149535
H123  H     H_    0.860549 0.704527 0.227535 0.156963
H124  H     H_    0.139450 0.704527 0.772465 0.156940
H125  H     H_    0.860549 0.295473 0.772465 0.156928
H126  H     H_    0.639450 0.795473 0.227535 0.156963
H127  H     H_    0.360553 0.227303 0.204894 0.155951
H128  H     H_    0.639450 0.204527 0.772465 0.156928
H129  H     H_    0.360550 0.795473 0.772465 0.156940
H130  H     H_    0.639450 0.295473 0.727535 0.156928
H131  H     H_    0.360550 0.704527 0.727535 0.156940
H132  H     H_    0.639450 0.704527 0.272465 0.156964
H133  H     H_    0.860553 0.251414 0.199855 0.149507
H134  H     H_    0.360553 0.272697 0.295106 0.155951
H135  H     H_    0.139450 0.795473 0.727535 0.156940
H136  H     H_    0.860549 0.204527 0.727535 0.156928
H137  H     H_    0.139447 0.272701 0.204896 0.155952
H138  H     H_    0.860549 0.795473 0.272465 0.156963
H139  H     H_    0.709410 0.250596 0.328943 0.150095
H140  H     H_    0.290590 0.749404 0.328943 0.150155
H141  H     H_    0.709410 0.749404 0.671057 0.150131
H142  H     H_    0.290590 0.250596 0.671057 0.150013
H143  H     H_    0.209410 0.750596 0.328943 0.150155
H144  H     H_    0.139447 0.251414 0.800144 0.149477
H145  H     H_    0.790590 0.249404 0.328943 0.150095
H146  H     H_    0.209410 0.249404 0.671057 0.150013
H147  H     H_    0.790590 0.750596 0.671057 0.150131
H148  H     H_    0.209410 0.250596 0.828943 0.150013
H149  H     H_    0.790590 0.749404 0.828943 0.150131
H150  H     H_    0.209410 0.749404 0.171057 0.150154
H151  H     H_    0.790590 0.250596 0.171057 0.150095
H152  H     H_    0.709410 0.750596 0.828943 0.150131
H153  H     H_    0.290590 0.249404 0.828943 0.150013
H154  H     H_    0.709410 0.249404 0.171057 0.150095
H155  H     H_    0.860553 0.748586 0.800144 0.149524
H156  H     H_    0.290590 0.750596 0.171057 0.150154
H157  H     H_    0.999442 0.173945 0.104501 0.133736
H158  H     H_    0.000646 0.826060 0.104502 0.133992
H159  H     H_    0.999355 0.826060 0.895498 0.133984
H160  H     H_    0.000645 0.173939 0.895498 0.133871
H161  H     H_    0.499352 0.673940 0.104502 0.133992
H162  H     H_    0.500551 0.326055 0.104501 0.133735
H163  H     H_    0.499354 0.326060 0.895498 0.133871
H164  H     H_    0.500646 0.673939 0.895498 0.133984
H165  H     H_    0.499353 0.173939 0.604502 0.133871
H166  H     H_    0.139447 0.248586 0.699855 0.149477
H167  H     H_    0.500646 0.826060 0.604502 0.133984
H168  H     H_    0.499355 0.826060 0.395498 0.133992
H169  H     H_    0.500552 0.173945 0.395499 0.133735
H170  H     H_    0.999354 0.673939 0.604502 0.133984
H171  H     H_    0.000645 0.326060 0.604502 0.133870
H172  H     H_    0.999442 0.326055 0.395499 0.133736
H173  H     H_    0.000646 0.673940 0.395498 0.133992
H174  H     H_    0.997805 0.214843 0.144218 0.158591
H175  H     H_    0.002286 0.785161 0.144218 0.159163
H176  H     H_    0.997714 0.785161 0.855782 0.159150
O1    O     O_R   0.998690 0.198550 0.235750 -0.623150
O2    O     O_R   0.501310 0.801450 0.735750 -0.625201
O3    O     O_R   0.498690 0.801450 0.264250 -0.625171
O4    O     O_R   0.501310 0.198550 0.264250 -0.623150
O5    O     O_R   0.998690 0.698550 0.735750 -0.625202
O6    O     O_R   0.001310 0.301450 0.735750 -0.625202
O7    O     O_R   0.998690 0.301450 0.264250 -0.623150
O8    O     O_R   0.001310 0.698550 0.264250 -0.625171
O9    O     O_R   0.998320 0.235500 0.198780 -0.630526
O10   O     O_R   0.001680 0.764500 0.198780 -0.628471
O11   O     O_R   0.998320 0.764500 0.801220 -0.628470
O12   O     O_R   0.001310 0.801450 0.235750 -0.625171
O13   O     O_R   0.001680 0.235500 0.801220 -0.628497
O14   O     O_R   0.498320 0.735500 0.198780 -0.628470
O15   O     O_R   0.501680 0.264500 0.198780 -0.630527
O16   O     O_R   0.498320 0.264500 0.801220 -0.628498
O17   O     O_R   0.501680 0.735500 0.801220 -0.628469
O18   O     O_R   0.498320 0.235500 0.698780 -0.628497
O19   O     O_R   0.501680 0.764500 0.698780 -0.628471
O20   O     O_R   0.498320 0.764500 0.301220 -0.628471
O21   O     O_R   0.501680 0.235500 0.301220 -0.630526
O22   O     O_R   0.998320 0.735500 0.698780 -0.628469
O23   O     O_R   0.998690 0.801450 0.764250 -0.625201
O24   O     O_R   0.001680 0.264500 0.698780 -0.628498
O25   O     O_R   0.998320 0.264500 0.301220 -0.630527
O26   O     O_R   0.001680 0.735500 0.301220 -0.628470
O27   O     O_R   0.932920 0.231290 0.268490 -0.620510
O28   O     O_R   0.067080 0.768710 0.268490 -0.620472
O29   O     O_R   0.932920 0.768710 0.731510 -0.620501
O30   O     O_R   0.067080 0.231290 0.731510 -0.620525
O31   O     O_R   0.432920 0.731290 0.268490 -0.620471
O32   O     O_R   0.567080 0.268710 0.268490 -0.620510
O33   O     O_R   0.432920 0.268710 0.731510 -0.620525
O34   O     O_R   0.001310 0.198550 0.764250 -0.625202
O35   O     O_R   0.567080 0.731290 0.731510 -0.620501
O36   O     O_R   0.432920 0.231290 0.768490 -0.620526
O37   O     O_R   0.567080 0.768710 0.768490 -0.620501
O38   O     O_R   0.432920 0.768710 0.231510 -0.620472
O39   O     O_R   0.567080 0.231290 0.231510 -0.620510
O40   O     O_R   0.932920 0.731290 0.768490 -0.620502
O41   O     O_R   0.067080 0.268710 0.768490 -0.620525
O42   O     O_R   0.932920 0.268710 0.231510 -0.620509
O43   O     O_R   0.067080 0.731290 0.231510 -0.620472
O44   O     O_R   0.064460 0.231280 0.268470 -0.623954
O45   O     O_R   0.498690 0.698550 0.235750 -0.625171
O46   O     O_R   0.935540 0.768720 0.268470 -0.624087
O47   O     O_R   0.064460 0.768720 0.731530 -0.624093
O48   O     O_R   0.935540 0.231280 0.731530 -0.624099
O49   O     O_R   0.564460 0.731280 0.268470 -0.624087
O50   O     O_R   0.435540 0.268720 0.268470 -0.623953
O51   O     O_R   0.564460 0.268720 0.731530 -0.624099
O52   O     O_R   0.435540 0.731280 0.731530 -0.624093
O53   O     O_R   0.564460 0.231280 0.768470 -0.624098
O54   O     O_R   0.435540 0.768720 0.768470 -0.624092
O55   O     O_R   0.564460 0.768720 0.231530 -0.624088
O56   O     O_R   0.501310 0.301450 0.235750 -0.623150
O57   O     O_R   0.435540 0.231280 0.231530 -0.623953
O58   O     O_R   0.064460 0.731280 0.768470 -0.624092
O59   O     O_R   0.935540 0.268720 0.768470 -0.624098
O60   O     O_R   0.064460 0.268720 0.231530 -0.623954
O61   O     O_R   0.935540 0.731280 0.231530 -0.624088
O62   O     O_R   0.961060 0.532480 0.467280 -0.606212
O63   O     O_R   0.038940 0.467520 0.467280 -0.606231
O64   O     O_R   0.961060 0.467520 0.532720 -0.606210
O65   O     O_R   0.038940 0.532480 0.532720 -0.606214
O66   O     O_R   0.461060 0.032480 0.467280 -0.606233
O67   O     O_R   0.498690 0.301450 0.764250 -0.625202
O68   O     O_R   0.538940 0.967520 0.467280 -0.606213
O69   O     O_R   0.461060 0.967520 0.532720 -0.606214
O70   O     O_R   0.538940 0.032480 0.532720 -0.606210
O71   O     O_R   0.461060 0.532480 0.967280 -0.606214
O72   O     O_R   0.538940 0.467520 0.967280 -0.606210
O73   O     O_R   0.461060 0.467520 0.032720 -0.606233
O74   O     O_R   0.538940 0.532480 0.032720 -0.606212
O75   O     O_R   0.961060 0.032480 0.967280 -0.606211
O76   O     O_R   0.038940 0.967520 0.967280 -0.606214
O77   O     O_R   0.961060 0.967520 0.032720 -0.606212
O78   O     O_R   0.501310 0.698550 0.764250 -0.625201
O79   O     O_R   0.038940 0.032480 0.032720 -0.606232
O80   O     O_R   0.035320 0.532480 0.467260 -0.594583
O81   O     O_R   0.964680 0.467520 0.467260 -0.594588
O82   O     O_R   0.035320 0.467520 0.532740 -0.594623
O83   O     O_R   0.964680 0.532480 0.532740 -0.594580
O84   O     O_R   0.535320 0.032480 0.467260 -0.594586
O85   O     O_R   0.464680 0.967520 0.467260 -0.594582
O86   O     O_R   0.535320 0.967520 0.532740 -0.594580
O87   O     O_R   0.464680 0.032480 0.532740 -0.594624
O88   O     O_R   0.535320 0.532480 0.967260 -0.594580
O89   O     O_R   0.498690 0.198550 0.735750 -0.625202
O90   O     O_R   0.464680 0.467520 0.967260 -0.594623
O91   O     O_R   0.535320 0.467520 0.032740 -0.594586
O92   O     O_R   0.464680 0.532480 0.032740 -0.594583
O93   O     O_R   0.035320 0.032480 0.967260 -0.594623
O94   O     O_R   0.964680 0.967520 0.967260 -0.594579
O95   O     O_R   0.035320 0.967520 0.032740 -0.594583
O96   O     O_R   0.964680 0.032480 0.032740 -0.594588
Zn1   Zn    Zn3+2 0.998750 0.225080 0.274680 0.956300
Zn2   Zn    Zn3+2 0.501250 0.774920 0.774680 0.956217
Zn3   Zn    Zn3+2 0.498750 0.774920 0.225320 0.956358
Zn4   Zn    Zn3+2 0.501250 0.225080 0.225320 0.956300
Zn5   Zn    Zn3+2 0.998750 0.725080 0.774680 0.956216
Zn6   Zn    Zn3+2 0.001250 0.274920 0.774680 0.956088
Zn7   Zn    Zn3+2 0.998750 0.274920 0.225320 0.956300
Zn8   Zn    Zn3+2 0.001250 0.725080 0.225320 0.956358
Zn9   Zn    Zn3+2 0.948920 0.000000 0.000000 1.040927
Zn10  Zn    Zn3+2 0.051080 0.000000 0.000000 1.040887
Zn11  Zn    Zn3+2 0.448920 0.500000 0.000000 1.040885
Zn12  Zn    Zn3+2 0.001250 0.774920 0.274680 0.956359
Zn13  Zn    Zn3+2 0.551080 0.500000 0.000000 1.040929
Zn14  Zn    Zn3+2 0.448920 0.000000 0.500000 1.040886
Zn15  Zn    Zn3+2 0.551080 0.000000 0.500000 1.040929
Zn16  Zn    Zn3+2 0.948920 0.500000 0.500000 1.040926
Zn17  Zn    Zn3+2 0.051080 0.500000 0.500000 1.040887
Zn18  Zn    Zn3+2 0.998750 0.774920 0.725320 0.956217
Zn19  Zn    Zn3+2 0.001250 0.225080 0.725320 0.956088
Zn20  Zn    Zn3+2 0.498750 0.725080 0.274680 0.956358
Zn21  Zn    Zn3+2 0.501250 0.274920 0.274680 0.956301
Zn22  Zn    Zn3+2 0.498750 0.274920 0.725320 0.956088
Zn23  Zn    Zn3+2 0.501250 0.725080 0.725320 0.956216
Zn24  Zn    Zn3+2 0.498750 0.225080 0.774680 0.956088

loop_
_geom_bond_atom_site_label_1
_geom_bond_atom_site_label_2
_ccdc_geom_bond_type
C266  C334  A    
C312  H31   S    
C57   O25   A    
C280  H171  S    
C248  C253  A    
C281  C348  A    
C65   H83   S    
C131  H120  S    
C136  H125  S    
C43   C175  S    
C199  C217  A    
C85   H102  S    
C281  H172  S    
C14   H66   S    
C236  C242  A    
C124  C284  A    
O7    Zn7   S    
C101  H176  S    
C315  C333  A    
C303  C321  A    
C175  O70   A    
C228  C254  A    
C297  H17   S    
C229  C255  A    
C76   C103  A    
O90   Zn11  S    
C230  C256  A    
C305  C323  A    
C19   C37   A    
C200  C230  A    
C161  C166  S    
C158  C193  S    
C240  C243  A    
C89   O29   A    
C200  C218  A    
C2    C290  S    
C197  C236  A    
O10   Zn8   S    
C13   C291  S    
C329  H49   S    
C238  C240  A    
C314  H33   S    
C115  H104  S    
C204  H2    S    
C142  C158  A    
C160  C163  S    
C78   H95   S    
C62   C80   A    
O63   Zn17  S    
C114  C349  S    
C68   O8    A    
O95   Zn10  S    
C74   C100  A    
C330  C348  A    
C175  O87   A    
C123  C165  A    
C27   C44   A    
C123  H113  S    
C148  H137  S    
C304  H23   S    
C45   C173  S    
C106  C343  S    
C89   C219  S    
C203  C218  A    
C287  O13   A    
C342  O18   A    
C119  H108  S    
C300  H19   S    
C91   O41   A    
C142  H131  S    
C93   C211  S    
C300  C317  A    
C93   O39   A    
C173  O68   A    
C140  H129  S    
C178  O73   A    
C234  C261  A    
C302  C319  A    
C249  H140  S    
C154  C189  S    
C254  H146  S    
C317  H37   S    
C131  C160  A    
O23   Zn18  S    
C109  C346  S    
C65   C83   A    
C17   C34   A    
O35   Zn23  S    
C92   C213  S    
C185  O60   A    
C286  C304  A    
C325  H44   S    
C278  C346  A    
C191  O50   A    
C196  H100  S    
C92   O31   A    
O36   Zn24  S    
O73   Zn11  S    
C232  C243  A    
C328  C346  A    
C261  H152  S    
C71   H87   S    
C134  C152  A    
C75   C102  A    
C182  O76   A    
O45   Zn20  S    
C304  C322  A    
C70   H79   S    
C230  C245  A    
C275  H167  S    
C137  H126  S    
C311  H30   S    
C183  O77   A    
C145  H135  S    
C15   C32   A    
O16   Zn24  S    
C42   C176  S    
Br9   C18   S    
C191  O57   A    
O60   Zn7   S    
C105  C341  S    
C10   C107  A    
O14   Zn3   S    
C87   O27   A    
C12   C109  A    
C189  O55   A    
C319  H39   S    
C116  H105  S    
O26   Zn12  S    
C178  O91   A    
C256  C262  A    
C60   H77   S    
C309  O15   A    
C177  O72   A    
C241  C247  A    
O65   Zn17  S    
C9    H62   S    
C63   C81   A    
C86   C114  A    
C246  C296  A    
C212  H12   S    
O68   Zn15  S    
C135  C271  A    
C139  H128  S    
C203  H166  S    
C1    C257  S    
C272  C339  A    
C321  H40   S    
Br5   C30   S    
C287  O34   A    
C275  C343  A    
C6    H59   S    
C7    C25   A    
O81   Zn16  S    
C35   O22   A    
O62   Zn16  S    
Br7   C32   S    
C113  C269  A    
O85   Zn14  S    
C272  H163  S    
C202  C231  A    
C259  H150  S    
C18   C351  A    
C49   C66   A    
C8    C105  A    
C317  C335  A    
C259  C264  A    
C90   C268  A    
C227  C244  A    
O6    Zn6   S    
C220  C239  A    
C122  C166  A    
C1    O9    A    
C71   C97   A    
C306  C324  A    
C294  C312  A    
C123  C141  A    
C44   C174  S    
C24   O21   A    
C30   C48   A    
C199  C233  A    
O72   Zn13  S    
C271  H162  S    
C231  C247  A    
O79   Zn10  S    
C257  C297  A    
C13   O20   A    
C206  H24   S    
C73   C99   A    
C299  H18   S    
C312  C329  A    
C143  C154  A    
C308  C326  A    
O56   Zn21  S    
C221  C240  A    
C15   C111  A    
C174  O69   A    
C117  C161  A    
C9    C27   A    
C53   C71   A    
O40   Zn5   S    
C184  O79   A    
C10   C28   A    
C127  C144  A    
C323  H42   S    
C82   C108  A    
C186  O61   A    
C44   C62   A    
O13   Zn6   S    
O57   Zn4   S    
C101  C279  A    
C192  O51   A    
C84   C110  A    
C221  C249  A    
C202  C219  A    
Br1   C17   S    
C250  C255  A    
C324  H43   S    
C208  C225  A    
C201  C292  A    
C121  C165  A    
C173  O85   A    
C61   C78   A    
C196  C214  A    
C121  C139  A    
O77   Zn9   S    
C74   H91   S    
C151  C186  S    
C314  C332  A    
C253  H145  S    
C131  C149  A    
C266  H158  S    
O48   Zn19  S    
C5    C22   A    
C79   C265  A    
C288  C331  S    
C55   C73   A    
C137  C154  A    
C146  H6    S    
C169  O81   A    
C225  C251  A    
Br10  C19   S    
C226  C252  A    
C288  C305  A    
Br2   C27   S    
C237  C263  A    
C96   C333  S    
C127  H116  S    
C172  O66   A    
C197  C215  A    
C207  C214  A    
C189  O49   A    
O51   Zn22  S    
C305  H25   S    
C72   H88   S    
C39   C180  S    
C50   C67   A    
C149  C151  A    
C210  C221  A    
C177  O90   A    
C264  H156  S    
O21   Zn21  S    
C324  C341  A    
C168  C274  A    
C10   H63   S    
C195  C213  A    
C46   O6    A    
C24   O4    A    
O47   Zn18  S    
C47   C64   A    
C185  O44   A    
Br3   C28   S    
Br6   C31   S    
C86   H103  S    
C222  C250  A    
C232  C259  A    
C208  C215  A    
C95   O35   A    
C289  C342  S    
C129  C147  A    
C284  C302  A    
C130  C148  A    
C285  C303  A    
C149  H138  S    
C90   C266  A    
C11   H64   S    
C91   O30   A    
C194  C237  A    
C190  C276  A    
C146  C286  A    
O84   Zn15  S    
C56   C74   A    
O69   Zn14  S    
C128  H117  S    
C224  H14   S    
C301  C318  A    
C157  H7    S    
C212  C293  A    
C82   H98   S    
C52   H70   S    
Br13  C22   S    
C298  O14   A    
C51   C167  S    
O28   Zn12  S    
C280  C347  A    
C40   C178  S    
C61   H78   S    
C179  H9    S    
C77   C104  A    
C323  C340  A    
O5    Zn5   S    
O70   Zn15  S    
C112  C268  S    
C233  C244  A    
C46   O24   A    
C229  C247  A    
C318  H38   S    
C268  C299  A    
O83   Zn16  S    
C96   C350  A    
C67   C85   A    
C298  O45   A    
C209  C220  A    
C319  C337  A    
C117  C134  A    
C63   H81   S    
C26   C43   A    
C206  C227  A    
C159  C164  S    
C28   C45   A    
C46   C294  S    
O17   Zn2   S    
C13   O3    A    
C263  H154  S    
C235  H15   S    
O89   Zn24  S    
C57   O7    A    
C12   C30   A    
C273  C340  A    
C88   O43   A    
C180  O92   A    
O24   Zn19  S    
C181  O75   A    
C270  C337  A    
C81   C107  A    
C153  C188  S    
C110  C347  S    
C284  C298  S    
C184  O96   A    
C6    C23   A    
Br8   C33   S    
C205  C216  A    
O38   Zn3   S    
C209  C211  A    
C327  H47   S    
C138  C155  A    
C291  C308  A    
C328  H48   S    
C4    H56   S    
C16   C33   A    
C282  H173  S    
C20   C38   A    
C94   C215  S    
C93   O32   A    
C311  C328  A    
C21   C39   A    
C22   C40   A    
O2    Zn2   S    
O12   Zn12  S    
C246  C282  A    
C157  C288  A    
C15   H67   S    
C132  C150  A    
C195  C238  A    
C124  C270  A    
C24   C292  S    
C196  C234  A    
C138  H127  S    
C265  H157  S    
C69   C86   A    
C194  H1    S    
C313  H32   S    
C135  H5    S    
C267  H159  S    
C204  C229  A    
C248  H139  S    
C265  C333  A    
O1    Zn1   S    
C128  C145  A    
C258  C261  A    
C8    C26   A    
C226  C243  A    
C239  C244  A    
C204  C219  A    
C267  C335  A    
C133  C151  A    
C122  H112  S    
C126  C143  A    
O61   Zn8   S    
C198  C216  A    
C255  H147  S    
C95   O37   A    
O8    Zn8   S    
C269  C336  A    
C140  C158  A    
C38   C181  S    
C180  O74   A    
C330  H50   S    
C282  C349  A    
C313  C330  A    
C199  H133  S    
C320  O67   A    
C186  O46   A    
C256  H148  S    
C97   C334  S    
C108  C345  S    
C99   C336  S    
C90   H175  S    
C203  C228  A    
C222  C241  A    
C116  C160  A    
C271  C338  A    
Br12  C21   S    
O11   Zn5   S    
C236  C262  A    
O50   Zn21  S    
C36   C53   A    
O92   Zn11  S    
C301  H20   S    
C316  C334  A    
O39   Zn4   S    
C49   C170  S    
C238  C264  A    
C139  C156  A    
C38   C55   A    
C318  C336  A    
C129  C162  A    
C135  C285  A    
C66   H84   S    
C79   H174  S    
C64   H82   S    
C234  C241  A    
C325  C343  A    
O22   Zn18  S    
C11   C29   A    
O19   Zn23  S    
C87   C217  S    
C94   O36   A    
C116  C133  A    
C43   C61   A    
C187  O47   A    
C134  H124  S    
C37   C54   A    
C6    C103  A    
C171  O65   A    
O67   Zn22  S    
C307  C325  A    
C172  O84   A    
C195  H89   S    
C120  H109  S    
C285  C309  S    
C274  C341  A    
C276  C344  A    
C69   H86   S    
C193  O52   A    
C40   C58   A    
Br15  C25   S    
O78   Zn23  S    
C289  C306  A    
C68   C296  S    
O58   Zn5   S    
C350  H52   S    
O43   Zn8   S    
C188  O48   A    
C150  C185  S    
C58   C75   A    
O29   Zn18  S    
C277  C345  A    
C5    C102  A    
C60   C77   A    
O64   Zn16  S    
C120  C138  A    
C197  H111  S    
C59   H76   S    
C327  C345  A    
C260  C263  A    
C11   C108  A    
O49   Zn20  S    
C56   H74   S    
C130  C159  A    
O91   Zn13  S    
C233  C260  A    
C126  H115  S    
C118  C162  A    
C309  O56   A    
C331  O78   A    
C91   C218  S    
C220  C248  A    
C80   H96   S    
C188  O59   A    
C5    H58   S    
C293  C311  A    
O3    Zn3   S    
C283  C301  A    
O74   Zn13  S    
C171  O83   A    
C132  H121  S    
C169  O63   A    
O25   Zn1   S    
C170  O82   A    
C157  C273  A    
O27   Zn1   S    
C76   H93   S    
C201  H11   S    
C64   C82   A    
C7    H60   S    
Br16  C26   S    
C68   O26   A    
C225  C242  A    
C179  C290  A    
O46   Zn12  S    
C25   C42   A    
C176  O71   A    
O93   Zn10  S    
C67   H85   S    
C113  C283  A    
C18   C36   A    
C79   C257  A    
C80   C106  A    
O15   Zn4   S    
C297  C315  A    
O53   Zn24  S    
C246  H16   S    
C260  H151  S    
O76   Zn10  S    
C136  C153  A    
C262  H153  S    
C41   C59   A    
C51   C69   A    
C190  H10   S    
C77   H94   S    
C115  C159  A    
C251  C254  A    
C144  C155  A    
C168  C289  A    
C72   C98   A    
C147  C153  A    
C162  C165  S    
C278  H170  S    
C103  C339  S    
C190  C291  A    
C295  C313  A    
C78   C105  A    
C179  C275  A    
C125  C142  A    
C128  C161  A    
C316  H36   S    
C270  H161  S    
C50   C169  S    
O87   Zn14  S    
C198  C232  A    
C187  O58   A    
C283  C287  S    
C121  H110  S    
C89   O40   A    
C107  C344  S    
Br14  C23   S    
C35   C293  S    
C23   C41   A    
C57   C295  S    
C141  H130  S    
C14   C110  A    
C206  C217  A    
O75   Zn9   S    
C4    C21   A    
C250  H141  S    
C52   C70   A    
C322  C339  A    
C104  C340  S    
C193  O54   A    
O30   Zn19  S    
C129  H118  S    
C54   C72   A    
O18   Zn22  S    
C182  O94   A    
C16   C114  A    
C202  H155  S    
C147  H136  S    
C87   O42   A    
C181  O93   A    
C83   C109  A    
C183  O95   A    
C235  C281  A    
C3    H55   S    
C53   H71   S    
C167  O62   A    
C37   C182  S    
C302  H21   S    
C54   H72   S    
Br11  C20   S    
C45   C63   A    
C58   H75   S    
C3    C20   A    
O4    Zn4   S    
C141  C156  A    
C92   O38   A    
C88   O28   A    
C205  H13   S    
C88   C216  S    
C223  C279  S    
C321  C338  A    
C279  C300  A    
C224  C280  A    
C143  H132  S    
C97   C351  A    
C251  H142  S    
C207  H35   S    
O80   Zn17  S    
C125  C166  A    
O55   Zn3   S    
O33   Zn22  S    
C210  C213  A    
C276  H168  S    
C85   C111  A    
C322  H41   S    
C320  O16   A    
O37   Zn2   S    
C306  H26   S    
C125  H114  S    
C112  O10   A    
C192  O53   A    
C351  H53   S    
C113  H3    S    
C290  C307  A    
C144  H134  S    
C117  H106  S    
C94   O33   A    
C118  C136  A    
O20   Zn20  S    
C252  H143  S    
O42   Zn7   S    
C1    O1    A    
C310  C327  A    
C34   C52   A    
C326  H45   S    
C2    O19   A    
C205  C226  A    
C315  H34   S    
C48   C65   A    
C35   O5    A    
C296  C314  A    
C210  H68   S    
Br4   C29   S    
C48   C171  S    
C303  H22   S    
C14   C31   A    
C156  C192  S    
C292  C310  A    
C258  H149  S    
O86   Zn15  S    
C7    C104  A    
C237  C239  A    
C34   C184  S    
O54   Zn2   S    
C212  C278  A    
C224  C294  A    
C17   C350  A    
C124  H4    S    
C29   C47   A    
C19   C352  A    
C41   C177  S    
C101  C267  A    
C70   C96   A    
O96   Zn9   S    
C227  C253  A    
O71   Zn11  S    
C98   C335  S    
C2    O2    A    
O44   Zn1   S    
C126  C163  A    
C176  O88   A    
C194  C211  A    
C3    C99   A    
C100  C337  S    
C155  C191  S    
C352  H54   S    
C329  C347  A    
C223  O23   A    
C326  C344  A    
O34   Zn19  S    
C62   H80   S    
C115  C132  A    
C36   C183  S    
C83   H99   S    
C127  C164  A    
C231  C258  A    
C168  H8    S    
C201  C277  A    
C133  H123  S    
C81   H97   S    
C59   C76   A    
C331  O17   A    
C332  H51   S    
C274  H165  S    
C174  O86   A    
C242  C245  A    
C277  H169  S    
O31   Zn20  S    
O9    Zn7   S    
C307  H27   S    
C9    C106  A    
C122  C140  A    
C310  H29   S    
C235  C295  A    
C33   C51   A    
C42   C60   A    
C269  H160  S    
C66   C84   A    
O88   Zn13  S    
C39   C56   A    
O82   Zn17  S    
C4    C100  A    
C207  C222  A    
C208  H46   S    
O66   Zn14  S    
C273  H164  S    
C167  O80   A    
C342  O89   A    
C12   H65   S    
C120  C164  A    
C75   H92   S    
C119  C137  A    
C152  C187  S    
O32   Zn21  S    
C32   C50   A    
C148  C150  A    
C73   H90   S    
C119  C163  A    
C200  H144  S    
C111  C348  S    
C198  H122  S    
O59   Zn6   S    
C55   H73   S    
C8    H61   S    
C286  C320  S    
C112  O12   A    
C223  O11   A    
C130  H119  S    
C249  C252  A    
C84   H101  S    
C145  C152  A    
C308  H28   S    
C332  C349  A    
O52   Zn23  S    
C16   H69   S    
O94   Zn9   S    
C209  H57   S    
O41   Zn6   S    
C98   C352  A    
C47   C172  S    
C95   C214  S    
C170  O64   A    
C228  C245  A    
C299  C316  A    
C31   C49   A    
C102  C338  S    
C118  H107  S    
C146  C272  A    
