data_mof_unit_28033.cif
_audit_creation_date              2012-10-26T18:30:17-0400
_audit_creation_method            fapswitch 2.2
_symmetry_space_group_name_H-M    P1
_symmetry_Int_Tables_number       1
_space_group_crystal_system       triclinic
_cell_length_a                    10.628607
_cell_length_b                    12.992889
_cell_length_c                    11.675486
_cell_angle_alpha                 100.066166
_cell_angle_beta                  93.379929
_cell_angle_gamma                 90.359066
_cell_volume                      1584.53538448

loop_
_atom_site_label
_atom_site_type_symbol
_atom_type_description
_atom_site_fract_x
_atom_site_fract_y
_atom_site_fract_z
_atom_type_partial_charge
C1    C     C_R   0.498049 0.299066 0.478403 0.548873
C2    C     C_R   0.604516 0.591032 0.856158 0.044855
C3    C     C_R   0.549084 0.544129 0.157124 0.044159
C4    C     C_R   0.450916 0.455871 0.842876 0.044158
C5    C     C_R   0.541659 0.536800 0.034275 0.005295
C6    C     C_R   0.458340 0.463201 0.965724 0.005296
C7    C     C_R   0.259188 0.499953 0.500680 0.554029
C8    C     C_R   0.740812 0.500047 0.499320 0.554030
C9    C     C_3   0.046977 0.506760 0.610594 -0.113364
C10   C     C_3   0.953023 0.493240 0.389406 -0.113364
C11   C     C_3   0.959757 0.417677 0.544055 -0.122944
C12   C     C_R   0.501950 0.700934 0.521597 0.548873
C13   C     C_3   0.040243 0.582322 0.455945 -0.122944
C14   C     C_3   0.877579 0.499947 0.498292 0.043707
C15   C     C_3   0.122421 0.500053 0.501708 0.043706
C16   C     C_3   0.962507 0.589027 0.564773 -0.125631
C17   C     C_3   0.037493 0.410973 0.435227 -0.125631
C18   C     C_R   0.504629 0.814391 0.534371 -0.061799
C19   C     C_R   0.495370 0.185609 0.465629 -0.061798
C20   C     C_R   0.456391 0.014773 0.346357 0.257671
C21   C     C_R   0.543607 0.985226 0.653643 0.257668
C22   C     C_R   0.461490 0.123354 0.357500 -0.119492
C23   C     C_R   0.524261 0.139517 0.563194 -0.140103
C24   C     C_R   0.538508 0.876646 0.642500 -0.119489
C25   C     C_3   0.520833 0.937726 0.170319 -0.021046
C26   C     C_3   0.481668 0.862005 0.059046 -0.370382
C27   C     C_3   0.479170 0.062288 0.829677 -0.021074
C28   C     C_3   0.518333 0.138010 0.940947 -0.370410
C29   C     C_R   0.475740 0.860483 0.436806 -0.140100
C30   C     C_R   0.517462 0.031447 0.554600 0.009143
C31   C     C_R   0.482537 0.968553 0.445400 0.009145
C32   C     C_R   0.384812 0.399062 0.021648 -0.183730
C33   C     C_R   0.615188 0.600939 0.978352 -0.183732
C34   C     C_R   0.395484 0.408969 0.143842 0.044855
Cu1   Cu    Cu3+1 0.509400 0.507730 0.615930 0.929824
Cu2   Cu    Cu3+1 0.490600 0.492270 0.384070 0.929824
H1    H     H_    0.923574 0.350267 0.579868 0.116760
H2    H     H_    0.437323 0.158609 0.281752 0.132990
H3    H     H_    0.386910 0.399580 0.789354 0.114275
H4    H     H_    0.613090 0.600420 0.210646 0.114275
H5    H     H_    0.661275 0.641085 0.814061 0.122381
H6    H     H_    0.338724 0.358916 0.185939 0.122381
H7    H     H_    0.319853 0.341453 0.971393 0.083891
H8    H     H_    0.680145 0.658548 0.028607 0.083890
H9    H     H_    0.600861 0.902797 0.215589 0.124485
H10   H     H_    0.552879 0.012449 0.146421 0.127241
H11   H     H_    0.400233 0.893311 0.012770 0.157149
H12   H     H_    0.076426 0.649732 0.420132 0.116761
H13   H     H_    0.561374 0.850820 0.000958 0.096159
H14   H     H_    0.454226 0.785225 0.080371 0.161479
H15   H     H_    0.447115 0.987574 0.853577 0.127259
H16   H     H_    0.399155 0.097217 0.784405 0.124499
H17   H     H_    0.545797 0.214779 0.919619 0.161492
H18   H     H_    0.438623 0.149214 0.999028 0.096156
H19   H     H_    0.599748 0.106697 0.987231 0.157148
H20   H     H_    0.088107 0.512259 0.701145 0.121053
H21   H     H_    0.911893 0.487741 0.298855 0.121053
H22   H     H_    0.928548 0.661881 0.617554 0.110133
H23   H     H_    0.071452 0.338119 0.382446 0.110133
H24   H     H_    0.448916 0.811759 0.353668 0.178793
H25   H     H_    0.551088 0.188241 0.646331 0.178790
H26   H     H_    0.562674 0.841391 0.718248 0.132993
N1    N     N_R   0.523540 0.519360 0.790140 -0.228047
N2    N     N_R   0.476460 0.480640 0.209860 -0.228047
O1    O     O_R   0.506670 0.354460 0.582000 -0.510089
O2    O     O_3   0.583252 0.045471 0.759434 -0.566968
O3    O     O_R   0.493330 0.645540 0.418000 -0.510089
O4    O     O_R   0.490800 0.341410 0.386200 -0.509424
O5    O     O_R   0.509200 0.658590 0.613800 -0.509424
O6    O     O_R   0.324790 0.506500 0.597880 -0.507701
O7    O     O_R   0.675210 0.493500 0.402120 -0.507701
O8    O     O_R   0.308910 0.493440 0.402080 -0.503620
O9    O     O_R   0.691090 0.506560 0.597920 -0.503620
O10   O     O_3   0.416748 0.954528 0.240567 -0.566964

loop_
_geom_bond_atom_site_label_1
_geom_bond_atom_site_label_2
_ccdc_geom_bond_type
C6    C32   A    
C12   O5    A    
C21   O2    S    
Cu1   Cu2   S    
C34   H6    S    
C7    O6    A    
Cu2   O3    S    
C3    N2    A    
C27   H16   S    
C4    N1    A    
C18   C24   A    
C9    C16   S    
C26   H14   S    
C30   C31   A    
C11   C14   S    
Cu1   O1    S    
C10   C17   S    
C22   H2    S    
C1    O4    A    
C25   O10   S    
C11   H1    S    
C11   C17   S    
Cu1   O6    S    
C5    C33   A    
C1    O1    A    
C29   H24   S    
Cu2   O7    S    
C7    C15   S    
C28   H19   S    
C27   H15   S    
C12   O3    A    
C1    C19   S    
C23   C30   A    
C19   C22   A    
C4    C6    A    
C10   C14   S    
C26   H13   S    
C7    O8    A    
C18   C29   A    
C28   H18   S    
C8    C14   S    
C25   C26   S    
C32   C34   A    
C19   C23   A    
C4    H3    S    
C10   H21   S    
C34   N2    A    
C20   O10   S    
C9    H20   S    
C16   H22   S    
C9    C11   S    
C26   H11   S    
C17   H23   S    
C2    C33   A    
C20   C22   A    
C3    H4    S    
C13   C15   S    
C14   C16   S    
C21   C24   A    
C25   H9    S    
C2    N1    A    
C15   C17   S    
Cu1   O9    S    
C8    O7    A    
C24   H26   S    
C33   H8    S    
C3    C5    A    
C10   C13   S    
C13   H12   S    
C28   H17   S    
Cu2   O4    S    
C21   C30   A    
C9    C15   S    
C29   C31   A    
C27   O2    S    
C5    C6    A    
C8    O9    A    
C32   H7    S    
C23   H25   S    
Cu1   O5    S    
C13   C16   S    
C12   C18   S    
C27   C28   S    
Cu1   N1    S    
C2    H5    S    
Cu2   N2    S    
C25   H10   S    
Cu2   O8    S    
C20   C31   A    
