data_mof_unit_14093.cif
_audit_creation_date              2012-12-10T16:55:46-0500
_audit_creation_method            fapswitch 2.2
_symmetry_space_group_name_H-M    P1
_symmetry_Int_Tables_number       1
_space_group_crystal_system       triclinic
_cell_length_a                    7.869495
_cell_length_b                    8.660579
_cell_length_c                    10.53107
_cell_angle_alpha                 92.842914
_cell_angle_beta                  84.353708
_cell_angle_gamma                 93.235875
_cell_volume                      712.416456552

loop_
_atom_site_label
_atom_site_type_symbol
_atom_type_description
_atom_site_fract_x
_atom_site_fract_y
_atom_site_fract_z
_atom_type_partial_charge
C1    C     C_R   0.544717 0.793721 0.498398 0.878450
C2    C     C_R   0.455483 0.206393 0.504174 0.890028
C3    C     C_R   0.500407 0.504645 0.742189 0.860783
C4    C     C_R   0.500045 0.496764 0.257997 0.892923
C5    C     C_3   0.351305 0.551271 0.974963 0.012366
C6    C     C_3   0.650838 0.453362 0.026040 0.015506
C7    C     C_3   0.480198 0.643344 0.052627 -0.036325
C8    C     C_3   0.522429 0.360876 0.948438 -0.012049
C9    C     C_3   0.502287 0.497220 0.123368 -0.085848
C10   C     C_3   0.499738 0.506788 0.877181 -0.086387
C11   C     C_3   0.372062 0.403361 0.046992 -0.250656
C12   C     C_3   0.630140 0.600764 0.953794 -0.248721
C13   C     C_2   0.569049 0.955977 0.492630 0.194674
C14   C     C_2   0.432823 0.045391 0.520066 0.232235
H1    H     H_    0.270870 0.320306 0.086632 0.188241
H2    H     H_    0.731230 0.684766 0.915938 0.192858
N1    N     N_2   0.950320 0.457950 0.465730 -0.170257
N2    N     N_2   0.049680 0.542050 0.534270 -0.158706
O1    O     O_R   0.389250 0.738570 0.508410 -0.584913
O2    O     O_R   0.610750 0.261430 0.491590 -0.599811
O3    O     O_R   0.678390 0.711620 0.486450 -0.619891
O4    O     O_R   0.321610 0.288380 0.513550 -0.623581
O5    O     O_R   0.355460 0.513510 0.697030 -0.637798
O6    O     O_R   0.644540 0.486490 0.302970 -0.620653
O7    O     O_R   0.644600 0.486560 0.675070 -0.633195
O8    O     O_R   0.355400 0.513440 0.324930 -0.631039
Zn1   Zn    Zn3+2 0.306940 0.517990 0.514670 0.970571
Zn2   Zn    Zn3+2 0.693060 0.482010 0.485330 0.973733
C15   C     C_1   0.458089 0.798351 0.113456 0.198079
N3    N     N_1   0.440709 0.920316 0.161390 -0.183276
C16   C     C_1   0.552638 0.205328 0.891804 0.149002
N4    N     N_1   0.578619 0.082707 0.848290 -0.258423
C17   C     C_1   0.190059 0.614535 0.949536 0.214460
N5    N     N_1   0.063444 0.666499 0.930579 -0.222090
C18   C     C_1   0.812662 0.392139 0.053082 0.241051
N6    N     N_1   0.939588 0.342089 0.073837 -0.216576
C19   C     C_1   0.028091 0.349536 0.381576 0.436516
N7    N     N_1   0.091521 0.257629 0.311669 -0.207406
C20   C     C_1   0.970635 0.643156 0.623802 0.433846
N8    N     N_1   0.905265 0.727800 0.699059 -0.287894
O9    O     O_3   0.728962 0.014590 0.443234 -0.608524
C21   C     C_3   0.846492 0.014705 0.536610 -0.139911
H3    H     H_    0.943823 0.929605 0.505520 0.220322
H4    H     H_    0.788199 0.990388 0.634876 0.123635
H5    H     H_    0.913413 0.130123 0.543437 0.181491
O10   O     O_3   0.269505 0.987501 0.561573 -0.619267
C22   C     C_3   0.245100 0.006043 0.695871 -0.299938
H6    H     H_    0.273356 0.127476 0.730394 0.164709
H7    H     H_    0.322735 0.924490 0.740885 0.180941
H8    H     H_    0.109006 0.977998 0.727410 0.196714

loop_
_geom_bond_atom_site_label_1
_geom_bond_atom_site_label_2
_ccdc_geom_bond_type
C2    O4    A    
C4    O8    A    
N2    C20   S    
C1    O3    A    
C15   N3    T    
C7    C15   S    
O5    Zn1   S    
O1    Zn1   S    
O9    C21   S    
C3    O5    A    
C16   N4    T    
N1    Zn2   S    
C6    C9    S    
C13   O9    S    
N1    N2    D    
C5    C10   S    
C22   H7    S    
C3    C10   S    
N1    C19   S    
C13   C14   D    
O7    Zn2   S    
C9    C11   S    
O8    Zn1   S    
C19   N7    T    
C21   H4    S    
C8    C11   S    
C2    C14   S    
C10   C12   S    
C8    C10   S    
O3    Zn2   S    
C17   N5    T    
C22   H8    S    
C7    C9    S    
O4    Zn1   S    
C5    C11   S    
C6    C12   S    
C7    C12   S    
C4    O6    A    
C1    O1    A    
C1    C13   S    
C21   H3    S    
C2    O2    A    
C22   H6    S    
O6    Zn2   S    
C3    O7    A    
C6    C18   S    
C14   O10   S    
C20   N8    T    
C5    C7    S    
O10   C22   S    
C6    C8    S    
C18   N6    T    
O2    Zn2   S    
C4    C9    S    
C8    C16   S    
C11   H1    S    
N2    Zn1   S    
C12   H2    S    
C21   H5    S    
C5    C17   S    
