data_mof_unit_59924.cif
_audit_creation_date              2013-03-05T15:44:36-0500
_audit_creation_method            fapswitch 2.2
_symmetry_space_group_name_H-M    P1
_symmetry_Int_Tables_number       1
_space_group_crystal_system       triclinic
_cell_length_a                    8.277514
_cell_length_b                    17.499645
_cell_length_c                    19.20904
_cell_angle_alpha                 94.954603
_cell_angle_beta                  94.095265
_cell_angle_gamma                 95.630016
_cell_volume                      2749.75842511

loop_
_atom_site_label
_atom_site_type_symbol
_atom_site_description
_atom_site_fract_x
_atom_site_fract_y
_atom_site_fract_z
_atom_type_partial_charge
P1    P     P_3+3 0.970290 0.672580 0.555000 0.492501
O1    O     O_2   0.143190 0.684560 0.534150 -0.355360
O2    O     O_3   0.882350 0.590230 0.535560 -0.434359
O3    O     O_3   0.372640 0.639320 0.408320 -0.365606
O4    O     O_2   0.277661 0.774651 0.456220 -0.377843
O5    O     O_3   0.990630 0.696414 0.645629 -0.520448
O6    O     O_3   0.360730 0.768166 0.328015 -0.515394
H1    H     H_    0.316831 0.658045 0.277261 0.151036
C1    C     C_3   0.392098 0.740397 0.206323 -0.959134
H2    H     H_    0.266589 0.754505 0.192458 0.291476
H3    H     H_    0.478896 0.792879 0.205715 0.251317
P2    P     P_3+3 0.347000 0.441860 0.341200 0.487776
P3    P     P_3+3 0.922605 0.605395 0.281669 0.482748
O7    O     O_2   0.176230 0.464730 0.330450 -0.334559
O8    O     O_3   0.952380 0.601530 0.373300 -0.363327
O9    O     O_2   0.044880 0.554516 0.248496 -0.378381
O10   O     O_3   0.290725 0.341846 0.329117 -0.632377
O11   O     O_3   0.990789 0.699082 0.264494 -0.494195
C2    C     C_3   0.875822 0.748279 0.286055 0.394155
H4    H     H_    0.832334 0.736032 0.337882 0.080486
H5    H     H_    0.771117 0.742478 0.245782 0.052073
C3    C     C_3   0.953502 0.831258 0.293087 -0.882031
H6    H     H_    0.057004 0.838864 0.334044 0.285311
H7    H     H_    0.998565 0.846276 0.242388 0.259635
C4    C     C_3   0.940178 0.280869 0.324775 0.280624
H8    H     H_    0.982579 0.316053 0.283044 0.172986
H9    H     H_    0.046555 0.279860 0.363012 0.109640
C5    C     C_3   0.889356 0.197776 0.293455 -0.848497
H10   H     H_    0.999164 0.172202 0.276238 0.223891
H11   H     H_    0.841318 0.163111 0.334371 0.159621
Ba1   Ba    Ba6+2 0.157360 0.537160 0.466280 1.586582
C6    C     C_3   0.034631 0.634125 0.680751 0.233911
H12   H     H_    0.150651 0.616552 0.662897 0.082118
H13   H     H_    0.939232 0.584383 0.670337 0.107653
C7    C     C_3   0.055709 0.658610 0.760048 -0.650879
H14   H     H_    0.087415 0.608162 0.786690 0.117750
C8    C     C_3   0.405060 0.298816 0.296812 0.901136
H15   H     H_    0.530307 0.319892 0.318357 0.024564
C9    C     C_3   0.395969 0.302511 0.216910 -0.881537
H16   H     H_    0.477101 0.262357 0.193612 0.222683
H17   H     H_    0.445772 0.359311 0.203478 0.147584
P4    P     P_3+3 0.840010 0.327410 0.444950 0.438372
O12   O     O_2   0.667110 0.315390 0.465830 -0.368055
O13   O     O_3   0.927950 0.409760 0.464380 -0.436712
O14   O     O_3   0.437660 0.360670 0.591630 -0.329691
O15   O     O_3   0.808757 0.314536 0.353293 -0.621113
P5    P     P_3+3 0.875974 0.400061 0.718304 0.568839
O16   O     O_3   0.379150 0.537830 0.583060 -0.402729
O17   O     O_3   0.857920 0.398470 0.626650 -0.354427
O18   O     O_2   0.728125 0.437700 0.745408 -0.339381
O19   O     O_3   0.839939 0.304043 0.738222 -0.485274
Ba2   Ba    Ba6+2 0.652820 0.462830 0.533660 1.605768
P6    P     P_3+3 0.406355 0.740263 0.411844 0.468526
C10   C     C_3   0.402827 0.711131 0.278549 0.525798
H18   H     H_    0.529030 0.696984 0.290667 -0.034362
H19   H     H_    0.423078 0.695355 0.166715 0.220042
O20   O     O_3   0.431150 0.462160 0.416880 -0.349671
C11   C     C_3   0.537861 0.695641 0.628971 0.432871
H20   H     H_    0.661189 0.679868 0.619206 0.094057
H21   H     H_    0.452713 0.677379 0.581825 0.112131
C12   C     C_3   0.544773 0.782934 0.642147 -0.899664
H22   H     H_    0.624603 0.803995 0.690192 0.302309
H23   H     H_    0.593742 0.810627 0.597198 0.208381
H24   H     H_    0.420516 0.799871 0.648617 0.261544
P7    P     P_3+3 0.457744 0.561809 0.670673 0.455041
O21   O     O_2   0.634060 0.535220 0.669530 -0.364167
O22   O     O_3   0.484651 0.662321 0.688290 -0.549016
H25   H     H_    0.862212 0.870712 0.308435 0.207514
C13   C     C_3   0.988753 0.271321 0.746558 1.138242
H26   H     H_    0.062147 0.282554 0.701109 -0.175865
C14   C     C_3   0.949653 0.183471 0.746974 -0.729612
H27   H     H_    0.062648 0.156957 0.760358 0.133898
H28   H     H_    0.865299 0.171209 0.788057 0.208791
P8    P     P_3+3 0.407280 0.259036 0.587336 0.512530
C15   C     C_3   0.368892 0.164986 0.684941 0.361905
H29   H     H_    0.239580 0.160554 0.664535 0.030337
O23   O     O_2   0.544085 0.228253 0.545740 -0.355087
O24   O     O_3   0.456416 0.235199 0.672848 -0.464375
H30   H     H_    0.366511 0.163269 0.742265 0.079479
H31   H     H_    0.367218 0.042020 0.658573 0.216162
C16   C     C_3   0.452462 0.095195 0.658988 -0.875083
H32   H     H_    0.559988 0.089857 0.695303 0.260838
H33   H     H_    0.491629 0.099884 0.605407 0.264441
H34   H     H_    0.773298 0.153788 0.451325 0.113572
H35   H     H_    0.598596 0.895595 0.431466 0.153983
C17   C     C_R   0.710772 0.722848 0.475469 -0.492351
C18   C     C_R   0.864297 0.746097 0.509296 0.322770
C19   C     C_R   0.925158 0.825487 0.514114 -0.203768
C20   C     C_R   0.831403 0.880524 0.484695 0.067420
C21   C     C_R   0.674437 0.854755 0.452720 -0.292186
C22   C     C_R   0.614110 0.776294 0.448936 0.227288
C23   C     C_R   0.893421 0.172184 0.476646 -0.210436
C24   C     C_R   0.949919 0.252048 0.486252 0.326666
C25   C     C_R   0.204004 0.221390 0.543309 0.157585
C26   C     C_R   0.151238 0.141854 0.530184 -0.318002
C27   C     C_R   0.993719 0.116173 0.499065 0.133244
C28   C     C_1   0.936684 0.032837 0.492359 -0.034948
C29   C     C_1   0.890851 0.963471 0.488832 -0.001452
C30   C     C_R   0.102556 0.275272 0.521232 -0.388572
H36   H     H_    0.230986 0.099805 0.545198 0.146129
H37   H     H_    0.043237 0.844299 0.541393 0.162102
H38   H     H_    0.662367 0.662889 0.473029 0.194940
H39   H     H_    0.145532 0.336049 0.528972 0.161153
C31   C     C_R   0.605739 0.537156 0.295289 0.246418
C32   C     C_R   0.454690 0.496761 0.274216 0.131743
C33   C     C_R   0.394330 0.497379 0.203900 -0.350258
C34   C     C_R   0.493270 0.530250 0.154281 0.041704
C35   C     C_R   0.652668 0.564445 0.177101 -0.334518
C36   C     C_R   0.709072 0.568191 0.247919 0.085144
C37   C     C_R   0.474195 0.584992 0.036286 -0.166021
C38   C     C_R   0.420632 0.578579 0.964725 -0.093121
C39   C     C_R   0.325729 0.511755 0.933177 0.159362
C40   C     C_R   0.287375 0.451508 0.975279 -0.153192
C41   C     C_R   0.340695 0.457876 0.046485 -0.125385
C42   C     C_R   0.434396 0.524726 0.078272 0.167335
C43   C     C_R   0.109014 0.470732 0.831324 -0.169771
C44   C     C_R   0.072055 0.451769 0.758014 0.145495
C45   C     C_R   0.336401 0.513691 0.734997 0.298453
C46   C     C_R   0.380336 0.526211 0.807245 -0.185505
C47   C     C_R   0.269867 0.503421 0.856402 -0.059989
C48   C     C_R   0.187253 0.472561 0.711301 -0.494745
H40   H     H_    0.499773 0.554748 0.825010 0.159090
H41   H     H_    0.451972 0.626337 0.934249 0.151639
H42   H     H_    0.545599 0.637562 0.058868 0.128118
H43   H     H_    0.273076 0.470347 0.187590 0.222683
H44   H     H_    0.216130 0.398797 0.953253 0.144279
H45   H     H_    0.311142 0.409426 0.076294 0.149675
H46   H     H_    0.733546 0.586683 0.140031 0.178189
H47   H     H_    0.156265 0.461090 0.655425 0.163806
C49   C     C_2   0.765962 0.192740 0.231255 1.226311
O25   O     O_2   0.795197 0.229595 0.181657 -0.559562
O26   O     O_R   0.620399 0.144234 0.227898 -0.776036
H48   H     H_    0.608557 0.114700 0.270636 0.292481
C50   C     C_2   0.192378 0.722387 0.778435 1.146189
O27   O     O_2   0.310052 0.711548 0.817176 -0.650351
O28   O     O_R   0.184285 0.793820 0.751591 -0.735484
H49   H     H_    0.283298 0.831619 0.767795 0.320967
C51   C     C_2   0.899605 0.681585 0.787564 1.124171
O29   O     O_2   0.840904 0.738587 0.768663 -0.584156
O30   O     O_R   0.822756 0.637550 0.835396 -0.786361
H50   H     H_    0.720759 0.659269 0.851085 0.326181
O31   O     O_3   0.367386 0.220242 0.307734 -0.649965
C52   C     C_3   0.409956 0.206753 0.377534 -0.141340
H51   H     H_    0.374085 0.251908 0.416112 0.154726
H52   H     H_    0.542302 0.201166 0.384520 0.151546
H53   H     H_    0.344419 0.151045 0.388124 0.140902
C53   C     C_2   0.226240 0.280792 0.182545 1.223307
O32   O     O_2   0.139799 0.331123 0.169396 -0.616568
O33   O     O_R   0.166588 0.203648 0.164126 -0.743078
H54   H     H_    0.248115 0.166443 0.176527 0.331192
O34   O     O_3   0.070881 0.301298 0.812064 -0.624135
C54   C     C_3   0.240159 0.295748 0.813043 -0.317249
H55   H     H_    0.303160 0.336465 0.855857 0.189139
H56   H     H_    0.293258 0.312134 0.764220 0.165767
H57   H     H_    0.266993 0.237499 0.825482 0.163434
C55   C     C_2   0.875076 0.143881 0.678037 1.040249
O35   O     O_2   0.826942 0.180979 0.631100 -0.591059
O36   O     O_R   0.858452 0.063349 0.668772 -0.784265
H58   H     H_    0.799672 0.042343 0.621955 0.320554
C56   C     C_2   0.978433 0.464211 0.880635 1.081718
O37   O     O_2   0.968945 0.517231 0.925519 -0.617115
O38   O     O_R   0.867499 0.398151 0.876703 -0.724402
H59   H     H_    0.785032 0.401552 0.913124 0.325517
O39   O     O_3   0.654734 0.545511 0.364457 -0.663650
C57   C     C_3   0.744150 0.483925 0.377389 0.152994
H60   H     H_    0.834971 0.470952 0.339112 0.096013
H61   H     H_    0.667784 0.429773 0.379716 0.108675
H62   H     H_    0.807987 0.504005 0.427999 0.238114

loop_
_geom_bond_atom_site_label_1
_geom_bond_atom_site_label_2
_geom_bond_distance
_ccdc_geom_bond_type
P1    C18   1.871424 S    
C52   H53   1.110082 S    
O5    C6    1.394944 S    
C18   C19   1.423482 A    
C57   H60   1.113968 S    
O3    P6    1.755797 S    
P4    C24   1.873345 S    
P8    C25   1.861042 S    
C30   H39   1.082014 S    
C26   C27   1.409491 A    
P1    Ba1   3.364139 S    
O7    Ba1   2.822144 S    
C16   H32   1.107433 S    
C51   O29   1.222876 D    
C9    H17   1.097104 S    
C43   C44   1.422884 A    
C4    C5    1.531684 S    
C33   H43   1.079644 S    
C5    H10   1.110413 S    
P3    O11   1.747510 S    
O4    P6    1.546099 D    
O39   C57   1.395530 S    
C2    H5    1.110556 S    
C43   C56   1.489723 S    
O16   Ba2   2.903434 S    
C17   C22   1.394870 A    
C7    C51   1.507794 S    
C31   C36   1.399965 A    
O12   Ba2   2.805356 S    
C33   C34   1.422614 A    
C11   H21   1.110720 S    
C52   H51   1.112670 S    
C23   C27   1.420190 A    
C35   C36   1.400246 A    
C12   H23   1.108315 S    
P1    O1    1.513321 D    
P4    O15   1.752858 S    
C13   C14   1.540491 S    
C44   C48   1.399047 A    
C45   C46   1.402169 A    
C39   C40   1.408771 A    
P3    C36   1.872416 S    
C53   O32   1.219740 D    
C37   H42   1.082387 S    
C37   C38   1.405459 A    
C2    H4    1.113344 S    
O26   H48   1.012675 S    
P7    O22   1.751427 S    
P8    O23   1.544512 D    
P2    O10   1.757419 S    
P6    C22   1.843149 S    
P7    C45   1.853543 S    
O16   P7    1.760615 S    
C1    H2    1.110574 S    
C24   C30   1.394213 A    
O13   Ba2   2.907650 S    
C11   C12   1.521478 S    
C57   H61   1.092432 S    
C25   C26   1.412776 A    
P4    O13   1.551900 S    
C7    C50   1.509070 S    
C31   C32   1.389851 A    
C16   H33   1.108255 S    
C28   C29   1.230365 T    
P5    O18   1.546803 D    
O1    Ba1   2.804872 S    
H35   C21   1.083225 S    
Ba1   O13   2.779060 S    
C38   H41   1.082644 S    
P1    O5    1.746980 S    
C13   O34   1.419339 S    
C6    C7    1.539115 S    
C2    C3    1.520145 S    
O30   H50   1.013704 S    
P5    O17   1.753823 S    
C8    O31   1.416682 S    
H1    C10   1.110902 S    
C9    H16   1.107356 S    
C39   C47   1.504097 S    
C17   C18   1.391992 A    
O11   C2    1.404927 S    
C50   O28   1.398515 S    
C40   H44   1.080690 S    
O14   Ba2   2.758698 S    
C11   H20   1.107787 S    
O8    Ba1   2.761786 S    
C43   C47   1.429483 A    
O14   P8    1.765578 S    
P1    O2    1.551926 S    
C7    H14   1.102022 S    
C6    H13   1.110760 S    
C12   H24   1.110360 S    
C49   O26   1.398299 S    
C15   H29   1.106310 S    
C8    H15   1.104288 S    
C54   H57   1.106521 S    
P2    O7    1.511465 D    
O34   C54   1.412943 S    
O17   Ba2   2.762421 S    
C34   C42   1.497790 S    
C27   C28   1.479891 S    
C1    H19   1.108975 S    
O10   C8    1.410967 S    
C35   H46   1.082382 S    
C46   C47   1.415493 A    
O2    Ba1   2.906808 S    
C1    H3    1.110599 S    
C3    H25   1.110700 S    
C40   C41   1.398532 A    
C51   O30   1.397237 S    
P2    O20   1.562803 S    
C54   H56   1.111549 S    
C57   H62   1.085809 S    
Ba1   O16   2.793861 S    
P3    O8    1.767850 S    
P2    Ba1   3.373189 S    
O36   H58   1.012875 S    
C3    H7    1.110629 S    
P4    O12   1.513568 D    
O6    P6    1.749050 S    
C34   C35   1.417132 A    
C17   H38   1.081671 S    
Ba2   O21   2.822415 S    
C14   H28   1.111280 S    
O38   H59   1.013878 S    
C46   H40   1.081088 S    
C52   H52   1.109041 S    
C10   H18   1.110285 S    
C55   O35   1.222165 D    
C38   C39   1.407542 A    
C53   O33   1.397579 S    
C26   H36   1.079430 S    
C56   O38   1.397161 S    
C19   H37   1.082678 S    
C48   H47   1.082350 S    
H31   C16   1.110377 S    
C31   O39   1.352422 S    
P5    O19   1.757189 S    
O2    Ba2   2.779659 S    
C41   C42   1.404957 A    
C50   O27   1.222964 D    
C1    C10   1.519574 S    
C15   C16   1.525950 S    
C4    H9    1.108180 S    
H34   C23   1.081642 S    
C32   C33   1.407616 A    
Ba1   Ba2   4.556991 S    
C20   C29   1.479784 S    
C6    H12   1.105096 S    
Ba1   O20   2.904278 S    
C55   O36   1.397067 S    
C49   O25   1.220923 D    
C4    H8    1.108092 S    
C14   H27   1.107974 S    
C8    C9    1.538551 S    
O33   H54   1.012952 S    
C56   O37   1.223180 D    
C41   H45   1.081554 S    
C21   C22   1.408168 A    
P2    C32   1.892760 S    
C25   C30   1.395582 A    
C14   C55   1.501814 S    
C37   C42   1.409936 A    
C5    H11   1.106127 S    
C23   C24   1.421592 A    
C5    C49   1.506127 S    
C12   H22   1.109312 S    
C15   O24   1.409693 S    
C13   H26   1.118870 S    
O3    Ba1   2.759209 S    
Ba2   O20   2.793266 S    
C11   O22   1.403003 S    
P5    C44   1.857625 S    
C19   C20   1.423819 A    
P7    O21   1.575770 D    
P8    O24   1.758927 S    
P3    O9    1.547305 D    
C9    C53   1.507811 S    
O31   C52   1.407524 S    
C3    H6    1.110831 S    
O28   H49   1.013793 S    
C54   H55   1.104827 S    
O19   C13   1.413138 S    
O6    C10   1.404343 S    
C20   C21   1.411364 A    
C15   H30   1.105659 S    
C4    O15   1.409143 S    
C45   C48   1.392201 A    
P4    Ba2   3.364607 S    
