data_mof_unit_65981.cif
_audit_creation_date              2012-10-26T17:47:30-0400
_audit_creation_method            fapswitch 2.2
_symmetry_space_group_name_H-M    P1
_symmetry_Int_Tables_number       1
_space_group_crystal_system       triclinic
_cell_length_a                    23.653152
_cell_length_b                    30.544449
_cell_length_c                    19.689849
_cell_angle_alpha                 89.966399
_cell_angle_beta                  125.503993
_cell_angle_gamma                 90.312187
_cell_volume                      11580.2923054

loop_
_atom_site_label
_atom_site_type_symbol
_atom_type_description
_atom_site_fract_x
_atom_site_fract_y
_atom_site_fract_z
_atom_type_partial_charge
C1    C     C_R   0.808875 0.190636 0.115359 0.536332
C2    C     C_R   0.357767 0.749906 0.999456 0.543294
C3    C     C_3   0.053498 0.956372 0.759960 0.024428
C4    C     C_3   0.121633 0.983381 0.803762 -0.291804
C5    C     C_3   0.115983 0.025023 0.841778 -0.452143
C6    C     C_3   0.003570 0.151830 0.583297 -0.006406
C7    C     C_3   0.048128 0.190958 0.591639 -0.280982
C8    C     C_3   0.009079 0.220066 0.514539 -0.476242
C9    C     C_3   0.008067 0.849866 0.407994 -0.006594
C10   C     C_3   0.058454 0.821046 0.403643 -0.256231
C11   C     C_3   0.102524 0.793267 0.482053 -0.476164
C12   C     C_3   0.524563 0.627317 0.365280 0.019275
C13   C     C_R   0.357660 0.250221 0.999339 0.538842
C14   C     C_3   0.582804 0.631534 0.458606 -0.248167
C15   C     C_3   0.651150 0.613510 0.479423 -0.456367
C16   C     C_3   0.550161 0.454953 0.758505 0.031453
C17   C     C_3   0.617371 0.482973 0.803522 -0.298934
C18   C     C_3   0.609511 0.523990 0.841160 -0.465307
C19   C     C_3   0.497180 0.649604 0.588947 -0.004576
C20   C     C_3   0.536112 0.691281 0.594684 -0.285283
C21   C     C_3   0.492544 0.718979 0.516107 -0.478712
C22   C     C_3   0.454579 0.453071 0.244405 0.033959
C23   C     C_3   0.389219 0.482295 0.199516 -0.293268
C24   C     C_R   0.642218 0.749656 0.000408 0.535614
C25   C     C_3   0.397422 0.520769 0.156686 -0.472613
C26   C     C_3   0.906118 0.128200 0.127391 0.021670
C27   C     C_3   0.873256 0.107915 0.040992 -0.242638
C28   C     C_3   0.917561 0.116410 0.008922 -0.488019
C29   C     C_3   0.127726 0.882608 0.912475 0.040306
C30   C     C_3   0.058402 0.857224 0.870815 -0.272121
C31   C     C_3   0.028348 0.861889 0.921213 -0.492395
C32   C     C_3   0.071365 0.149144 0.850604 0.035947
C33   C     C_3   0.011832 0.119685 0.833022 -0.263986
C34   C     C_3   0.968041 0.142326 0.856546 -0.488184
C35   C     C_R   0.142157 0.750157 0.000393 0.540178
C36   C     C_3   0.901104 0.874775 0.120446 0.024267
C37   C     C_3   0.968926 0.848866 0.173342 -0.267822
C38   C     C_3   0.006785 0.847520 0.131678 -0.495285
C39   C     C_3   0.424887 0.641230 0.144178 0.015196
C40   C     C_3   0.399627 0.625266 0.057010 -0.260620
C41   C     C_3   0.456330 0.629405 0.042807 -0.491314
C42   C     C_3   0.625082 0.381268 0.911594 0.037420
C43   C     C_3   0.555988 0.355512 0.868561 -0.271614
C44   C     C_3   0.524183 0.360035 0.917045 -0.493732
C45   C     C_3   0.569689 0.650204 0.847578 0.043003
C46   C     C_R   0.857915 0.249716 0.999761 0.543560
C47   C     C_3   0.510367 0.620666 0.830337 -0.263059
C48   C     C_3   0.463302 0.644627 0.847349 -0.491349
C49   C     C_3   0.376633 0.380778 0.089203 0.035969
C50   C     C_3   0.444922 0.354677 0.132173 -0.272550
C51   C     C_3   0.477745 0.359412 0.084830 -0.494025
C52   C     C_R   0.857622 0.750167 0.999263 0.541114
C53   C     C_R   0.142195 0.249599 0.000360 0.535405
C54   C     C_1   0.581336 0.250679 0.000584 -0.031716
C55   C     C_1   0.418416 0.749542 0.998916 -0.031929
C56   C     C_1   0.418241 0.250817 0.998644 -0.030606
C57   C     C_R   0.189778 0.809146 0.885708 0.538148
C58   C     C_1   0.581475 0.748971 0.000770 -0.033837
C59   C     C_1   0.081273 0.750618 0.000451 -0.030023
C60   C     C_1   0.918759 0.249011 0.999625 -0.035870
C61   C     C_1   0.918045 0.750543 0.998246 -0.033093
C62   C     C_1   0.081483 0.248730 0.000782 -0.033986
C63   C     C_1   0.529936 0.250931 0.999992 -0.055015
C64   C     C_1   0.469689 0.749281 0.999231 -0.056355
C65   C     C_1   0.469548 0.250999 0.999032 -0.054215
C66   C     C_1   0.530071 0.748944 0.000176 -0.053674
C67   C     C_1   0.029782 0.750731 0.999671 -0.052221
C68   C     C_R   0.190978 0.190866 0.884720 0.522303
C69   C     C_1   0.970028 0.248580 0.999944 -0.054494
C70   C     C_1   0.969317 0.750662 0.998552 -0.055143
C71   C     C_1   0.030232 0.248438 0.000509 -0.052298
C72   C     C_2   0.852130 0.111367 0.286188 0.300245
C73   C     C_2   0.131391 0.881598 0.700998 0.251487
C74   C     C_2   0.152413 0.105808 0.723840 0.268460
C75   C     C_2   0.853378 0.885404 0.290684 0.272040
C76   C     C_2   0.348583 0.605172 0.275089 0.293366
C77   C     C_2   0.633644 0.382800 0.703612 0.260032
C78   C     C_2   0.651952 0.606180 0.723648 0.261802
C79   C     C_R   0.810280 0.809349 0.115346 0.526342
C80   C     C_2   0.364309 0.383426 0.294479 0.258992
C81   C     C_2   0.920485 0.101994 0.337235 0.287170
C82   C     C_2   0.087157 0.913426 0.689243 0.309123
C83   C     C_2   0.083392 0.099135 0.668130 0.303491
C84   C     C_2   0.920336 0.898927 0.336192 0.294382
C85   C     C_2   0.417691 0.600430 0.332697 0.291135
C86   C     C_2   0.587270 0.413575 0.689684 0.307532
C87   C     C_2   0.583006 0.598837 0.668713 0.297192
C88   C     C_2   0.412691 0.413421 0.310389 0.306017
C89   C     C_2   0.832392 0.151929 0.235663 -0.066429
C90   C     C_R   0.309279 0.690746 0.115278 0.539056
C91   C     C_2   0.146536 0.843713 0.755820 -0.094379
C92   C     C_2   0.177018 0.145583 0.777173 -0.081034
C93   C     C_2   0.832530 0.846538 0.236040 -0.082320
C94   C     C_2   0.323622 0.645629 0.224000 -0.059737
C95   C     C_2   0.648339 0.344460 0.757275 -0.090077
C96   C     C_2   0.676859 0.645620 0.777207 -0.088489
C97   C     C_2   0.349647 0.344839 0.241432 -0.088789
C98   C     C_2   0.841807 0.154500 0.174935 0.256120
C99   C     C_2   0.156596 0.845832 0.830167 0.262822
C100  C     C_2   0.155041 0.155451 0.824476 0.273072
C101  C     C_R   0.689615 0.309130 0.885764 0.537286
C102  C     C_2   0.843060 0.845295 0.176021 0.262733
C103  C     C_2   0.344256 0.655087 0.175031 0.263077
C104  C     C_2   0.656196 0.345824 0.830374 0.261056
C105  C     C_2   0.655085 0.655651 0.824629 0.256207
C106  C     C_2   0.343890 0.345846 0.169617 0.263091
C107  C     C_R   0.441505 0.442728 0.380923 0.587755
C108  C     C_R   0.557211 0.560007 0.615024 0.544609
C109  C     C_R   0.558314 0.442669 0.618924 0.585856
C110  C     C_R   0.443982 0.561137 0.386823 0.544848
C111  C     C_R   0.943740 0.939037 0.386867 0.570398
C112  C     C_R   0.691264 0.690904 0.884765 0.523756
C113  C     C_R   0.057329 0.059945 0.615220 0.557779
C114  C     C_R   0.058129 0.942475 0.618530 0.566818
C115  C     C_R   0.944107 0.061190 0.387007 0.570667
C116  C     C_3   0.735723 0.096616 0.235199 -0.000517
C117  C     C_3   0.730067 0.121691 0.298526 -0.272569
C118  C     C_3   0.656966 0.139498 0.257784 -0.478786
C119  C     C_3   0.227211 0.882232 0.697844 -0.004221
C120  C     C_3   0.252785 0.929741 0.722654 -0.247125
C121  C     C_3   0.331733 0.932702 0.772891 -0.487038
C122  C     C_3   0.262129 0.089210 0.754858 0.005447
C123  C     C_R   0.310381 0.309111 0.114174 0.536736
C124  C     C_3   0.253472 0.111544 0.679444 -0.276032
C125  C     C_3   0.323328 0.126484 0.699615 -0.482508
C126  C     C_3   0.750532 0.923507 0.222470 0.001685
C127  C     C_3   0.772092 0.967502 0.205918 -0.244470
C128  C     C_3   0.712159 0.988209 0.125229 -0.473067
C129  C     C_3   0.248187 0.564454 0.182176 -0.005629
C130  C     C_3   0.179887 0.583349 0.160899 -0.260794
C131  C     C_3   0.119808 0.573015 0.070942 -0.485422
C132  C     C_3   0.732707 0.387082 0.707692 0.007554
C133  C     C_3   0.754486 0.435061 0.733473 -0.258511
C134  C     C_R   0.642172 0.250155 0.000427 0.539203
C135  C     C_3   0.833282 0.440394 0.786739 -0.490772
C136  C     C_3   0.754027 0.566351 0.803773 0.000178
C137  C     C_3   0.822626 0.585659 0.825868 -0.259088
C138  C     C_3   0.883505 0.571609 0.912757 -0.485060
C139  C     C_3   0.263053 0.389668 0.284865 0.005497
C140  C     C_3   0.244114 0.437623 0.257635 -0.256723
C141  C     C_3   0.165591 0.443881 0.201496 -0.488797
C142  C     C_3   0.020924 0.124071 0.348978 0.022350
C143  C     C_3   0.091325 0.127757 0.433931 -0.259166
C144  C     C_3   0.150461 0.114261 0.428258 -0.486499
Cu1   Cu    Cu3+1 0.780520 0.280530 0.061040 0.911292
Cu2   Cu    Cu3+1 0.055770 0.000000 0.499980 0.910955
Cu3   Cu    Cu3+1 0.444230 0.500000 0.500020 0.947429
Cu4   Cu    Cu3+1 0.555770 0.500000 0.499980 0.909427
Cu5   Cu    Cu3+1 0.219480 0.719470 0.938960 0.900336
Cu6   Cu    Cu3+1 0.219480 0.280530 0.938960 0.902404
Cu7   Cu    Cu3+1 0.780520 0.719470 0.061040 0.915464
Cu8   Cu    Cu3+1 0.280520 0.780530 0.061040 0.916181
Cu9   Cu    Cu3+1 0.719480 0.219470 0.938960 0.911529
Cu10  Cu    Cu3+1 0.719480 0.780530 0.938960 0.907270
Cu11  Cu    Cu3+1 0.280520 0.219470 0.061040 0.923585
Cu12  Cu    Cu3+1 0.944230 0.000000 0.500020 0.947841
H1    H     H_    0.699707 0.068127 0.212749 0.150152
H2    H     H_    0.229693 0.949978 0.665534 0.191407
H3    H     H_    0.484019 0.629363 0.534411 0.128239
H4    H     H_    0.549074 0.710947 0.649552 0.182453
H5    H     H_    0.585326 0.682365 0.603202 0.145218
H6    H     H_    0.479004 0.700002 0.460412 0.196117
H7    H     H_    0.522574 0.748501 0.521650 0.148506
H8    H     H_    0.444054 0.729616 0.507792 0.147628
H9    H     H_    0.468870 0.446641 0.200821 0.136269
H10   H     H_    0.500181 0.471463 0.295603 0.154846
H11   H     H_    0.342402 0.463412 0.151860 0.201576
H12   H     H_    0.380241 0.495551 0.244969 0.148326
H13   H     H_    0.236235 0.943314 0.760865 0.164944
H14   H     H_    0.442142 0.541602 0.203461 0.172808
H15   H     H_    0.349387 0.540619 0.124115 0.181070
H16   H     H_    0.405719 0.508942 0.109778 0.126235
H17   H     H_    0.805829 0.177833 0.244372 0.051756
H18   H     H_    0.157287 0.813226 0.736903 0.092868
H19   H     H_    0.216165 0.166156 0.780398 0.037868
H20   H     H_    0.802005 0.821191 0.239790 0.079198
H21   H     H_    0.285107 0.665592 0.222662 0.056103
H22   H     H_    0.660887 0.314470 0.739021 0.099635
H23   H     H_    0.718069 0.664763 0.782335 0.061433
H24   H     H_    0.356094 0.913419 0.831280 0.154426
H25   H     H_    0.335427 0.315102 0.258750 0.099043
H26   H     H_    0.958027 0.113258 0.170510 0.122346
H27   H     H_    0.915499 0.163908 0.126024 0.113754
H28   H     H_    0.867593 0.071986 0.044459 0.166957
H29   H     H_    0.820800 0.121734 0.996014 0.195355
H30   H     H_    0.922659 0.152118 0.003061 0.161423
H31   H     H_    0.892498 0.101029 0.946549 0.142175
H32   H     H_    0.970056 0.102128 0.052035 0.141503
H33   H     H_    0.119243 0.916564 0.924490 0.128446
H34   H     H_    0.166499 0.869930 0.975944 0.159789
H35   H     H_    0.348458 0.967414 0.789546 0.144326
H36   H     H_    0.019830 0.869585 0.806908 0.208182
H37   H     H_    0.066463 0.821874 0.866346 0.149193
H38   H     H_    0.065913 0.849893 0.985882 0.156995
H39   H     H_    0.979782 0.842273 0.891520 0.158003
H40   H     H_    0.016106 0.896702 0.923352 0.137085
H41   H     H_    0.048789 0.179921 0.814029 0.142101
H42   H     H_    0.104830 0.156880 0.918472 0.147593
H43   H     H_    0.978265 0.111054 0.765602 0.193484
H44   H     H_    0.033275 0.089014 0.869658 0.156881
H45   H     H_    0.000232 0.150086 0.924307 0.153596
H46   H     H_    0.349722 0.920105 0.735583 0.143913
H47   H     H_    0.924869 0.120312 0.842199 0.144537
H48   H     H_    0.945622 0.173057 0.820467 0.156188
H49   H     H_    0.913781 0.907318 0.107135 0.149779
H50   H     H_    0.864939 0.859269 0.058526 0.150791
H51   H     H_    0.003726 0.864661 0.235348 0.219184
H52   H     H_    0.957565 0.814836 0.182191 0.156667
H53   H     H_    0.971791 0.835074 0.066812 0.156700
H54   H     H_    0.052463 0.825647 0.167372 0.154340
H55   H     H_    0.025098 0.880844 0.130234 0.144466
H56   H     H_    0.477896 0.628262 0.189719 0.131434
H57   H     H_    0.296677 0.060563 0.771965 0.151850
H58   H     H_    0.430092 0.677597 0.148341 0.122418
H59   H     H_    0.383540 0.590358 0.049007 0.169099
H60   H     H_    0.353823 0.644490 0.009031 0.194561
H61   H     H_    0.476445 0.663441 0.054552 0.158494
H62   H     H_    0.434770 0.620351 0.977401 0.145648
H63   H     H_    0.499915 0.607027 0.085162 0.141308
H64   H     H_    0.616030 0.414978 0.924073 0.128530
H65   H     H_    0.663588 0.368219 0.974837 0.159838
H66   H     H_    0.518103 0.367618 0.804262 0.209513
H67   H     H_    0.564881 0.320223 0.864833 0.150051
H68   H     H_    0.289231 0.110532 0.811150 0.124663
H69   H     H_    0.561198 0.348602 0.982241 0.156939
H70   H     H_    0.476077 0.339905 0.886783 0.157610
H71   H     H_    0.510731 0.394732 0.917815 0.135761
H72   H     H_    0.546787 0.680077 0.808072 0.142786
H73   H     H_    0.601454 0.659641 0.914667 0.144766
H74   H     H_    0.479116 0.609761 0.764115 0.196449
H75   H     H_    0.532095 0.591301 0.870946 0.155651
H76   H     H_    0.493439 0.655412 0.913537 0.153423
H77   H     H_    0.420982 0.622318 0.834781 0.142540
H78   H     H_    0.439734 0.673671 0.806208 0.154481
H79   H     H_    0.228933 0.088086 0.626334 0.174685
H80   H     H_    0.386729 0.414387 0.077132 0.128689
H81   H     H_    0.337848 0.367781 0.025763 0.160150
H82   H     H_    0.482760 0.366308 0.197033 0.208543
H83   H     H_    0.434707 0.319395 0.134480 0.150479
H84   H     H_    0.440780 0.348494 0.019097 0.156789
H85   H     H_    0.525127 0.338966 0.114866 0.157736
H86   H     H_    0.492620 0.394070 0.085680 0.135333
H87   H     H_    0.219126 0.140471 0.660075 0.140680
H88   H     H_    0.348315 0.150406 0.751962 0.154130
H89   H     H_    0.717475 0.116328 0.178509 0.127598
H90   H     H_    0.315362 0.142481 0.644031 0.146919
H91   H     H_    0.358182 0.097999 0.716920 0.145523
H92   H     H_    0.706474 0.929362 0.226929 0.154187
H93   H     H_    0.730510 0.900675 0.168871 0.129708
H94   H     H_    0.789268 0.990177 0.258761 0.224105
H95   H     H_    0.816185 0.962644 0.201124 0.182788
H96   H     H_    0.695239 0.966437 0.071311 0.152892
H97   H     H_    0.729357 0.020018 0.115421 0.179812
H98   H     H_    0.667584 0.994133 0.128658 0.132917
H99   H     H_    0.242395 0.528334 0.174564 0.141700
H100  H     H_    0.742948 0.099352 0.350218 0.174588
H101  H     H_    0.258825 0.575895 0.136792 0.136442
H102  H     H_    0.168250 0.569237 0.203604 0.173115
H103  H     H_    0.184684 0.619408 0.169664 0.160983
H104  H     H_    0.129648 0.587738 0.027078 0.156439
H105  H     H_    0.071040 0.586860 0.057685 0.147584
H106  H     H_    0.113121 0.537041 0.060783 0.141877
H107  H     H_    0.752367 0.376217 0.671169 0.157117
H108  H     H_    0.757966 0.365612 0.763730 0.117996
H109  H     H_    0.731467 0.455634 0.676773 0.195655
H110  H     H_    0.735107 0.446866 0.769804 0.146441
H111  H     H_    0.767530 0.149458 0.325624 0.150716
H112  H     H_    0.857421 0.421164 0.845152 0.152881
H113  H     H_    0.847204 0.475439 0.803306 0.143654
H114  H     H_    0.854149 0.429193 0.751711 0.147602
H115  H     H_    0.757105 0.530092 0.803366 0.142698
H116  H     H_    0.746664 0.574540 0.853404 0.125414
H117  H     H_    0.831790 0.574499 0.779302 0.170559
H118  H     H_    0.819795 0.621959 0.823799 0.162952
H119  H     H_    0.876363 0.583594 0.960558 0.154853
H120  H     H_    0.932484 0.585706 0.926396 0.147289
H121  H     H_    0.887904 0.535372 0.916383 0.141713
H122  H     H_    0.643644 0.162626 0.206977 0.153399
H123  H     H_    0.240938 0.380169 0.319465 0.157592
H124  H     H_    0.238249 0.367620 0.229420 0.119029
H125  H     H_    0.266764 0.458860 0.313640 0.199013
H126  H     H_    0.265821 0.448040 0.222998 0.147310
H127  H     H_    0.141962 0.423840 0.143905 0.152065
H128  H     H_    0.153648 0.478852 0.183561 0.146212
H129  H     H_    0.142448 0.434237 0.234861 0.147887
H130  H     H_    0.020670 0.148181 0.306565 0.139705
H131  H     H_    0.013819 0.091326 0.319958 0.149936
H132  H     H_    0.099866 0.162179 0.456377 0.156440
H133  H     H_    0.654299 0.157211 0.305074 0.151946
H134  H     H_    0.091958 0.106802 0.480444 0.190192
H135  H     H_    0.144560 0.079327 0.409456 0.149721
H136  H     H_    0.200871 0.118552 0.489999 0.140405
H137  H     H_    0.150861 0.134917 0.382084 0.144932
H138  H     H_    0.039674 0.951908 0.804527 0.134642
H139  H     H_    0.009488 0.975594 0.709136 0.160871
H140  H     H_    0.166171 0.964230 0.854005 0.206917
H141  H     H_    0.132961 0.992967 0.758400 0.165586
H142  H     H_    0.071612 0.044785 0.792417 0.194893
H143  H     H_    0.164542 0.044541 0.870478 0.201694
H144  H     H_    0.618464 0.112266 0.231730 0.148057
H145  H     H_    0.108118 0.016925 0.890763 0.125787
H146  H     H_    0.953183 0.164234 0.567443 0.158246
H147  H     H_    0.990950 0.130439 0.530262 0.132407
H148  H     H_    0.063154 0.210742 0.647224 0.184238
H149  H     H_    0.096179 0.178973 0.600272 0.134251
H150  H     H_    0.994083 0.201197 0.458209 0.201510
H151  H     H_    0.043010 0.247780 0.522434 0.145647
H152  H     H_    0.961662 0.233479 0.505676 0.145679
H153  H     H_    0.973194 0.828279 0.414356 0.120443
H154  H     H_    0.038584 0.871450 0.463964 0.177064
H155  H     H_    0.243383 0.869796 0.658570 0.146944
H156  H     H_    0.028636 0.799097 0.348354 0.164747
H157  H     H_    0.093245 0.842060 0.396570 0.168708
H158  H     H_    0.134137 0.814563 0.537939 0.185405
H159  H     H_    0.138119 0.772524 0.476597 0.139793
H160  H     H_    0.068835 0.771639 0.489965 0.150343
H161  H     H_    0.534549 0.652395 0.332527 0.137577
H162  H     H_    0.525085 0.595476 0.338163 0.141485
H163  H     H_    0.590045 0.666616 0.476998 0.145908
H164  H     H_    0.568557 0.613855 0.495834 0.189926
H165  H     H_    0.645640 0.578065 0.464009 0.155256
H166  H     H_    0.253000 0.860854 0.754019 0.121482
H167  H     H_    0.692241 0.617708 0.547170 0.163373
H168  H     H_    0.667087 0.631334 0.443829 0.129852
H169  H     H_    0.535794 0.449562 0.802358 0.135092
H170  H     H_    0.505731 0.473824 0.707466 0.159480
H171  H     H_    0.662251 0.464199 0.854158 0.203346
H172  H     H_    0.629263 0.493400 0.759045 0.139752
H173  H     H_    0.565964 0.543987 0.791123 0.196565
H174  H     H_    0.658118 0.543645 0.872820 0.178613
H175  H     H_    0.599230 0.515108 0.887782 0.128862
H176  H     H_    0.446894 0.659140 0.577021 0.159241
O1    O     O_R   0.820280 0.231270 0.140580 -0.525643
O2    O     O_R   0.231230 0.820250 0.962470 -0.503893
O3    O     O_R   0.231230 0.179750 0.962470 -0.506614
O4    O     O_R   0.768770 0.820250 0.037530 -0.511437
O5    O     O_R   0.268770 0.679750 0.037530 -0.514565
O6    O     O_R   0.731230 0.320250 0.962470 -0.505071
O7    O     O_R   0.731230 0.679750 0.962470 -0.508032
O8    O     O_R   0.268770 0.320250 0.037530 -0.504856
O9    O     O_R   0.694370 0.275780 0.051550 -0.517074
O10   O     O_R   0.305630 0.724220 0.948450 -0.515780
O11   O     O_R   0.305630 0.275780 0.948450 -0.516436
O12   O     O_R   0.179720 0.768730 0.859420 -0.534997
O13   O     O_R   0.694370 0.724220 0.051550 -0.507347
O14   O     O_R   0.194370 0.775780 0.051550 -0.516080
O15   O     O_R   0.805630 0.224220 0.948450 -0.509868
O16   O     O_R   0.805630 0.775780 0.948450 -0.511776
O17   O     O_R   0.194370 0.224220 0.051550 -0.507837
O18   O     O_R   0.642860 0.224260 0.948500 -0.502489
O19   O     O_R   0.357140 0.775740 0.051500 -0.499356
O20   O     O_R   0.357140 0.224260 0.051500 -0.501360
O21   O     O_R   0.642860 0.775740 0.948500 -0.502893
O22   O     O_R   0.142860 0.724260 0.948500 -0.503051
O23   O     O_R   0.179720 0.231270 0.859420 -0.531465
O24   O     O_R   0.857140 0.275740 0.051500 -0.499696
O25   O     O_R   0.857140 0.724260 0.051500 -0.502960
O26   O     O_R   0.142860 0.275740 0.948500 -0.502423
O27   O     O_R   0.502640 0.455510 0.411000 -0.513659
O28   O     O_R   0.497360 0.544490 0.589000 -0.524532
O29   O     O_R   0.497360 0.455510 0.589000 -0.515231
O30   O     O_R   0.502640 0.544490 0.411000 -0.560283
O31   O     O_R   0.002640 0.955510 0.411000 -0.496443
O32   O     O_R   0.997360 0.044490 0.589000 -0.524095
O33   O     O_R   0.997360 0.955510 0.589000 -0.524705
O34   O     O_R   0.820280 0.768730 0.140580 -0.526633
O35   O     O_R   0.002640 0.044490 0.411000 -0.540857
O36   O     O_R   0.408410 0.455510 0.411000 -0.487365
O37   O     O_R   0.591590 0.544490 0.589000 -0.501401
O38   O     O_R   0.591590 0.455510 0.589000 -0.490698
O39   O     O_R   0.408410 0.544490 0.411000 -0.485491
O40   O     O_R   0.908410 0.955510 0.411000 -0.483932
O41   O     O_R   0.091590 0.044490 0.589000 -0.513464
O42   O     O_R   0.091590 0.955510 0.589000 -0.502283
O43   O     O_R   0.908410 0.044490 0.411000 -0.489165
O44   O     O_3   0.803458 0.079914 0.273163 -0.588801
O45   O     O_R   0.320280 0.731270 0.140580 -0.521050
O46   O     O_3   0.153763 0.879872 0.649513 -0.610376
O47   O     O_3   0.197947 0.072969 0.734654 -0.591487
O48   O     O_3   0.805512 0.905639 0.299521 -0.580998
O49   O     O_3   0.302493 0.573263 0.266725 -0.587440
O50   O     O_3   0.659417 0.382590 0.655642 -0.578754
O51   O     O_3   0.698993 0.579624 0.722403 -0.587732
O52   O     O_3   0.335994 0.384322 0.339641 -0.578959
O53   O     O_3   0.967552 0.135944 0.357268 -0.640430
O54   O     O_3   0.057046 0.913676 0.732633 -0.571989
O55   O     O_3   0.036027 0.129283 0.660079 -0.580148
O56   O     O_R   0.679720 0.268730 0.859420 -0.532895
O57   O     O_3   0.969197 0.875084 0.334451 -0.588605
O58   O     O_3   0.459967 0.637134 0.350414 -0.623102
O59   O     O_3   0.555521 0.412703 0.731175 -0.571255
O60   O     O_3   0.535238 0.626691 0.665555 -0.576890
O61   O     O_3   0.446528 0.411365 0.271408 -0.570858
O62   O     O_3   0.865494 0.117538 0.156935 -0.581994
O63   O     O_3   0.154548 0.885613 0.863492 -0.557488
O64   O     O_3   0.110385 0.126939 0.827770 -0.572444
O65   O     O_3   0.870287 0.882687 0.163169 -0.569376
O66   O     O_3   0.381918 0.623602 0.165906 -0.610369
O67   O     O_R   0.679720 0.731270 0.859420 -0.531076
O68   O     O_3   0.652521 0.385233 0.863431 -0.559834
O69   O     O_3   0.611034 0.627192 0.829110 -0.572531
O70   O     O_3   0.349121 0.385099 0.137193 -0.561745
O71   O     O_R   0.320280 0.268730 0.140580 -0.532196
O72   O     O_R   0.768770 0.179750 0.037530 -0.505859

loop_
_geom_bond_atom_site_label_1
_geom_bond_atom_site_label_2
_ccdc_geom_bond_type
C61   C70   T    
C36   O65   S    
C63   C65   S    
C126  C127  S    
C21   H7    S    
C19   C20   S    
Cu6   O26   S    
C74   C83   D    
C15   H167  S    
C72   O44   S    
C41   H62   S    
Cu12  O32   S    
C113  O41   A    
C139  H123  S    
C42   H64   S    
C2    C55   S    
C42   O68   S    
C117  H100  S    
C52   O16   A    
C9    H153  S    
C54   C63   T    
C33   H43   S    
C34   H45   S    
C143  C144  S    
C54   C134  S    
C138  H119  S    
C74   C92   S    
C76   C94   S    
C78   C96   S    
C26   O62   S    
C113  O32   A    
C79   C102  S    
C42   H65   S    
C44   H69   S    
C131  H106  S    
C25   H15   S    
C143  H132  S    
C122  H68   S    
C120  H2    S    
C13   O11   A    
C125  H90   S    
C134  O9    A    
Cu1   O9    S    
C121  H24   S    
C45   C47   S    
C92   H19   S    
Cu4   O37   S    
Cu10  O16   S    
C97   H25   S    
C35   O14   A    
C43   H66   S    
C140  C141  S    
C49   H81   S    
C85   C110  S    
C28   H31   S    
C118  H122  S    
C110  O39   A    
C77   O50   S    
C134  O18   A    
C64   C66   S    
C5    H142  S    
Cu7   O13   S    
C32   H41   S    
C3    O54   S    
Cu2   O42   S    
C119  H166  S    
C24   O13   A    
Cu5   O12   S    
C136  H116  S    
C36   H50   S    
C82   C114  S    
C132  H107  S    
C23   H11   S    
C26   H26   S    
C112  O67   A    
C2    O19   A    
C105  C112  S    
C73   O46   S    
Cu9   O72   S    
C37   H52   S    
C29   H33   S    
C51   H86   S    
C15   H165  S    
C112  O7    A    
Cu2   O35   S    
C75   C93   S    
C100  O64   S    
C46   C60   S    
Cu10  O4    S    
C3    H138  S    
C140  H126  S    
C4    C5    S    
C139  C140  S    
C133  H109  S    
C6    C7    S    
C10   H156  S    
Cu3   O28   S    
C115  O43   A    
C122  H57   S    
C118  H144  S    
C52   C61   S    
C130  C131  S    
C18   H174  S    
Cu6   O11   S    
C31   H39   S    
C90   O45   A    
C33   C34   S    
C44   H71   S    
C53   O17   A    
C131  H104  S    
C22   H10   S    
C10   H157  S    
C20   C21   S    
C80   C88   D    
C20   H4    S    
C133  C135  S    
Cu7   O34   S    
C22   C23   S    
C5    H145  S    
C76   C85   D    
Cu8   O14   S    
C78   C87   D    
C80   C97   S    
Cu3   Cu4   S    
C39   O66   S    
C132  O50   S    
C105  O69   S    
C7    C8    S    
C8    H151  S    
Cu7   O25   S    
C126  H93   S    
C36   C37   S    
C129  H101  S    
Cu1   O24   S    
C75   C84   D    
C30   H37   S    
C57   C99   S    
C103  O66   S    
C135  H113  S    
C27   H29   S    
C119  O46   S    
C79   O34   A    
C59   C67   T    
C16   H169  S    
C110  O30   A    
C34   H48   S    
C6    O55   S    
C128  H98   S    
C118  H133  S    
C51   H84   S    
C30   H36   S    
C9    C10   S    
C48   H77   S    
C142  H131  S    
C13   C56   S    
C68   O23   A    
Cu4   O27   S    
C12   H161  S    
C14   H163  S    
C141  H129  S    
C130  H102  S    
C2    O10   A    
C88   O61   S    
C17   H172  S    
Cu1   O6    S    
C39   C40   S    
C1    O72   A    
C16   O59   S    
C23   H12   S    
C43   H67   S    
C68   C100  S    
C141  H128  S    
C29   C30   S    
C28   H30   S    
C1    O1    A    
C40   H60   S    
C17   C18   S    
C38   H54   S    
Cu11  O20   S    
Cu6   Cu11  S    
C135  H112  S    
C122  C124  S    
C3    C4    S    
C120  C121  S    
Cu11  O71   S    
C129  C130  S    
C40   C41   S    
C21   H6    S    
C29   H34   S    
C136  C137  S    
C142  O53   S    
C1    C98   S    
C121  H35   S    
C41   H61   S    
C104  O68   S    
C46   O15   A    
C102  O65   S    
C107  O27   A    
C82   O54   S    
C89   C98   D    
C67   C70   S    
C3    H139  S    
C117  C118  S    
C76   O49   S    
C60   C69   T    
C78   O51   S    
Cu3   O29   S    
C39   H56   S    
C29   O63   S    
C84   O57   S    
C10   C11   S    
C7    H149  S    
C49   C50   S    
C14   C15   S    
C91   C99   D    
C19   O60   S    
C44   H70   S    
C131  H105  S    
C25   H14   S    
C96   C105  D    
C101  O6    A    
C83   C113  S    
C89   H17   S    
C53   O26   A    
C47   H74   S    
C144  H136  S    
Cu4   O38   S    
Cu5   O22   S    
C26   C27   S    
C114  O42   A    
C123  O71   A    
C49   H80   S    
C28   H32   S    
C30   C31   S    
Cu10  O21   S    
C11   H160  S    
C8    H150  S    
C137  H118  S    
C125  H88   S    
C35   C59   S    
C46   O24   A    
C32   H42   S    
C6    H146  S    
C129  H99   S    
C16   C17   S    
C72   C81   D    
C106  O70   S    
C57   O12   A    
C132  H108  S    
C26   H27   S    
C144  H135  S    
C21   H8    S    
C119  H155  S    
Cu3   O36   S    
C37   H51   S    
C51   H85   S    
Cu7   O7    S    
C15   H168  S    
C41   H63   S    
C139  O52   S    
Cu11  O3    S    
C84   C111  S    
C79   O4    A    
C101  O56   A    
C139  H124  S    
C86   C109  S    
C88   C107  S    
C9    H154  S    
C33   H44   S    
C122  O47   S    
C91   H18   S    
C94   H21   S    
C9    O57   S    
C18   H175  S    
C107  O36   A    
C143  H134  S    
C144  H137  S    
C50   C51   S    
Cu9   O18   S    
C128  H96   S    
C124  H87   S    
C115  O35   A    
C117  H111  S    
C98   O62   S    
C45   O69   S    
C97   C106  D    
C25   H16   S    
C126  O48   S    
C94   C103  D    
C101  C104  S    
C125  H91   S    
C4    H141  S    
C127  C128  S    
C73   C82   D    
Cu8   O19   S    
Cu8   O45   S    
C136  O51   S    
C93   C102  D    
C119  C120  S    
C11   H158  S    
C8    H152  S    
Cu3   O39   S    
C85   O58   S    
C127  H94   S    
C19   H3    S    
C32   C33   S    
C68   O3    A    
Cu1   O1    S    
C74   O47   S    
C5    H143  S    
Cu2   O41   S    
C114  O33   A    
Cu8   O2    S    
Cu5   O5    S    
C136  H115  S    
C36   H49   S    
C96   H23   S    
C120  H13   S    
C90   C103  S    
C75   O48   S    
C16   H170  S    
C24   C58   S    
C142  C143  S    
Cu6   O23   S    
C48   H78   S    
Cu12  O43   S    
C108  O37   A    
C111  O31   A    
C83   O55   S    
Cu12  O33   S    
C12   H162  S    
C81   O53   S    
C140  H125  S    
C43   C44   S    
C14   H164  S    
C130  H103  S    
C133  H110  S    
C37   C38   S    
C109  O38   A    
C121  H46   S    
C17   H171  S    
C18   H173  S    
C31   H40   S    
C47   H75   S    
C56   C65   T    
C116  C117  S    
Cu7   Cu10  S    
C69   C71   S    
C27   H28   S    
C141  H127  S    
C95   H22   S    
C22   H9    S    
C57   O2    A    
C58   C66   T    
C87   C108  S    
C132  C133  S    
C109  O29   A    
C106  C123  S    
C62   C71   T    
C38   H55   S    
Cu1   Cu9   S    
C7    H148  S    
C124  H79   S    
C45   H73   S    
C87   O60   S    
C129  O49   S    
C49   O70   S    
C52   O25   A    
C126  H92   S    
Cu10  O67   S    
C86   O59   S    
C50   H82   S    
C73   C91   S    
C108  O28   A    
Cu5   Cu8   S    
Cu2   O31   S    
Cu12  O40   S    
C77   C95   S    
C135  H114  S    
C138  H120  S    
C45   H72   S    
C90   O5    A    
C53   C62   S    
C47   C48   S    
C34   H47   S    
C55   C64   T    
C81   C115  S    
C128  H97   S    
C22   O61   S    
C142  H130  S    
C19   H176  S    
C12   C14   S    
C77   C86   D    
Cu4   O30   S    
C138  H121  S    
Cu9   O15   S    
C95   C104  D    
C92   C100  D    
C39   H58   S    
Cu9   O56   S    
C4    H140  S    
Cu6   O8    S    
C31   H38   S    
C32   O64   S    
C111  O40   A    
C35   O22   A    
C137  C138  S    
C93   H20   S    
C50   H83   S    
C116  H1    S    
C12   O58   S    
C123  O8    A    
C72   C89   S    
C99   O63   S    
C11   H159  S    
C20   H5    S    
C40   H59   S    
C137  H117  S    
C127  H95   S    
C23   C25   S    
C38   H53   S    
Cu11  O17   S    
C6    H147  S    
C13   O20   A    
C24   O21   A    
C48   H76   S    
Cu2   Cu12  S    
C116  H89   S    
C42   C43   S    
C27   C28   S    
Cu5   O10   S    
C80   O52   S    
C116  O44   S    
C124  C125  S    
