data_mof_unit_63199.cif
_audit_creation_date              2012-12-11T16:49:38-0500
_audit_creation_method            fapswitch 2.2
_symmetry_space_group_name_H-M    P1
_symmetry_Int_Tables_number       1
_space_group_crystal_system       triclinic
_cell_length_a                    22.14706
_cell_length_b                    24.235574
_cell_length_c                    8.621307
_cell_angle_alpha                 90.122627
_cell_angle_beta                  95.03022
_cell_angle_gamma                 89.951567
_cell_volume                      4609.62438141

loop_
_atom_site_label
_atom_site_type_symbol
_atom_type_description
_atom_site_fract_x
_atom_site_fract_y
_atom_site_fract_z
_atom_type_partial_charge
Ba1   Ba    Ba6+2 0.999960 0.460860 0.844880 1.684763
Ba2   Ba    Ba6+2 0.999960 0.539140 0.344880 1.662505
Ba3   Ba    Ba6+2 0.499960 0.960860 0.844880 1.684768
Ba4   Ba    Ba6+2 0.499960 0.039140 0.344880 1.662573
C1    C     C_3   0.045791 0.201880 0.639026 -0.133353
C2    C     C_R   0.822835 0.664240 0.605806 -0.163528
C3    C     C_3   0.687449 0.746067 0.208617 -0.345078
C4    C     C_3   0.890008 0.201400 0.948617 -0.291010
C5    C     C_3   0.888222 0.799074 0.443539 -0.286730
C6    C     C_3   0.390056 0.701370 0.948758 -0.291040
C7    C     C_3   0.388257 0.299113 0.443472 -0.286637
C8    C     C_R   0.322411 0.835942 0.108369 -0.151868
C9    C     C_R   0.322858 0.164270 0.605759 -0.163477
C10   C     C_R   0.807867 0.292002 0.206965 0.232700
C11   C     C_R   0.808397 0.708523 0.703817 0.234098
C12   C     C_R   0.307868 0.792000 0.206946 0.232698
C13   C     C_R   0.308439 0.208570 0.703747 0.234079
C14   C     C_R   0.838641 0.288507 0.356355 -0.153261
C15   C     C_R   0.839190 0.712326 0.853482 -0.154774
C16   C     C_R   0.338634 0.788510 0.356347 -0.153331
C17   C     C_3   0.045219 0.798762 0.150957 -0.127887
C18   C     C_R   0.339220 0.212359 0.853430 -0.154779
C19   C     C_R   0.885162 0.325686 0.403825 0.032959
C20   C     C_R   0.886140 0.675466 0.900853 0.030132
C21   C     C_R   0.385154 0.825691 0.403825 0.033086
C22   C     C_R   0.386149 0.175480 0.900830 0.030157
C23   C     C_R   0.187183 0.662219 0.075771 0.294267
C24   C     C_R   0.188241 0.338447 0.572514 0.296778
C25   C     C_R   0.687182 0.162220 0.075784 0.294239
C26   C     C_R   0.688233 0.838423 0.572593 0.297215
C27   C     C_R   0.135611 0.627923 0.035229 0.021740
C28   C     C_3   0.545723 0.701837 0.638858 -0.133524
C29   C     C_R   0.138446 0.374339 0.528596 0.010414
C30   C     C_R   0.635610 0.127924 0.035241 0.021655
C31   C     C_R   0.638491 0.874367 0.528555 0.010206
C32   C     C_R   0.199981 0.707503 0.978338 0.249112
C33   C     C_R   0.202072 0.294005 0.472615 0.251434
C34   C     C_R   0.699965 0.207515 0.978376 0.249096
C35   C     C_R   0.702023 0.793955 0.472720 0.251324
C36   C     C_R   0.098457 0.640169 0.899656 -0.286355
C37   C     C_R   0.105049 0.366181 0.384894 -0.276457
C38   C     C_R   0.598443 0.140183 0.899701 -0.286388
C39   C     C_3   0.545206 0.298776 0.150952 -0.127895
C40   C     C_R   0.605130 0.866245 0.384781 -0.276883
C41   C     C_R   0.116858 0.677573 0.789450 0.027402
C42   C     C_R   0.121912 0.326653 0.278583 0.026356
C43   C     C_R   0.616839 0.177590 0.789496 0.027256
C44   C     C_R   0.621944 0.826674 0.278549 0.025975
C45   C     C_3   0.982266 0.258774 0.035299 0.377186
C46   C     C_3   0.980387 0.741987 0.534509 0.379808
C47   C     C_3   0.482299 0.758773 0.035365 0.377029
C48   C     C_3   0.480398 0.242002 0.534505 0.379765
C49   C     C_R   0.166667 0.712980 0.830612 -0.095232
C50   C     C_R   0.868754 0.373712 0.156766 0.029880
C51   C     C_R   0.170331 0.289909 0.322231 -0.094838
C52   C     C_R   0.666634 0.213001 0.830663 -0.095182
C53   C     C_R   0.670310 0.789885 0.322285 -0.094741
C54   C     C_3   0.953908 0.199735 0.033343 0.336104
C55   C     C_3   0.952004 0.801208 0.528930 0.338041
C56   C     C_3   0.453954 0.699729 0.033501 0.336104
C57   C     C_3   0.452030 0.301231 0.528920 0.337978
C58   C     C_3   0.180702 0.466478 0.176614 0.654444
C59   C     C_3   0.173289 0.536430 0.679231 0.658910
C60   C     C_3   0.680720 0.966490 0.176936 0.654602
C61   C     C_R   0.869544 0.626904 0.654255 0.047172
C62   C     C_3   0.673241 0.036457 0.679296 0.659074
C63   C     C_3   0.238008 0.431406 0.159142 -0.238034
C64   C     C_3   0.231052 0.570194 0.719726 -0.186256
C65   C     C_3   0.737942 0.931340 0.158986 -0.237511
C66   C     C_3   0.730982 0.070216 0.720150 -0.186533
C67   C     C_3   0.808878 0.537005 0.035822 0.665166
C68   C     C_3   0.801635 0.467170 0.532896 0.646833
C69   C     C_3   0.308881 0.037008 0.035821 0.665157
C70   C     C_3   0.301632 0.967173 0.532894 0.646832
C71   C     C_3   0.764248 0.562114 0.144338 0.256435
C72   C     C_R   0.368753 0.873712 0.156760 0.029856
C73   C     C_3   0.745533 0.448057 0.615439 0.296897
C74   C     C_3   0.264247 0.062117 0.144327 0.256439
C75   C     C_3   0.245529 0.948061 0.615433 0.296908
C76   C     C_3   0.016390 0.256815 0.587539 0.687053
C77   C     C_3   0.015241 0.745213 0.089153 0.689321
C78   C     C_3   0.516373 0.756815 0.587573 0.686927
C79   C     C_3   0.515235 0.245223 0.089150 0.689309
C80   C     C_R   0.901846 0.366357 0.301034 -0.280611
C81   C     C_R   0.903324 0.635163 0.797087 -0.271732
C82   C     C_R   0.401841 0.866359 0.301034 -0.280550
C83   C     C_R   0.369548 0.126914 0.654239 0.047169
C84   C     C_R   0.403324 0.135168 0.797077 -0.271733
C85   C     C_3   0.271306 0.447566 0.018584 -0.379815
C86   C     C_3   0.277484 0.562605 0.600486 -0.438009
C87   C     C_3   0.771369 0.947731 0.018847 -0.380027
C88   C     C_3   0.777492 0.062710 0.601077 -0.438195
C89   C     C_3   0.786623 0.554596 0.872523 -0.293860
C90   C     C_3   0.789770 0.449230 0.365543 -0.410433
C91   C     C_3   0.286633 0.054600 0.872518 -0.293888
C92   C     C_3   0.289768 0.949234 0.365539 -0.410441
C93   C     C_3   0.108911 0.194313 0.585185 -0.471718
C94   C     C_R   0.822407 0.335945 0.108387 -0.151878
C95   C     C_3   0.106257 0.809871 0.088551 -0.463099
C96   C     C_3   0.608850 0.694263 0.585073 -0.471670
C97   C     C_3   0.606226 0.309912 0.088475 -0.463076
C98   C     C_3   0.949408 0.178309 0.200208 -0.321647
C99   C     C_3   0.947042 0.824144 0.694293 -0.326410
C100  C     C_3   0.449452 0.678335 0.200398 -0.321688
C101  C     C_3   0.447052 0.324163 0.694280 -0.326359
C102  C     C_3   0.183630 0.756793 0.717284 -0.335007
C103  C     C_3   0.187491 0.246110 0.208537 -0.345113
C104  C     C_3   0.683598 0.256822 0.717348 -0.334948
H1    H     H_    0.045341 0.290468 0.642256 -0.005725
H2    H     H_    0.219087 0.614569 0.724278 0.060622
H3    H     H_    0.607946 0.697563 0.456541 0.171810
H4    H     H_    0.639503 0.725694 0.642285 0.149610
H5    H     H_    0.623142 0.351040 0.129147 0.149138
H6    H     H_    0.639118 0.278536 0.135408 0.145147
H7    H     H_    0.602531 0.309487 0.959273 0.173334
H8    H     H_    0.921331 0.206305 0.266336 0.117093
H9    H     H_    0.928415 0.136651 0.197318 0.123910
H10   H     H_    0.995232 0.174577 0.262585 0.154462
H11   H     H_    0.918901 0.796766 0.761666 0.119634
H12   H     H_    0.992748 0.828618 0.756811 0.156803
H13   H     H_    0.724527 0.887239 0.147377 0.075544
H14   H     H_    0.925852 0.865752 0.688607 0.123152
H15   H     H_    0.421368 0.706340 0.266476 0.117087
H16   H     H_    0.428466 0.636674 0.197568 0.123941
H17   H     H_    0.495275 0.674620 0.262787 0.154392
H18   H     H_    0.418897 0.296787 0.761622 0.119658
H19   H     H_    0.492752 0.328630 0.756833 0.156765
H20   H     H_    0.425869 0.365774 0.688589 0.123252
H21   H     H_    0.212356 0.622612 0.268400 0.317501
H22   H     H_    0.208017 0.372503 0.776067 0.321464
H23   H     H_    0.712420 0.122538 0.268260 0.317445
H24   H     H_    0.719007 0.114585 0.724831 0.060593
H25   H     H_    0.708526 0.873208 0.775073 0.321157
H26   H     H_    0.222099 0.783025 0.763286 0.118387
H27   H     H_    0.197217 0.737109 0.609437 0.141756
H28   H     H_    0.144496 0.784622 0.688253 0.136685
H29   H     H_    0.226380 0.220267 0.253906 0.123693
H30   H     H_    0.148633 0.217978 0.179795 0.137985
H31   H     H_    0.200632 0.265869 0.100542 0.138743
H32   H     H_    0.722063 0.283057 0.763355 0.118361
H33   H     H_    0.697186 0.237146 0.609491 0.141781
H34   H     H_    0.644459 0.284646 0.688333 0.136663
H35   H     H_    0.762839 0.607975 0.131822 -0.010478
H36   H     H_    0.726324 0.720210 0.254006 0.123659
H37   H     H_    0.648578 0.717951 0.179883 0.137991
H38   H     H_    0.700605 0.765812 0.100615 0.138933
H39   H     H_    0.892141 0.209157 0.822576 0.158273
H40   H     H_    0.866078 0.161537 0.960514 0.131677
H41   H     H_    0.863199 0.234774 0.996059 0.079849
H42   H     H_    0.890543 0.791902 0.317276 0.160887
H43   H     H_    0.862020 0.765080 0.489225 0.080301
H44   H     H_    0.863508 0.838513 0.456699 0.127654
H45   H     H_    0.392193 0.709111 0.822709 0.158234
H46   H     H_    0.711495 0.481828 0.612072 0.054942
H47   H     H_    0.366137 0.661503 0.960693 0.131737
H48   H     H_    0.363234 0.734744 0.996156 0.079847
H49   H     H_    0.390596 0.291987 0.317195 0.160878
H50   H     H_    0.362056 0.265094 0.489034 0.080342
H51   H     H_    0.363532 0.338540 0.456716 0.127781
H52   H     H_    0.027452 0.155907 0.013903 0.322067
H53   H     H_    0.025426 0.844948 0.508708 0.321248
H54   H     H_    0.527511 0.655912 0.014142 0.322089
H55   H     H_    0.525470 0.344953 0.508777 0.321260
H56   H     H_    0.199064 0.483265 0.392079 0.290135
H57   H     H_    0.262838 0.107978 0.131809 -0.010472
H58   H     H_    0.093784 0.543491 0.752907 0.287337
H59   H     H_    0.699454 0.983403 0.392218 0.290201
H60   H     H_    0.593665 0.043580 0.752538 0.287376
H61   H     H_    0.211490 0.981831 0.612056 0.054938
H62   H     H_    0.780026 0.554664 0.266552 0.115200
H63   H     H_    0.721550 0.412559 0.554270 -0.041147
H64   H     H_    0.280022 0.054668 0.266545 0.115202
H65   H     H_    0.044794 0.710372 0.133388 -0.014651
H66   H     H_    0.221549 0.912560 0.554268 -0.041156
H67   H     H_    0.050677 0.200800 0.767583 0.143183
H68   H     H_    0.053641 0.795406 0.278821 0.142746
H69   H     H_    0.550582 0.700687 0.767408 0.143300
H70   H     H_    0.553653 0.295411 0.278809 0.142780
H71   H     H_    0.826503 0.256549 0.435570 0.097977
H72   H     H_    0.826758 0.744252 0.932859 0.096568
H73   H     H_    0.326495 0.756553 0.435562 0.097971
H74   H     H_    0.326797 0.244291 0.932798 0.096461
H75   H     H_    0.796274 0.342110 0.998008 0.105999
H76   H     H_    0.545338 0.790428 0.642458 -0.005442
H77   H     H_    0.796456 0.657406 0.495684 0.103174
H78   H     H_    0.296282 0.842105 0.997983 0.106005
H79   H     H_    0.296483 0.157443 0.495629 0.103183
H80   H     H_    0.937530 0.395115 0.338649 0.052364
H81   H     H_    0.940098 0.607340 0.832839 0.050568
H82   H     H_    0.437524 0.895119 0.338653 0.052340
H83   H     H_    0.440086 0.107337 0.832846 0.050552
H84   H     H_    0.057792 0.616195 0.871632 0.059986
H85   H     H_    0.067702 0.393638 0.350380 0.088660
H86   H     H_    0.557772 0.116216 0.871697 0.060102
H87   H     H_    0.544797 0.210385 0.133363 -0.014648
H88   H     H_    0.567825 0.893741 0.350194 0.088545
H89   H     H_    0.016401 0.167063 0.594878 0.138934
H90   H     H_    0.014435 0.834232 0.121811 0.150891
H91   H     H_    0.516313 0.667057 0.594528 0.138786
H92   H     H_    0.514406 0.334239 0.121865 0.150912
H93   H     H_    0.969609 0.279685 0.923092 0.065513
H94   H     H_    0.965965 0.719274 0.426063 0.070581
H95   H     H_    0.469619 0.779667 0.923144 0.065418
H96   H     H_    0.465958 0.219283 0.426082 0.070586
H97   H     H_    0.963360 0.283542 0.128355 -0.043283
H98   H     H_    0.270421 0.435400 0.264634 0.105149
H99   H     H_    0.962828 0.718686 0.631765 -0.059114
H100  H     H_    0.463404 0.783549 0.128421 -0.043007
H101  H     H_    0.462845 0.218710 0.631784 -0.059111
H102  H     H_    0.143034 0.449046 0.098084 0.076185
H103  H     H_    0.150780 0.552491 0.568618 0.042972
H104  H     H_    0.642919 0.949035 0.098871 0.075553
H105  H     H_    0.650819 0.052536 0.568608 0.043282
H106  H     H_    0.239169 0.450133 0.913707 0.166985
H107  H     H_    0.293810 0.488195 0.038826 0.145705
H108  H     H_    0.306472 0.416232 0.999028 0.135692
H109  H     H_    0.252023 0.558115 0.836557 0.125473
H110  H     H_    0.316603 0.590514 0.629583 0.144697
H111  H     H_    0.294332 0.519417 0.601770 0.151193
H112  H     H_    0.257008 0.572709 0.482008 0.126842
H113  H     H_    0.739276 0.950669 0.913973 0.166595
H114  H     H_    0.794053 0.988238 0.039964 0.145675
H115  H     H_    0.806400 0.916331 0.998733 0.135562
H116  H     H_    0.816614 0.090585 0.630519 0.144752
H117  H     H_    0.794318 0.019517 0.602147 0.151030
H118  H     H_    0.757094 0.072922 0.482599 0.126877
H119  H     H_    0.740464 0.538728 0.837553 0.142546
H120  H     H_    0.770332 0.935021 0.264619 0.104841
H121  H     H_    0.786113 0.600093 0.861051 0.006923
H122  H     H_    0.818368 0.535764 0.799216 0.115713
H123  H     H_    0.745927 0.465492 0.312629 0.149235
H124  H     H_    0.827534 0.466257 0.307980 0.091459
H125  H     H_    0.788248 0.403668 0.356934 0.054949
H126  H     H_    0.240474 0.038735 0.837537 0.142527
H127  H     H_    0.286128 0.100098 0.861045 0.006903
H128  H     H_    0.318379 0.035764 0.799221 0.115729
H129  H     H_    0.245926 0.965497 0.312625 0.149235
H130  H     H_    0.327532 0.966262 0.307979 0.091464
H131  H     H_    0.751890 0.058085 0.837000 0.125494
H132  H     H_    0.288245 0.903672 0.356926 0.054933
H133  H     H_    0.892413 0.551990 0.992323 0.275124
H134  H     H_    0.886122 0.443225 0.527399 0.281816
H135  H     H_    0.392418 0.051992 0.992340 0.275130
H136  H     H_    0.386118 0.943227 0.527401 0.281800
H137  H     H_    0.680851 0.566250 0.053007 0.297217
H138  H     H_    0.771040 0.393677 0.770857 0.317528
H139  H     H_    0.180857 0.066242 0.052934 0.297205
H140  H     H_    0.271034 0.893685 0.770866 0.317531
H141  H     H_    0.010653 0.299404 0.396569 0.243323
H142  H     H_    0.224719 0.387256 0.148352 0.075420
H143  H     H_    0.005456 0.708267 0.889223 0.243986
H144  H     H_    0.510729 0.799503 0.396776 0.243361
H145  H     H_    0.505449 0.208283 0.889214 0.243981
H146  H     H_    0.126614 0.152933 0.620729 0.137478
H147  H     H_    0.107984 0.197559 0.456637 0.171854
H148  H     H_    0.139551 0.225782 0.642252 0.149366
H149  H     H_    0.123185 0.850996 0.129228 0.149127
H150  H     H_    0.139127 0.778485 0.135529 0.145142
H151  H     H_    0.102583 0.809441 0.959349 0.173345
H152  H     H_    0.626519 0.652860 0.620491 0.137482
N1    N     N_2   0.761176 0.252386 0.164792 -0.165594
N2    N     N_2   0.762052 0.748377 0.660604 -0.165442
N3    N     N_2   0.261181 0.752382 0.164761 -0.165622
N4    N     N_2   0.262109 0.248439 0.660514 -0.165824
N5    N     N_2   0.247103 0.747098 0.021664 -0.234860
N6    N     N_2   0.248027 0.253331 0.517284 -0.236854
N7    N     N_2   0.747089 0.247109 0.021697 -0.234880
N8    N     N_2   0.747959 0.753263 0.517380 -0.236920
O1    O     O_2   0.882020 0.421650 0.880110 -0.379122
O2    O     O_3   0.044159 0.744375 0.550236 -0.619528
O3    O     O_3   0.545919 0.756135 0.058367 -0.618467
O4    O     O_3   0.544170 0.244376 0.550175 -0.619511
O5    O     O_3   0.068720 0.527400 0.059520 -0.459796
O6    O     O_3   0.068720 0.472600 0.559520 -0.478737
O7    O     O_3   0.568720 0.027400 0.059520 -0.459745
O8    O     O_3   0.568720 0.972600 0.559520 -0.478663
O9    O     O_3   0.931280 0.472530 0.130180 -0.477553
O10   O     O_3   0.931280 0.527470 0.630180 -0.482592
O11   O     O_3   0.431280 0.972530 0.130180 -0.477600
O12   O     O_2   0.882020 0.578350 0.380110 -0.422366
O13   O     O_3   0.431280 0.027470 0.630180 -0.482605
O14   O     O_3   0.979610 0.373300 0.637850 -0.491065
O15   O     O_3   0.979610 0.626700 0.137850 -0.471138
O16   O     O_3   0.479610 0.873300 0.637850 -0.491087
O17   O     O_3   0.479610 0.126700 0.137850 -0.471130
O18   O     O_2   0.878490 0.328860 0.727357 -0.481152
O19   O     O_2   0.877563 0.670452 0.222868 -0.477280
O20   O     O_2   0.378480 0.828869 0.727362 -0.481121
O21   O     O_2   0.377557 0.170450 0.222840 -0.477263
O22   O     O_3   0.806990 0.478287 0.041365 -0.580819
O23   O     O_2   0.382020 0.921650 0.880110 -0.379118
O24   O     O_3   0.804581 0.525707 0.536788 -0.680780
O25   O     O_3   0.306991 0.978289 0.041361 -0.580811
O26   O     O_3   0.304579 0.025710 0.536790 -0.680772
O27   O     O_3   0.957755 0.258010 0.639676 -0.628578
O28   O     O_3   0.957400 0.742113 0.145335 -0.629557
O29   O     O_3   0.457731 0.758012 0.639665 -0.628625
O30   O     O_3   0.457400 0.242112 0.145363 -0.629584
O31   O     O_2   0.117830 0.421200 0.809460 -0.466387
O32   O     O_2   0.117830 0.578800 0.309460 -0.479335
O33   O     O_2   0.617830 0.921200 0.809460 -0.465714
O34   O     O_2   0.382020 0.078350 0.380110 -0.422368
O35   O     O_2   0.617830 0.078800 0.309460 -0.479271
O36   O     O_3   0.020150 0.373220 0.051650 -0.499162
O37   O     O_3   0.020150 0.626780 0.551650 -0.499069
O38   O     O_3   0.520150 0.873220 0.051650 -0.499336
O39   O     O_3   0.520150 0.126780 0.551650 -0.499129
O40   O     O_2   0.119050 0.327968 0.952003 -0.488966
O41   O     O_2   0.120851 0.671141 0.466113 -0.482031
O42   O     O_2   0.619069 0.827990 0.951962 -0.487862
O43   O     O_2   0.620869 0.171126 0.466187 -0.481928
O44   O     O_3   0.866595 0.558785 0.078495 -0.712159
O45   O     O_3   0.188723 0.480975 0.662784 -0.640081
O46   O     O_3   0.854369 0.442039 0.601360 -0.665389
O47   O     O_3   0.366597 0.058786 0.078508 -0.712144
O48   O     O_3   0.354365 0.942041 0.601361 -0.665405
O49   O     O_3   0.706090 0.539119 0.115775 -0.737802
O50   O     O_3   0.760801 0.433544 0.770650 -0.681109
O51   O     O_3   0.206090 0.039121 0.115757 -0.737796
O52   O     O_3   0.260796 0.933552 0.770649 -0.681107
O53   O     O_3   0.012980 0.259875 0.424650 -0.780533
O54   O     O_3   0.009752 0.746777 0.926225 -0.781180
O55   O     O_3   0.512991 0.759957 0.424697 -0.780595
O56   O     O_3   0.191047 0.521768 0.141318 -0.635718
O57   O     O_3   0.509732 0.246792 0.926223 -0.781199
O58   O     O_3   0.227922 0.651548 0.202972 -0.707605
O59   O     O_3   0.226654 0.347131 0.705333 -0.712035
O60   O     O_3   0.727929 0.151545 0.202969 -0.707609
O61   O     O_3   0.726593 0.847005 0.705593 -0.711785
O62   O     O_3   0.988122 0.162300 0.951955 -0.720640
O63   O     O_3   0.986343 0.837933 0.446199 -0.721199
O64   O     O_3   0.488178 0.662280 0.952187 -0.720629
O65   O     O_3   0.486390 0.337953 0.446239 -0.721215
O66   O     O_3   0.166213 0.463439 0.329504 -0.789393
O67   O     O_3   0.688698 0.981007 0.662815 -0.640624
O68   O     O_3   0.136154 0.541709 0.800317 -0.764994
O69   O     O_3   0.666494 0.963565 0.330066 -0.789423
O70   O     O_3   0.635999 0.041706 0.800173 -0.764820
O71   O     O_3   0.691035 0.021752 0.141242 -0.635841
O72   O     O_3   0.045883 0.256123 0.058372 -0.618444
P1    P     P_3+3 0.876190 0.439990 0.052900 1.051171
P2    P     P_3+3 0.075212 0.678476 0.590809 0.934128
P3    P     P_3+3 0.576962 0.822714 0.085284 0.941932
P4    P     P_3+3 0.575210 0.178477 0.590831 0.934073
P5    P     P_3+3 0.924209 0.677736 0.100731 0.967614
P6    P     P_3+3 0.924011 0.322578 0.601973 0.956028
P7    P     P_3+3 0.424210 0.177738 0.100723 0.967623
P8    P     P_3+3 0.424000 0.822586 0.601977 0.956126
P9    P     P_3+3 0.876190 0.560010 0.552900 0.991528
P10   P     P_3+3 0.376190 0.939990 0.052900 1.051156
P11   P     P_3+3 0.376190 0.060010 0.552900 0.991512
P12   P     P_3+3 0.123690 0.439530 0.636710 1.040534
P13   P     P_3+3 0.123690 0.560470 0.136710 1.065886
P14   P     P_3+3 0.623690 0.939530 0.636710 1.040620
P15   P     P_3+3 0.623690 0.060470 0.136710 1.065765
P16   P     P_3+3 0.076938 0.322697 0.085309 0.941758

loop_
_geom_bond_atom_site_label_1
_geom_bond_atom_site_label_2
_ccdc_geom_bond_type
C97   H5    S    
C92   H129  S    
O67   P14   S    
C30   C38   A    
Ba2   O9    S    
C104  H34   S    
H23   O60   S    
C7    H51   S    
Ba3   O8    S    
C100  H15   S    
C46   C55   S    
C69   O47   S    
C70   O48   S    
O33   P14   D    
O21   P7    D    
O42   P3    D    
H133  O44   S    
C81   H81   S    
H135  O47   S    
C94   H75   S    
C37   H85   S    
C32   C49   A    
C49   C102  S    
C58   O66   S    
O34   P11   D    
C46   O2    S    
C42   C51   A    
C64   C86   S    
C57   C101  S    
C20   C81   A    
O27   P6    S    
C3    H38   S    
C68   C90   S    
H145  O57   S    
C71   O49   S    
C46   H94   S    
C60   O69   S    
C40   H88   S    
C19   C80   A    
C23   C27   A    
C88   H116  S    
Ba4   P15   S    
Ba2   O32   S    
C95   H150  S    
C5    C55   S    
Ba4   O35   S    
C6    C56   S    
C70   C92   S    
Ba2   O6    S    
C36   H84   S    
C12   C16   A    
C20   P5    S    
C74   H64   S    
C64   H2    S    
C71   H35   S    
C93   H148  S    
C24   C29   A    
C70   C75   S    
C97   H7    S    
O10   P9    S    
C4    H39   S    
C69   C91   S    
C7    H49   S    
O3    P3    S    
N3    N5    D    
C5    H43   S    
C74   H57   S    
H143  O54   S    
C67   C89   S    
Ba4   O17   S    
O11   P10   S    
C48   C57   S    
C103  H30   S    
C48   O4    S    
C62   H105  S    
C73   O50   S    
O25   P10   S    
C15   C20   A    
C33   N6    S    
C79   H87   S    
C79   O30   S    
O29   P8    S    
C96   H3    S    
O4    P4    S    
C60   H104  S    
C3    C53   S    
C40   C44   A    
C85   H106  S    
C84   H83   S    
C60   O71   S    
C9    H79   S    
Ba2   O37   S    
C58   C63   S    
Ba4   P11   S    
C39   C79   S    
H21   O58   S    
C19   P6    S    
C90   H124  S    
C44   C53   A    
C62   C66   S    
C23   O58   S    
C28   H91   S    
H25   O61   S    
C17   C95   S    
Ba1   O1    S    
C78   H76   S    
O30   P7    S    
O43   P4    D    
O56   P13   S    
C52   C104  S    
Ba2   P9    S    
C25   C34   A    
O41   P2    D    
C86   H112  S    
C102  H28   S    
C41   C49   A    
Ba1   P1    S    
C76   O53   S    
Ba1   P12   S    
C10   C94   A    
Ba3   P10   S    
C27   P13   S    
H52   O62   S    
O36   P16   S    
C45   H93   S    
C82   H82   S    
C101  H19   S    
C8    C12   A    
C1    H89   S    
H53   O63   S    
C74   O51   S    
C28   C96   S    
C59   O68   S    
C59   O45   S    
C77   H65   S    
C76   H1    S    
C34   N7    S    
O32   P13   D    
C89   H119  S    
C95   H151  S    
C9    C83   A    
C66   H24   S    
C58   H102  S    
O16   P8    S    
Ba4   O34   S    
C60   C65   S    
C87   H114  S    
Ba1   O6    S    
C98   H9    S    
C85   H108  S    
N4    N6    D    
Ba3   O16   S    
C67   O22   S    
H139  O51   S    
H140  O52   S    
C91   H128  S    
Ba3   Ba4   S    
C65   H120  S    
H60   O70   S    
O17   P7    S    
C59   C64   S    
C72   P10   S    
Ba4   O7    S    
C92   H130  S    
H55   O65   S    
C59   H103  S    
C7    C57   S    
C50   C94   A    
C6    H47   S    
Ba3   O7    S    
C100  H16   S    
C28   C78   S    
C9    C13   A    
C25   O60   S    
C55   C99   S    
C13   N4    S    
C64   H109  S    
C68   O24   S    
C18   H74   S    
C68   O46   S    
O20   P8    D    
C24   C33   A    
C26   C35   A    
C1    C93   S    
C75   O52   S    
C103  H31   S    
C86   H110  S    
C33   C51   A    
C102  H26   S    
C34   C52   A    
O1    P1    D    
C26   O61   S    
C47   C56   S    
C56   C100  S    
C67   O44   S    
C56   O64   S    
C16   H73   S    
C3    H37   S    
C89   H122  S    
C83   C84   A    
C79   O57   S    
C92   H132  S    
C32   N5    S    
C99   H12   S    
C75   H66   S    
C50   C80   A    
C30   P15   S    
C39   H70   S    
C11   C15   A    
C77   O28   S    
C47   O3    S    
C24   O59   S    
C16   C21   A    
C95   H149  S    
O35   P15   D    
C27   C36   A    
C42   P16   S    
C4    C54   S    
C12   N3    S    
C2    C61   A    
C100  H17   S    
H54   O64   S    
O26   P11   S    
C50   P1    S    
Ba1   O36   S    
C39   H92   S    
C54   C98   S    
C91   H126  S    
O28   P5    S    
C93   H147  S    
C43   P4    S    
C88   H118  S    
C97   H6    S    
C1    H67   S    
Ba3   P14   S    
C78   O55   S    
C4    H40   S    
C6    H45   S    
H141  O53   S    
C104  H33   S    
C47   H95   S    
C36   C41   A    
C5    H42   S    
C78   O29   S    
O72   P16   S    
O2    P2    S    
O7    P15   S    
C35   N8    S    
C77   O54   S    
C25   C30   A    
C48   H96   S    
C103  H29   S    
C76   O27   S    
C70   O26   S    
C8    H78   S    
C71   H62   S    
O31   P12   D    
C61   C81   A    
C62   O67   S    
H136  O48   S    
C63   H98   S    
H137  O49   S    
C26   C31   A    
C45   H97   S    
C96   H4    S    
C8    C72   A    
C48   H101  S    
C28   H69   S    
C80   H80   S    
C87   H115  S    
C72   C82   A    
O37   P2    S    
Ba1   O31   S    
C66   C88   S    
C57   O65   S    
C90   H125  S    
C23   C32   A    
O14   P6    S    
C13   C18   A    
H134  O46   S    
C29   C37   A    
C75   H61   S    
C4    H41   S    
Ba1   O10   S    
Ba2   O5    S    
Ba2   O12   S    
Ba3   O38   S    
C63   H142  S    
O8    P14   S    
C22   C84   A    
C18   C22   A    
Ba4   O11   S    
C99   H14   S    
C15   H72   S    
C7    H50   S    
C96   H152  S    
C5    H44   S    
C55   O63   S    
C62   O70   S    
C10   C14   A    
Ba3   O23   S    
C17   H90   S    
O18   P6    D    
C44   P3    S    
H56   O66   S    
C2    H77   S    
H58   O68   S    
C101  H18   S    
N1    N7    D    
N2    N8    D    
Ba1   O14   S    
C35   C53   A    
C29   P12   S    
C63   C85   S    
C54   O62   S    
C69   O25   S    
Ba1   Ba2   S    
C38   H86   S    
C21   P8    S    
C2    C11   A    
O24   P9    S    
O19   P5    D    
O45   P12   S    
C37   C42   A    
C87   H113  S    
Ba1   O5    S    
C98   H10   S    
C73   H63   S    
C85   H107  S    
C46   H99   S    
C41   P2    S    
O71   P15   S    
C91   H127  S    
H144  O55   S    
C3    H36   S    
C90   H123  S    
O9    P1    S    
C14   C19   A    
Ba4   O8    S    
C6    H48   S    
C104  H32   S    
C47   H100  S    
O40   P16   D    
C45   C54   S    
C51   C103  S    
O22   P1    S    
C39   C97   S    
C68   C73   S    
C10   N1    S    
C73   H46   S    
C65   H13   S    
O6    P12   S    
C69   C74   S    
C17   H68   S    
C1    C76   S    
C31   C40   A    
C86   H111  S    
O38   P3    S    
C45   O72   S    
C102  H27   S    
C17   C77   S    
C14   H71   S    
C66   H131  S    
H59   O69   S    
O23   P10   D    
C89   H121  S    
C101  H20   S    
C99   H11   S    
Ba2   P13   S    
C83   P11   S    
O39   P4    S    
C88   H117  S    
O13   P11   S    
Ba2   O15   S    
C58   O56   S    
C31   P14   S    
C61   P9    S    
C11   N2    S    
C65   C87   S    
O12   P9    D    
C67   C71   S    
H138  O50   S    
C21   C82   A    
O15   P5    S    
C38   C43   A    
C98   H8    S    
Ba4   O39   S    
H22   O59   S    
Ba3   O13   S    
C43   C52   A    
C22   P7    S    
O5    P13   S    
Ba3   O33   S    
C93   H146  S    
