data_mof_unit_47169.cif
_audit_creation_date              2012-12-10T19:44:40-0500
_audit_creation_method            fapswitch 2.2
_symmetry_space_group_name_H-M    P1
_symmetry_Int_Tables_number       1
_space_group_crystal_system       triclinic
_cell_length_a                    8.70142
_cell_length_b                    14.933446
_cell_length_c                    14.224334
_cell_angle_alpha                 88.080412
_cell_angle_beta                  98.415263
_cell_angle_gamma                 91.393803
_cell_volume                      1827.06195733

loop_
_atom_site_label
_atom_site_type_symbol
_atom_type_description
_atom_site_fract_x
_atom_site_fract_y
_atom_site_fract_z
_atom_type_partial_charge
C1    C     C_R   0.499226 0.328382 0.501293 0.854221
C2    C     C_R   0.499079 0.418427 0.898211 0.324825
C3    C     C_R   0.488807 0.498183 0.052473 -0.104403
C4    C     C_R   0.486728 0.498551 0.945697 -0.118170
C5    C     C_R   0.202172 0.505524 0.474777 0.842519
C6    C     C_R   0.798440 0.504978 0.524030 0.871030
C7    C     C_2   0.037900 0.515270 0.458528 0.166711
C8    C     C_2   0.962327 0.521809 0.535032 0.161785
C9    C     C_R   0.624193 0.094975 0.542226 -0.180547
C10   C     C_R   0.412122 0.908587 0.424169 -0.165118
C11   C     C_R   0.627677 0.187414 0.541925 -0.191108
C12   C     C_R   0.499068 0.672249 0.498947 0.807540
C13   C     C_R   0.416355 0.816255 0.421789 -0.240979
C14   C     C_R   0.494598 0.233454 0.503937 0.000012
C15   C     C_R   0.496142 0.768283 0.498912 -0.020911
C16   C     C_R   0.356924 0.188934 0.468113 -0.207894
C17   C     C_R   0.566305 0.812000 0.580109 -0.194684
C18   C     C_R   0.352127 0.096388 0.470273 -0.164862
C19   C     C_R   0.559307 0.903863 0.583446 -0.186299
C20   C     C_R   0.486336 0.049279 0.506384 0.104326
C21   C     C_R   0.484363 0.952499 0.504942 0.115390
C22   C     C_3   0.007280 0.563305 0.295499 0.178074
C23   C     C_R   0.389511 0.441222 0.100371 0.377630
C24   C     C_3   0.035245 0.661766 0.324085 -0.362791
C25   C     C_3   0.066125 0.720965 0.239031 -0.976388
C26   C     C_3   0.006059 0.629760 0.648391 0.091134
C27   C     C_3   0.131822 0.695340 0.621736 -0.332264
C28   C     C_3   0.096599 0.791661 0.642498 -0.976217
C29   C     C_3   0.159245 0.420767 0.001744 0.113170
C30   C     C_3   0.061310 0.350540 0.942218 -0.335294
C31   C     C_3   0.963197 0.392297 0.854431 -0.975079
C32   C     C_3   0.291302 0.667042 0.935283 0.057511
C33   C     C_3   0.250090 0.765748 0.937197 -0.330776
C34   C     C_R   0.476297 0.579434 0.889968 0.390974
C35   C     C_3   0.078675 0.776499 0.945559 -0.962587
C36   C     C_3   0.578504 0.708012 0.251541 0.109223
C37   C     C_3   0.601844 0.770201 0.166721 -0.348515
C38   C     C_3   0.529743 0.861305 0.174895 -1.004184
C39   C     C_3   0.326918 0.311847 0.735149 0.161106
C40   C     C_3   0.317819 0.209815 0.729718 -0.332359
C41   C     C_3   0.151507 0.176746 0.698124 -0.985810
C42   C     C_3   0.817430 0.559247 0.041774 -0.320547
C43   C     C_3   0.650233 0.306530 0.969275 -0.258468
C44   C     C_R   0.403687 0.440877 0.200474 -0.247958
C45   C     C_R   0.491445 0.578466 0.792637 -0.251346
C46   C     C_R   0.583589 0.562277 0.206717 0.475145
C47   C     C_R   0.494982 0.420385 0.798383 0.442994
C48   C     C_R   0.592517 0.556052 0.108827 0.338954
H1    H     H_    0.729405 0.059346 0.568867 0.136698
H2    H     H_    0.489953 0.641258 0.752706 0.189450
H3    H     H_    0.914097 0.561920 0.234092 0.201986
H4    H     H_    0.107685 0.536678 0.266308 0.134990
H5    H     H_    0.932533 0.686494 0.352707 0.249278
H6    H     H_    0.138064 0.667602 0.379771 0.181357
H7    H     H_    0.173034 0.699692 0.212626 0.243704
H8    H     H_    0.081536 0.791835 0.260349 0.265159
H9    H     H_    0.967565 0.716185 0.180446 0.287200
H10   H     H_    0.006684 0.630877 0.726492 0.154034
H11   H     H_    0.888999 0.653019 0.615222 0.119150
H12   H     H_    0.354447 0.945578 0.362744 0.137171
H13   H     H_    0.245506 0.676954 0.662810 0.242801
H14   H     H_    0.140048 0.691235 0.544943 0.196201
H15   H     H_    0.986046 0.812685 0.598979 0.264815
H16   H     H_    0.191914 0.836933 0.624491 0.281026
H17   H     H_    0.086977 0.797899 0.718940 0.266545
H18   H     H_    0.193452 0.475349 0.953619 0.118175
H19   H     H_    0.088224 0.449773 0.051616 0.088075
H20   H     H_    0.138329 0.300338 0.918586 0.256114
H21   H     H_    0.985114 0.313755 0.987069 0.193035
H22   H     H_    0.876157 0.437495 0.875674 0.251869
H23   H     H_    0.734025 0.222992 0.569393 0.136996
H24   H     H_    0.901231 0.338610 0.810843 0.272528
H25   H     H_    0.037890 0.430813 0.809813 0.282394
H26   H     H_    0.266232 0.632813 0.002196 0.119759
H27   H     H_    0.215509 0.636826 0.873647 0.124126
H28   H     H_    0.321733 0.797794 0.998452 0.234141
H29   H     H_    0.275926 0.800603 0.870873 0.227949
H30   H     H_    0.003946 0.744743 0.885167 0.261944
H31   H     H_    0.051715 0.848839 0.944565 0.270869
H32   H     H_    0.052253 0.745254 0.013428 0.270002
H33   H     H_    0.620643 0.745336 0.316706 0.185282
H34   H     H_    0.356840 0.782572 0.360461 0.150843
H35   H     H_    0.452043 0.693350 0.250560 0.114837
H36   H     H_    0.727481 0.780246 0.163189 0.255755
H37   H     H_    0.544890 0.740410 0.099991 0.273103
H38   H     H_    0.403526 0.853120 0.178796 0.265213
H39   H     H_    0.544705 0.904246 0.111500 0.277795
H40   H     H_    0.587427 0.895211 0.239404 0.278835
H41   H     H_    0.271220 0.342502 0.666720 0.172476
H42   H     H_    0.258646 0.331241 0.791207 0.126896
H43   H     H_    0.392999 0.187374 0.678815 0.245833
H44   H     H_    0.361122 0.179580 0.800851 0.234972
H45   H     H_    0.253796 0.225796 0.439647 0.132916
H46   H     H_    0.074385 0.197300 0.748962 0.267988
H47   H     H_    0.148780 0.102479 0.695605 0.272336
H48   H     H_    0.107474 0.204543 0.626044 0.263051
H49   H     H_    0.835831 0.494012 0.081838 0.121355
H50   H     H_    0.928462 0.597951 0.054381 0.163598
H51   H     H_    0.792509 0.547875 0.964519 0.178371
H52   H     H_    0.726600 0.356668 0.010471 0.138814
H53   H     H_    0.697492 0.288861 0.904031 0.185031
H54   H     H_    0.649075 0.244755 0.014679 0.187397
H55   H     H_    0.626639 0.775130 0.640866 0.146818
H56   H     H_    0.244413 0.061724 0.443948 0.133585
H57   H     H_    0.612775 0.936902 0.647039 0.135028
H58   H     H_    0.333333 0.394382 0.236742 0.197434
N1    N     N_R   0.500000 0.499980 0.252470 -0.170436
N2    N     N_R   0.500000 0.500020 0.747530 -0.164056
O1    O     O_R   0.500010 0.369070 0.579480 -0.573625
O2    O     O_3   0.038642 0.541151 0.625309 -0.643874
O3    O     O_3   0.290061 0.378396 0.053203 -0.569206
O4    O     O_3   0.451344 0.660530 0.928757 -0.596842
O5    O     O_3   0.667544 0.629257 0.257026 -0.614415
O6    O     O_3   0.484937 0.339961 0.752991 -0.610878
O7    O     O_3   0.698986 0.610908 0.069690 -0.564623
O8    O     O_3   0.497129 0.336742 0.946777 -0.540889
O9    O     O_R   0.499990 0.630930 0.420520 -0.621856
O10   O     O_R   0.500010 0.369060 0.420520 -0.610501
O11   O     O_R   0.499990 0.630940 0.579480 -0.643200
O12   O     O_R   0.271750 0.500000 0.560890 -0.584497
O13   O     O_R   0.728250 0.500000 0.439110 -0.538235
O14   O     O_R   0.271750 0.499990 0.401930 -0.636958
O15   O     O_R   0.728250 0.500010 0.598070 -0.601577
O16   O     O_3   0.957591 0.504490 0.366594 -0.632130
Zn1   Zn    Zn3+2 0.500000 0.500010 0.606140 0.968278
Zn2   Zn    Zn3+2 0.500000 0.499990 0.393860 0.975695

loop_
_geom_bond_atom_site_label_1
_geom_bond_atom_site_label_2
_ccdc_geom_bond_type
C47   O6    S    
C34   O4    S    
C35   H32   S    
C3    C23   A    
C25   H8    S    
C7    O16   S    
C32   H27   S    
C7    C8    D    
C16   H45   S    
C29   C30   S    
C38   H38   S    
C37   H37   S    
C36   C37   S    
C19   C21   A    
C42   H50   S    
C32   H26   S    
C30   C31   S    
C11   C14   A    
C11   H23   S    
O15   Zn1   S    
C41   H48   S    
C36   H35   S    
C24   H6    S    
C3    C48   A    
C33   H28   S    
C1    O1    A    
C29   H19   S    
C2    O8    S    
C31   H22   S    
C37   H36   S    
N2    Zn1   S    
C27   H13   S    
O9    Zn2   S    
C26   O2    S    
C39   H42   S    
C18   C20   A    
C45   N2    A    
C25   H9    S    
C6    O15   A    
C36   O5    S    
C46   C48   A    
C10   C21   A    
C4    C34   A    
C5    O12   A    
C9    H1    S    
C43   H52   S    
C42   H49   S    
C39   C40   S    
C5    C7    S    
O12   Zn1   S    
C17   C19   A    
C6    C8    S    
C24   H5    S    
C5    O14   A    
C40   H44   S    
C23   C44   A    
C12   O9    A    
C38   H40   S    
O14   Zn2   S    
C2    C4    A    
C43   H53   S    
C37   C38   S    
C27   H14   S    
C8    O2    S    
C43   O8    S    
C12   O11   A    
C26   H10   S    
C9    C20   A    
C41   H46   S    
C12   C15   S    
C36   H33   S    
C39   O6    S    
C46   N1    A    
C26   C27   S    
C34   C45   A    
C18   H56   S    
C24   C25   S    
C9    C11   A    
C48   O7    S    
C19   H57   S    
O1    Zn1   S    
C40   C41   S    
C13   C15   A    
C14   C16   A    
C3    C4    S    
O11   Zn1   S    
C30   H21   S    
C28   H16   S    
C22   H4    S    
C26   H11   S    
C44   N1    A    
C15   C17   A    
C10   H12   S    
C31   H24   S    
C32   O4    S    
C46   O5    S    
C29   O3    S    
C25   H7    S    
N1    Zn2   S    
C10   C13   A    
C22   O16   S    
C44   H58   S    
C2    C47   A    
C23   O3    S    
C35   H30   S    
C38   H39   S    
C32   C33   S    
C28   H17   S    
C17   H55   S    
C43   H54   S    
O13   Zn2   S    
C42   H51   S    
C33   H29   S    
C41   H47   S    
C45   H2    S    
C13   H34   S    
C35   H31   S    
C33   C35   S    
C22   C24   S    
C1    O10   A    
C40   H43   S    
C31   H25   S    
C29   H18   S    
C28   H15   S    
C42   O7    S    
C20   C21   S    
C16   C18   A    
C47   N2    A    
C27   C28   S    
C1    C14   S    
O10   Zn2   S    
C6    O13   A    
C39   H41   S    
C30   H20   S    
C22   H3    S    
