data_mof_unit_64399.cif
_audit_creation_date              2012-10-26T17:46:01-0400
_audit_creation_method            fapswitch 2.2
_symmetry_space_group_name_H-M    P1
_symmetry_Int_Tables_number       1
_space_group_crystal_system       triclinic
_cell_length_a                    35.660948
_cell_length_b                    35.673742
_cell_length_c                    23.675731
_cell_angle_alpha                 90.02667
_cell_angle_beta                  90.003877
_cell_angle_gamma                 89.953102
_cell_volume                      30119.291706

loop_
_atom_site_label
_atom_site_type_symbol
_atom_type_description
_atom_site_fract_x
_atom_site_fract_y
_atom_site_fract_z
_atom_type_partial_charge
C1    C     C_R   0.999995 0.427644 0.500007 0.598875
C2    C     C_1   0.267107 0.000868 0.501060 -0.000672
C3    C     C_R   0.826633 0.986470 0.453592 0.229106
C4    C     C_R   0.983241 0.826473 0.544901 0.249600
C5    C     C_R   0.173436 0.982668 0.545408 0.248609
C6    C     C_R   0.017639 0.173310 0.545284 0.249027
C7    C     C_R   0.826570 0.017407 0.545351 0.248701
C8    C     C_R   0.485514 0.673177 0.953498 0.229258
C9    C     C_R   0.673364 0.513459 0.953564 0.229253
C10   C     C_R   0.514466 0.326809 0.953382 0.229247
C11   C     C_R   0.326631 0.486544 0.953543 0.229148
C12   C     C_R   0.483229 0.326474 0.044891 0.249508
C13   C     C_1   0.001696 0.732960 0.500017 0.000134
C14   C     C_R   0.673438 0.482649 0.045376 0.248592
C15   C     C_R   0.516754 0.673539 0.045011 0.249593
C16   C     C_R   0.326567 0.517369 0.045386 0.248670
C17   C     C_R   0.985187 0.133927 0.454472 0.210714
C18   C     C_R   0.133968 0.014696 0.454334 0.210750
C19   C     C_R   0.015453 0.866200 0.454311 0.210553
C20   C     C_R   0.866034 0.985212 0.454369 0.210842
C21   C     C_R   0.982108 0.865904 0.544553 0.229521
C22   C     C_R   0.133991 0.981784 0.544907 0.229561
C23   C     C_R   0.018466 0.133883 0.544785 0.229530
C24   C     C_1   0.732896 0.999125 0.501052 -0.000878
C25   C     C_R   0.866015 0.018295 0.544847 0.229749
C26   C     C_R   0.484519 0.633787 0.954404 0.210549
C27   C     C_R   0.633963 0.514725 0.954348 0.210764
C28   C     C_R   0.515461 0.366200 0.954316 0.210625
C29   C     C_R   0.366032 0.485276 0.954325 0.210819
C30   C     C_R   0.482092 0.365905 0.044538 0.229453
C31   C     C_R   0.633993 0.481770 0.044885 0.229590
C32   C     C_R   0.517891 0.634107 0.044630 0.229512
C33   C     C_R   0.366012 0.518246 0.044896 0.229654
C34   C     C_R   0.001539 0.113835 0.499752 -0.085739
C35   C     C_1   0.498296 0.767040 0.000158 0.000124
C36   C     C_R   0.113890 0.998497 0.499736 -0.086031
C37   C     C_R   0.998883 0.886131 0.499609 -0.085780
C38   C     C_R   0.886112 0.001496 0.499726 -0.085753
C39   C     C_R   0.501103 0.613868 0.999678 -0.085771
C40   C     C_R   0.613889 0.498504 0.999735 -0.085908
C41   C     C_R   0.498881 0.386132 0.999606 -0.085763
C42   C     C_R   0.386111 0.501503 0.999729 -0.085883
C43   C     C_R   0.001180 0.192864 0.500066 -0.051910
C44   C     C_R   0.192974 0.998965 0.500064 -0.051185
C45   C     C_R   0.999879 0.807077 0.499640 -0.050952
C46   C     C_1   0.767105 0.500869 0.001030 -0.001094
C47   C     C_R   0.807029 0.001023 0.500052 -0.051263
C48   C     C_R   0.500104 0.692922 0.999771 -0.050945
C49   C     C_R   0.692973 0.498966 0.000043 -0.051235
C50   C     C_R   0.499880 0.307078 0.999641 -0.050968
C51   C     C_R   0.307027 0.501045 0.000038 -0.051170
C52   C     C_1   0.999795 0.233220 0.500803 0.060747
C53   C     C_1   0.233358 0.000386 0.500788 0.061782
C54   C     C_1   0.001344 0.766702 0.500054 0.062715
C55   C     C_1   0.766645 0.999605 0.500778 0.061681
C56   C     C_1   0.498645 0.733298 0.000202 0.062710
C57   C     C_1   0.501698 0.232960 0.000020 -0.000014
C58   C     C_1   0.733357 0.500387 0.000761 0.061567
C59   C     C_1   0.501346 0.266702 0.000057 0.062567
C60   C     C_1   0.266643 0.499624 0.000758 0.061887
C61   C     C_3   0.997945 0.197410 0.366967 -0.094018
C62   C     C_3   0.197558 0.001685 0.366951 -0.095826
C63   C     C_3   0.003258 0.802763 0.366507 -0.096746
C64   C     C_3   0.802433 0.998042 0.366946 -0.096088
C65   C     C_3   0.934136 0.794361 0.583090 -0.097605
C66   C     C_3   0.205422 0.933675 0.584289 -0.098304
C67   C     C_3   0.066839 0.205182 0.583729 -0.097995
C68   C     C_1   0.232894 0.499140 0.001032 -0.000532
C69   C     C_3   0.794590 0.066473 0.584095 -0.099131
C70   C     C_3   0.496688 0.697197 0.866642 -0.096810
C71   C     C_3   0.697542 0.501766 0.866930 -0.097118
C72   C     C_3   0.503286 0.302759 0.866511 -0.097099
C73   C     C_3   0.302443 0.498225 0.866923 -0.095933
C74   C     C_3   0.434115 0.294362 0.083054 -0.097492
C75   C     C_3   0.705426 0.433635 0.084192 -0.098864
C76   C     C_3   0.565871 0.705660 0.083205 -0.097601
C77   C     C_3   0.294585 0.566391 0.084253 -0.098265
C78   C     C_3   0.930388 0.110859 0.420512 -0.071239
C79   C     C_R   0.970380 0.326777 0.474709 -0.111042
C80   C     C_3   0.110774 0.069326 0.419932 -0.071451
C81   C     C_3   0.070091 0.889749 0.420553 -0.070664
C82   C     C_3   0.889260 0.930525 0.420156 -0.071791
C83   C     C_3   0.929352 0.896248 0.574703 -0.083603
C84   C     C_3   0.103480 0.929332 0.575536 -0.082801
C85   C     C_3   0.071009 0.103216 0.574943 -0.082980
C86   C     C_3   0.896556 0.070797 0.575275 -0.083398
C87   C     C_3   0.429876 0.610222 0.920644 -0.070748
C88   C     C_3   0.610749 0.569379 0.920070 -0.071938
C89   C     C_3   0.570101 0.389751 0.920566 -0.071236
C90   C     C_R   0.326987 0.028861 0.472499 -0.104475
C91   C     C_3   0.389239 0.430616 0.919988 -0.071690
C92   C     C_3   0.429323 0.396254 0.074620 -0.083537
C93   C     C_3   0.603478 0.429314 0.075491 -0.083141
C94   C     C_3   0.570660 0.603770 0.074707 -0.083692
C95   C     C_3   0.396536 0.570704 0.075552 -0.082875
C96   C     C_3   0.907529 0.380622 0.475480 -0.095470
C97   C     C_3   0.388995 0.045245 0.385421 -0.098127
C98   C     C_3   0.047342 0.610101 0.386539 -0.105342
C99   C     C_3   0.610992 0.954684 0.385417 -0.098245
C100  C     C_3   0.908547 0.620569 0.528713 -0.100966
C101  C     C_R   0.029465 0.672794 0.471984 -0.103092
C102  C     C_3   0.389172 0.954835 0.615033 -0.101189
C103  C     C_3   0.092086 0.379750 0.524516 -0.097512
C104  C     C_3   0.610841 0.045234 0.615028 -0.101539
C105  C     C_3   0.452643 0.889802 0.886588 -0.104690
C106  C     C_3   0.889001 0.545312 0.885465 -0.098911
C107  C     C_3   0.547320 0.110087 0.886529 -0.104880
C108  C     C_3   0.110989 0.454686 0.885414 -0.098275
C109  C     C_3   0.408550 0.120573 0.028735 -0.099858
C110  C     C_3   0.889158 0.454765 0.114953 -0.098418
C111  C     C_3   0.591457 0.879453 0.028730 -0.099996
C112  C     C_R   0.427713 0.000030 0.500024 0.569022
C113  C     C_R   0.673010 0.971118 0.472492 -0.104569
C114  C     C_3   0.110841 0.545233 0.115027 -0.101110
C115  C     C_R   0.972251 0.673535 0.526802 -0.114393
C116  C     C_R   0.326883 0.972471 0.529251 -0.109423
C117  C     C_R   0.028597 0.326639 0.526980 -0.114252
C118  C     C_R   0.673123 0.027543 0.529244 -0.109672
C119  C     C_R   0.470524 0.827179 0.972082 -0.103051
C120  C     C_R   0.826988 0.528878 0.972510 -0.104845
C121  C     C_R   0.529463 0.172794 0.971977 -0.103218
C122  C     C_R   0.173010 0.471126 0.972480 -0.104247
C123  C     C_R   0.472255 0.173535 0.026810 -0.114269
C124  C     C_R   0.999988 0.572323 0.499959 0.586058
C125  C     C_R   0.826878 0.472453 0.029183 -0.109810
C126  C     C_R   0.527748 0.826491 0.026887 -0.114278
C127  C     C_R   0.173121 0.527551 0.029234 -0.109301
C128  C     C_R   0.969802 0.366153 0.475267 0.220848
C129  C     C_R   0.366268 0.028439 0.471013 0.224138
C130  C     C_R   0.028902 0.633531 0.470963 0.223417
C131  C     C_R   0.633729 0.971542 0.471009 0.224124
C132  C     C_R   0.970924 0.634163 0.525890 0.226133
C133  C     C_R   0.366183 0.972256 0.529854 0.226468
C134  C     C_R   0.029705 0.365995 0.525514 0.222941
C135  C     C_R   0.572287 0.999970 0.500023 0.569006
C136  C     C_R   0.633823 0.027761 0.529849 0.226368
C137  C     C_R   0.471090 0.866442 0.971022 0.223418
C138  C     C_R   0.866269 0.528456 0.971031 0.224218
C139  C     C_R   0.528899 0.133530 0.970954 0.223401
C140  C     C_R   0.133729 0.471546 0.971003 0.224414
C141  C     C_R   0.470927 0.134163 0.025896 0.225719
C142  C     C_R   0.866178 0.472237 0.029793 0.225835
C143  C     C_R   0.529079 0.865861 0.025936 0.225775
C144  C     C_R   0.133821 0.527764 0.029845 0.226523
C145  C     C_R   0.999884 0.386079 0.500181 0.032984
C146  C     C_R   0.500012 0.927677 0.999963 0.585673
C147  C     C_R   0.386261 0.000187 0.500214 0.022148
C148  C     C_R   0.000010 0.613828 0.499189 0.027900
C149  C     C_R   0.613740 0.999813 0.500210 0.022167
C150  C     C_R   0.499990 0.886172 0.999222 0.027601
C151  C     C_R   0.886259 0.500186 0.000198 0.021942
C152  C     C_R   0.500010 0.113827 0.999187 0.027622
C153  C     C_R   0.113739 0.499814 0.000208 0.022303
C154  C     C_R   0.999340 0.307189 0.501103 -0.058702
C155  C     C_R   0.307374 0.000838 0.501121 -0.063600
C156  C     C_R   0.001235 0.692704 0.499707 -0.061386
C157  C     C_R   0.927713 0.500030 0.000019 0.568655
C158  C     C_R   0.692628 0.999158 0.501114 -0.063638
C159  C     C_R   0.498757 0.807295 0.999819 -0.061339
C160  C     C_R   0.807372 0.500838 0.001090 -0.063843
C161  C     C_R   0.501237 0.192704 0.999708 -0.061347
C162  C     C_R   0.192627 0.499168 0.001098 -0.063510
C163  C     C_R   0.927692 0.000507 0.499971 0.543196
C164  C     C_R   0.000514 0.072292 0.499983 0.543195
C165  C     C_R   0.072309 0.999484 0.499974 0.542734
C166  C     C_R   0.999584 0.927698 0.499951 0.543155
C167  C     C_R   0.427691 0.500511 0.999972 0.543079
C168  C     C_R   0.499988 0.072323 0.999958 0.585690
C169  C     C_R   0.500412 0.572302 0.999973 0.543214
C170  C     C_R   0.572309 0.499490 0.999975 0.543095
C171  C     C_R   0.499584 0.427698 0.999950 0.543210
C172  C     C_R   0.000001 0.499996 0.608217 0.560888
C173  C     C_R   0.500000 0.000007 0.608209 0.529022
C174  C     C_R   0.000001 0.500056 0.391785 0.542869
C175  C     C_R   0.500000 0.999993 0.391794 0.529729
C176  C     C_R   0.500001 0.999998 0.108217 0.562899
C177  C     C_R   0.000004 0.500010 0.108207 0.529053
C178  C     C_R   0.499999 0.000002 0.891786 0.526938
C179  C     C_R   0.072286 0.499970 0.000023 0.568925
C180  C     C_R   1.000000 0.499992 0.891794 0.529413
C181  C     C_1   0.000002 0.499987 0.669043 0.000122
C182  C     C_1   0.499998 0.000021 0.669028 -0.031279
C183  C     C_1   0.000009 0.500106 0.330962 -0.018144
C184  C     C_1   0.500001 0.999978 0.330980 -0.025374
C185  C     C_1   0.500003 0.999990 0.169044 0.002918
C186  C     C_1   0.000012 0.500044 0.169024 -0.029144
C187  C     C_1   0.499997 0.000010 0.830967 -0.033501
C188  C     C_1   0.000000 0.499978 0.830980 -0.026054
C189  C     C_1   0.000002 0.499980 0.720093 -0.029616
C190  C     C_1   0.999324 0.266947 0.501070 -0.000680
C191  C     C_1   0.499997 0.000023 0.720075 -0.048939
C192  C     C_1   0.000016 0.500115 0.279914 -0.041009
C193  C     C_1   0.500003 0.999977 0.279936 -0.037718
C194  C     C_1   0.500003 0.999982 0.220093 -0.027378
C195  C     C_1   0.000017 0.500084 0.220070 -0.044688
C196  C     C_1   0.499997 0.000018 0.779919 -0.050054
C197  C     C_1   0.000001 0.499975 0.779935 -0.038999
C198  C     C_R   0.986501 0.173302 0.453681 0.228435
C199  C     C_R   0.173369 0.013431 0.453562 0.229108
C200  C     C_R   0.014456 0.826809 0.453375 0.229241
Cu1   Cu    Cu3+1 0.037270 0.500000 0.500000 1.002629
Cu2   Cu    Cu3+1 0.000000 0.000000 0.444220 1.035613
Cu3   Cu    Cu3+1 0.500000 0.500000 0.055780 1.039343
Cu4   Cu    Cu3+1 0.500000 0.500000 0.944220 1.035024
Cu5   Cu    Cu3+1 0.500000 0.962730 0.500000 1.011590
Cu6   Cu    Cu3+1 0.962730 0.500000 0.500000 0.972172
Cu7   Cu    Cu3+1 0.500000 0.037270 0.500000 1.011056
Cu8   Cu    Cu3+1 0.537270 0.000000 0.000000 0.995281
Cu9   Cu    Cu3+1 0.000000 0.462730 0.000000 1.013829
Cu10  Cu    Cu3+1 0.462730 0.000000 0.000000 0.995668
Cu11  Cu    Cu3+1 0.000000 0.537270 0.000000 1.011385
Cu12  Cu    Cu3+1 0.000000 0.000000 0.555780 1.039687
H1    H     H_    0.948279 0.311471 0.453403 0.139179
H2    H     H_    0.811867 0.550902 0.950678 0.147757
H3    H     H_    0.403676 0.417639 0.883371 0.143558
H4    H     H_    0.414658 0.377014 0.044796 0.052202
H5    H     H_    0.430451 0.424690 0.055950 0.138563
H6    H     H_    0.411988 0.398068 0.113419 0.155646
H7    H     H_    0.622758 0.414407 0.045968 0.053231
H8    H     H_    0.575077 0.430429 0.056640 0.138674
H9    H     H_    0.601546 0.412227 0.114505 0.156130
H10   H     H_    0.585321 0.622994 0.044884 0.052080
H11   H     H_    0.569537 0.575323 0.056035 0.138590
H12   H     H_    0.587997 0.601982 0.113507 0.155373
H13   H     H_    0.551950 0.187664 0.950882 0.148170
H14   H     H_    0.377251 0.585610 0.046052 0.053359
H15   H     H_    0.424932 0.569581 0.056691 0.138587
H16   H     H_    0.398480 0.587797 0.114584 0.156550
H17   H     H_    0.910040 0.387958 0.521081 0.120543
H18   H     H_    0.896648 0.351626 0.470496 0.108180
H19   H     H_    0.886559 0.399900 0.456647 0.144021
H20   H     H_    0.361227 0.041926 0.364530 0.109953
H21   H     H_    0.405555 0.018866 0.381865 0.110257
H22   H     H_    0.404548 0.067391 0.362383 0.154538
H23   H     H_    0.044430 0.637694 0.365032 0.107284
H24   H     H_    0.188130 0.449104 0.950616 0.148042
H25   H     H_    0.021025 0.593564 0.382145 0.102514
H26   H     H_    0.069921 0.594333 0.364729 0.150376
H27   H     H_    0.638758 0.957989 0.364525 0.109783
H28   H     H_    0.594433 0.981061 0.381862 0.110191
H29   H     H_    0.595435 0.932525 0.362379 0.154534
H30   H     H_    0.909946 0.612976 0.483099 0.113876
H31   H     H_    0.898262 0.649787 0.533892 0.100605
H32   H     H_    0.887686 0.601766 0.548788 0.145182
H33   H     H_    0.361530 0.958212 0.636285 0.111099
H34   H     H_    0.405866 0.981096 0.618693 0.110995
H35   H     H_    0.450857 0.189165 0.049245 0.127138
H36   H     H_    0.404748 0.932481 0.637637 0.148101
H37   H     H_    0.089487 0.386977 0.478897 0.119538
H38   H     H_    0.102607 0.350610 0.529571 0.101482
H39   H     H_    0.113379 0.398778 0.543051 0.145816
H40   H     H_    0.638484 0.041862 0.636281 0.110924
H41   H     H_    0.594141 0.018978 0.618684 0.111161
H42   H     H_    0.595272 0.067604 0.637634 0.147802
H43   H     H_    0.455567 0.862192 0.865095 0.107023
H44   H     H_    0.478952 0.906347 0.882190 0.104374
H45   H     H_    0.430056 0.905542 0.864766 0.150726
H46   H     H_    0.811654 0.450579 0.051147 0.134399
H47   H     H_    0.861234 0.542006 0.864565 0.108713
H48   H     H_    0.905560 0.518935 0.881875 0.109492
H49   H     H_    0.904556 0.567471 0.862458 0.154434
H50   H     H_    0.544392 0.137675 0.865013 0.106817
H51   H     H_    0.521007 0.093540 0.882159 0.104502
H52   H     H_    0.569898 0.094322 0.864711 0.150515
H53   H     H_    0.138754 0.457992 0.864519 0.109954
H54   H     H_    0.094429 0.481062 0.881860 0.110255
H55   H     H_    0.095433 0.432525 0.862378 0.154220
H56   H     H_    0.409943 0.112983 0.983120 0.114249
H57   H     H_    0.549153 0.810881 0.049325 0.127094
H58   H     H_    0.398267 0.149790 0.033921 0.100767
H59   H     H_    0.387690 0.101770 0.048813 0.147042
H60   H     H_    0.861514 0.458134 0.136203 0.111568
H61   H     H_    0.905855 0.481023 0.118650 0.110959
H62   H     H_    0.904729 0.432397 0.137530 0.152973
H63   H     H_    0.590049 0.887002 0.983111 0.114191
H64   H     H_    0.601740 0.850239 0.033929 0.100633
H65   H     H_    0.612325 0.898273 0.048784 0.146907
H66   H     H_    0.138486 0.541862 0.136277 0.111446
H67   H     H_    0.094143 0.518976 0.118683 0.111405
H68   H     H_    0.188345 0.549426 0.051229 0.134405
H69   H     H_    0.095272 0.567601 0.137636 0.147797
H70   H     H_    0.007611 0.169939 0.350033 0.151883
H71   H     H_    0.022244 0.213922 0.382855 0.096237
H72   H     H_    0.985335 0.213285 0.331442 0.145093
H73   H     H_    0.311864 0.050871 0.450638 0.148004
H74   H     H_    0.170115 0.991911 0.350089 0.152489
H75   H     H_    0.214148 0.977484 0.383042 0.097375
H76   H     H_    0.213413 0.014174 0.331327 0.142101
H77   H     H_    0.993448 0.830198 0.349662 0.152715
H78   H     H_    0.979038 0.786087 0.382251 0.093289
H79   H     H_    0.016003 0.787008 0.330950 0.141900
H80   H     H_    0.829873 0.007788 0.350053 0.152453
H81   H     H_    0.785841 0.022272 0.382965 0.097072
H82   H     H_    0.786576 0.985481 0.331362 0.141890
H83   H     H_    0.930724 0.779641 0.541935 0.080894
H84   H     H_    0.051955 0.687664 0.450896 0.148443
H85   H     H_    0.913830 0.817821 0.586230 0.125605
H86   H     H_    0.927048 0.773978 0.616795 0.147033
H87   H     H_    0.220228 0.930033 0.543250 0.087020
H88   H     H_    0.181937 0.913443 0.587512 0.127525
H89   H     H_    0.225740 0.926707 0.618177 0.145130
H90   H     H_    0.070334 0.219925 0.542630 0.082317
H91   H     H_    0.087078 0.181665 0.586844 0.125881
H92   H     H_    0.073952 0.225519 0.617516 0.146695
H93   H     H_    0.779803 0.070049 0.543030 0.086526
H94   H     H_    0.818075 0.086709 0.587303 0.126727
H95   H     H_    0.688129 0.949093 0.450631 0.147901
H96   H     H_    0.774257 0.073495 0.617943 0.144504
H97   H     H_    0.506492 0.669757 0.849772 0.152620
H98   H     H_    0.520913 0.713876 0.882387 0.093310
H99   H     H_    0.483933 0.712942 0.831103 0.141859
H100  H     H_    0.670097 0.492004 0.850061 0.151991
H101  H     H_    0.714133 0.477554 0.882983 0.096585
H102  H     H_    0.713394 0.514276 0.831321 0.140731
H103  H     H_    0.493477 0.330192 0.849661 0.152613
H104  H     H_    0.479064 0.286081 0.882247 0.093541
H105  H     H_    0.516039 0.287004 0.830961 0.141479
H106  H     H_    0.950850 0.689165 0.549230 0.127021
H107  H     H_    0.329888 0.507984 0.850064 0.152414
H108  H     H_    0.285855 0.522439 0.883002 0.097378
H109  H     H_    0.286588 0.485710 0.831300 0.142058
H110  H     H_    0.430708 0.279657 0.041886 0.081053
H111  H     H_    0.413806 0.317818 0.086210 0.125819
H112  H     H_    0.427026 0.273965 0.116741 0.147128
H113  H     H_    0.720246 0.430020 0.043160 0.086908
H114  H     H_    0.681937 0.413404 0.087362 0.127187
H115  H     H_    0.725730 0.426641 0.118086 0.144729
H116  H     H_    0.569278 0.720354 0.042049 0.080949
H117  H     H_    0.311661 0.950610 0.551249 0.134387
H118  H     H_    0.586178 0.682203 0.086346 0.125627
H119  H     H_    0.572962 0.726065 0.116909 0.147057
H120  H     H_    0.279759 0.569998 0.043227 0.086993
H121  H     H_    0.318076 0.586621 0.087439 0.127439
H122  H     H_    0.274286 0.573393 0.118157 0.145227
H123  H     H_    0.916107 0.138402 0.425723 0.142030
H124  H     H_    0.925654 0.093007 0.458308 0.079256
H125  H     H_    0.917284 0.096476 0.383965 0.144271
H126  H     H_    0.138293 0.083641 0.425021 0.142101
H127  H     H_    0.092897 0.074197 0.457691 0.079526
H128  H     H_    0.050586 0.311233 0.548433 0.126463
H129  H     H_    0.096364 0.082271 0.383281 0.143961
H130  H     H_    0.084592 0.862326 0.425788 0.142881
H131  H     H_    0.074633 0.907654 0.458369 0.079554
H132  H     H_    0.083117 0.904227 0.384051 0.144426
H133  H     H_    0.861753 0.916200 0.425291 0.141897
H134  H     H_    0.907141 0.925752 0.457936 0.079591
H135  H     H_    0.903680 0.917511 0.383553 0.143611
H136  H     H_    0.914685 0.877031 0.544849 0.052007
H137  H     H_    0.930465 0.924702 0.556090 0.138628
H138  H     H_    0.912027 0.898022 0.613516 0.155482
H139  H     H_    0.688348 0.049417 0.551241 0.134025
H140  H     H_    0.122778 0.914413 0.546055 0.053415
H141  H     H_    0.075091 0.930438 0.556644 0.138577
H142  H     H_    0.101524 0.912262 0.614564 0.156565
H143  H     H_    0.085888 0.122534 0.545512 0.052586
H144  H     H_    0.069755 0.074907 0.555831 0.138197
H145  H     H_    0.088207 0.101056 0.613840 0.155930
H146  H     H_    0.877217 0.085687 0.545840 0.052801
H147  H     H_    0.924905 0.069619 0.556259 0.138342
H148  H     H_    0.898615 0.087934 0.614249 0.155686
H149  H     H_    0.415373 0.637642 0.925930 0.142855
H150  H     H_    0.448030 0.812289 0.951012 0.148449
H151  H     H_    0.425347 0.592312 0.958432 0.079590
H152  H     H_    0.416840 0.595746 0.884125 0.144344
H153  H     H_    0.638263 0.583702 0.925154 0.141864
H154  H     H_    0.592892 0.574203 0.957865 0.079730
H155  H     H_    0.596309 0.582350 0.883465 0.143405
H156  H     H_    0.584601 0.362330 0.925823 0.142503
H157  H     H_    0.574639 0.407667 0.958370 0.079706
H158  H     H_    0.583131 0.404218 0.884058 0.143838
H159  H     H_    0.361724 0.416296 0.925053 0.142069
H160  H     H_    0.407097 0.425795 0.957781 0.079639
O1    O     O_R   0.031480 0.445630 0.499980 -0.482433
O2    O     O_R   0.945630 0.468520 0.999980 -0.471719
O3    O     O_R   0.468520 0.054370 0.999980 -0.489639
O4    O     O_R   0.054370 0.531480 0.999980 -0.471646
O5    O     O_R   0.531480 0.054370 0.000020 -0.464918
O6    O     O_R   0.945630 0.531480 0.000020 -0.471346
O7    O     O_R   0.468520 0.945630 0.000020 -0.464830
O8    O     O_R   0.054370 0.468520 0.000020 -0.471000
O9    O     O_R   0.031480 0.500000 0.581380 -0.497486
O10   O     O_R   0.500000 0.968520 0.581380 -0.506212
O11   O     O_R   0.968520 0.500000 0.581380 -0.504329
O12   O     O_R   0.445630 0.968520 0.499980 -0.471476
O13   O     O_R   0.500000 0.031480 0.581380 -0.506316
O14   O     O_R   0.031480 0.500000 0.418620 -0.510995
O15   O     O_R   0.500000 0.031480 0.418620 -0.504106
O16   O     O_R   0.968520 0.500000 0.418620 -0.503643
O17   O     O_R   0.500000 0.968520 0.418620 -0.504009
O18   O     O_R   0.531480 0.000000 0.081380 -0.498094
O19   O     O_R   0.000000 0.468520 0.081380 -0.504108
O20   O     O_R   0.468520 0.000000 0.081380 -0.498015
O21   O     O_R   0.000000 0.531480 0.081380 -0.507166
O22   O     O_R   0.531480 0.000000 0.918620 -0.511321
O23   O     O_R   0.968520 0.554370 0.499980 -0.490328
O24   O     O_R   0.000000 0.531480 0.918620 -0.503856
O25   O     O_R   0.468520 0.000000 0.918620 -0.511277
O26   O     O_R   0.000000 0.468520 0.918620 -0.504849
O27   O     O_R   0.945750 0.999990 0.547080 -0.484683
O28   O     O_R   0.999990 0.054250 0.547080 -0.484791
O29   O     O_R   0.054250 0.000010 0.547080 -0.484778
O30   O     O_R   0.000010 0.945750 0.547080 -0.484973
O31   O     O_R   0.945750 0.000010 0.452920 -0.470388
O32   O     O_R   0.999990 0.945750 0.452920 -0.470479
O33   O     O_R   0.054250 0.999990 0.452920 -0.470301
O34   O     O_R   0.554370 0.031480 0.499980 -0.471628
O35   O     O_R   0.000010 0.054250 0.452920 -0.470521
O36   O     O_R   0.445750 0.499990 0.047080 -0.484625
O37   O     O_R   0.499990 0.554250 0.047080 -0.484990
O38   O     O_R   0.554250 0.500010 0.047080 -0.484688
O39   O     O_R   0.500010 0.445750 0.047080 -0.484974
O40   O     O_R   0.445750 0.500010 0.952920 -0.470361
O41   O     O_R   0.499990 0.445750 0.952920 -0.470546
O42   O     O_R   0.554250 0.499990 0.952920 -0.470412
O43   O     O_R   0.500010 0.554250 0.952920 -0.470511
O44   O     O_3   0.970500 0.192693 0.409213 -0.544015
O45   O     O_R   0.031480 0.554370 0.500020 -0.465132
O46   O     O_3   0.192733 0.029280 0.408968 -0.544198
O47   O     O_3   0.030625 0.807590 0.408852 -0.543124
O48   O     O_3   0.807268 0.970530 0.409047 -0.544211
O49   O     O_3   0.971071 0.807183 0.592209 -0.510489
O50   O     O_3   0.192597 0.970666 0.592963 -0.514433
O51   O     O_3   0.029863 0.192449 0.592731 -0.511986
O52   O     O_3   0.807412 0.029496 0.592870 -0.514266
O53   O     O_3   0.469332 0.692383 0.908996 -0.543107
O54   O     O_3   0.692723 0.529335 0.908988 -0.544077
O55   O     O_3   0.530645 0.307589 0.908867 -0.543415
O56   O     O_R   0.445630 0.031480 0.500020 -0.471358
O57   O     O_3   0.307267 0.470662 0.908951 -0.544189
O58   O     O_3   0.471048 0.307184 0.092192 -0.510721
O59   O     O_3   0.692604 0.470622 0.092912 -0.514676
O60   O     O_3   0.528937 0.692843 0.092328 -0.510552
O61   O     O_3   0.307407 0.529405 0.092936 -0.514275
O62   O     O_3   0.968986 0.115261 0.409434 -0.525003
O63   O     O_3   0.115269 0.030701 0.409168 -0.525043
O64   O     O_3   0.031542 0.885030 0.409367 -0.525321
O65   O     O_3   0.884733 0.969122 0.409253 -0.525047
O66   O     O_3   0.965736 0.884113 0.589937 -0.500849
O67   O     O_R   0.968520 0.445630 0.500020 -0.482491
O68   O     O_3   0.115643 0.965749 0.590389 -0.501289
O69   O     O_3   0.034668 0.115504 0.590128 -0.500964
O70   O     O_3   0.884366 0.034426 0.590274 -0.501166
O71   O     O_3   0.468420 0.614945 0.909448 -0.525379
O72   O     O_3   0.615261 0.530767 0.909215 -0.525248
O73   O     O_3   0.531554 0.385030 0.909375 -0.525410
O74   O     O_3   0.384730 0.469227 0.909175 -0.525108
O75   O     O_3   0.465697 0.384115 0.089903 -0.500983
O76   O     O_3   0.615649 0.465724 0.090362 -0.501482
O77   O     O_3   0.534284 0.615909 0.089985 -0.500935
O78   O     O_R   0.554370 0.968520 0.500020 -0.471335
O79   O     O_3   0.384361 0.534299 0.090389 -0.501235
O80   O     O_3   0.941848 0.385305 0.446684 -0.546957
O81   O     O_3   0.384958 0.056455 0.442212 -0.542797
O82   O     O_3   0.057470 0.614579 0.443711 -0.540278
O83   O     O_3   0.615034 0.943509 0.442208 -0.542811
O84   O     O_3   0.943396 0.615384 0.555837 -0.542694
O85   O     O_3   0.384790 0.943935 0.558166 -0.544272
O86   O     O_3   0.057942 0.385033 0.553570 -0.546565
O87   O     O_3   0.615220 0.056100 0.558161 -0.544643
O88   O     O_3   0.442518 0.885367 0.943761 -0.540335
O89   O     O_R   0.531480 0.945630 0.999980 -0.489657
O90   O     O_3   0.884961 0.556489 0.942270 -0.542499
O91   O     O_3   0.557463 0.114579 0.943693 -0.540505
O92   O     O_3   0.115035 0.443511 0.942204 -0.542521
O93   O     O_3   0.443402 0.115384 0.055849 -0.543095
O94   O     O_3   0.884781 0.443898 0.058070 -0.544734
O95   O     O_3   0.556615 0.884668 0.055859 -0.543036
O96   O     O_3   0.115218 0.556102 0.058161 -0.544363

loop_
_geom_bond_atom_site_label_1
_geom_bond_atom_site_label_2
_ccdc_geom_bond_type
C122  H24   S    
C75   H115  S    
C29   C42   A    
C8    C26   A    
C87   H149  S    
Cu8   O89   S    
C177  O19   A    
C100  H30   S    
C15   C32   A    
C62   O46   S    
C5    O50   S    
C4    O49   S    
C45   C200  A    
C19   C200  A    
C170  O42   A    
C93   H8    S    
C171  O39   A    
C50   C59   S    
C86   O70   S    
C169  O37   A    
C70   O53   S    
C187  C196  T    
C128  C145  A    
C57   C59   T    
C96   H17   S    
C184  C193  T    
C139  C152  A    
C121  H13   S    
C191  C196  S    
C95   O79   S    
C19   C37   A    
C146  C150  S    
C44   C53   S    
Cu4   O40   S    
C65   H85   S    
C32   O77   S    
C102  H34   S    
Cu5   O78   S    
C127  H68   S    
C135  O34   A    
C119  H150  S    
C4    C45   A    
C101  C130  A    
C103  O86   S    
C135  O78   A    
C78   H125  S    
C109  H56   S    
C27   O72   S    
C111  O95   S    
Cu2   O35   S    
C25   O70   S    
C192  C195  S    
C33   O79   S    
Cu3   O39   S    
C174  O16   A    
C116  C133  A    
C19   O64   S    
C176  O20   A    
C136  O87   S    
C177  C186  S    
C67   H91   S    
C20   O65   S    
C167  O40   A    
C119  C137  A    
C17   O62   S    
C174  C183  S    
C179  O4    A    
C94   O77   S    
C65   H83   S    
Cu11  O21   S    
C46   C160  S    
C123  C141  A    
C102  H36   S    
C108  H54   S    
C89   H156  S    
C15   O60   S    
C71   H101  S    
C99   H28   S    
C180  O24   A    
C173  C182  S    
C75   H113  S    
C172  O9    A    
C131  C149  A    
C120  C138  A    
C17   C34   A    
C105  H43   S    
C65   O49   S    
C70   H99   S    
C118  C136  A    
C42   C167  S    
C13   C54   T    
C84   H140  S    
C189  C197  S    
C165  O29   A    
Cu1   O14   S    
C163  O27   A    
C2    C53   T    
C72   H103  S    
C138  C151  A    
C22   C36   A    
C173  O10   A    
C103  H39   S    
C88   H154  S    
C39   C169  S    
C61   H70   S    
C110  H60   S    
Cu4   O42   S    
C86   H147  S    
C66   H88   S    
C92   H5    S    
C95   H15   S    
C11   O57   S    
C72   O55   S    
C57   C161  S    
C119  C159  A    
Cu6   O67   S    
C23   O69   S    
C78   H123  S    
C118  H139  S    
C115  H106  S    
C131  O83   S    
C66   H89   S    
C80   H129  S    
C104  H40   S    
C157  O2    A    
C126  C143  A    
C1    C145  S    
C16   C51   A    
C14   C31   A    
C125  C160  A    
C164  O35   A    
C98   H25   S    
C126  C159  A    
C31   C40   A    
C41   C171  S    
C81   H131  S    
Cu5   O17   S    
C33   C42   A    
C61   H71   S    
C18   O63   S    
C34   C164  S    
C123  C161  A    
C74   H112  S    
C43   C52   S    
C93   O76   S    
C144  O96   S    
C168  O3    A    
C85   H145  S    
C16   O61   S    
Cu2   O32   S    
C89   H158  S    
Cu12  O27   S    
C90   C129  A    
C172  C181  S    
C180  O26   A    
C128  O80   S    
Cu7   O56   S    
C91   H3    S    
C172  O11   A    
C110  H62   S    
C133  C147  A    
C77   H121  S    
C69   H94   S    
C107  H50   S    
C70   H97   S    
C82   H134  S    
Cu3   O36   S    
C84   H142  S    
C85   H144  S    
C163  O31   A    
C46   C58   T    
C94   H12   S    
C166  O32   A    
C73   H107  S    
C15   C48   A    
C91   H159  S    
C62   H76   S    
C115  C132  A    
Cu5   Cu7   S    
C76   H118  S    
C112  O12   A    
C129  C147  A    
C103  H37   S    
C77   H120  S    
C96   O80   S    
C9    C49   A    
C99   O83   S    
C89   O73   S    
C29   O74   S    
C130  O82   S    
C125  H46   S    
C104  H41   S    
C62   H74   S    
C13   C156  S    
C25   C38   A    
C72   H105  S    
C27   C40   A    
Cu1   Cu6   S    
C23   C34   A    
C21   C37   A    
C111  H64   S    
C83   H136  S    
C100  H31   S    
Cu3   O38   S    
C107  H52   S    
C114  H67   S    
C38   C163  S    
C200  O47   S    
C193  C194  S    
C127  C162  A    
C106  H48   S    
C106  H47   S    
C137  C150  A    
C75   H114  S    
Cu6   O11   S    
C120  C160  A    
C76   H116  S    
C114  O96   S    
C35   C56   T    
Cu9   O2    S    
C87   H152  S    
C12   C50   A    
C74   H110  S    
C198  O44   S    
C122  C162  A    
C112  C147  S    
C93   H7    S    
C121  C139  A    
C99   H27   S    
Cu12  O29   S    
C83   H138  S    
C109  O93   S    
C97   H22   S    
C3    C47   A    
C36   C165  S    
C134  O86   S    
C69   H96   S    
C133  O85   S    
C91   O74   S    
C76   H119  S    
C66   O50   S    
C94   H10   S    
C166  O30   A    
C143  O95   S    
C51   C60   S    
C10   O55   S    
C169  O43   A    
C71   H100  S    
C83   O66   S    
C153  C179  S    
C115  C156  A    
C178  O25   A    
C185  C194  T    
C79   C128  A    
C183  C192  T    
C40   C170  S    
C136  C149  A    
C176  C185  S    
Cu2   O33   S    
C30   O75   S    
C124  C148  S    
C14   O59   S    
C3    O48   S    
Cu1   O9    S    
C151  C157  S    
Cu11  O6    S    
C26   C39   A    
C97   H20   S    
C142  O94   S    
C141  O93   S    
C28   C41   A    
C8    O53   S    
C26   O71   S    
C32   C39   A    
C67   O51   S    
C6    O51   S    
C180  C188  S    
C181  C189  T    
C167  O36   A    
Cu5   O10   S    
C63   H78   S    
C64   H81   S    
C68   C162  S    
C140  C153  A    
Cu7   O15   S    
C87   O71   S    
C154  C190  S    
C69   O52   S    
C103  H38   S    
C102  H33   S    
C117  C134  A    
Cu9   O26   S    
C152  C168  S    
C73   O57   S    
C78   O62   S    
C88   O72   S    
C72   H104  S    
C101  C156  A    
C175  O17   A    
C7    C47   A    
C174  O14   A    
C7    O52   S    
C8    C48   A    
C109  H58   S    
C110  H61   S    
C114  H69   S    
C65   H86   S    
C64   O48   S    
C86   H148  S    
C28   O73   S    
C164  O28   A    
C17   C198  A    
C52   C190  T    
C92   H6    S    
C179  O8    A    
C82   O65   S    
Cu10  O3    S    
Cu8   O22   S    
C178  C187  S    
C5    C44   A    
C73   H109  S    
C6    C43   A    
Cu10  O20   S    
C78   H124  S    
C182  C191  T    
Cu9   O8    S    
C83   H137  S    
C111  H65   S    
C132  O84   S    
C9    C27   A    
C10   C28   A    
C96   H19   S    
C134  C145  A    
C105  H45   S    
C12   C30   A    
Cu2   Cu12  S    
Cu11  O4    S    
C98   H26   S    
C107  O91   S    
C81   H130  S    
C7    C25   A    
C92   O75   S    
C64   H80   S    
C67   H92   S    
C112  O56   A    
Cu6   O23   S    
Cu5   O12   S    
C188  C197  T    
C80   H127  S    
C170  O38   A    
C92   H4    S    
C43   C198  A    
C127  C144  A    
C11   C51   A    
C85   O69   S    
C108  H53   S    
C89   H157  S    
Cu12  O28   S    
C71   H102  S    
C122  C140  A    
Cu7   O13   S    
Cu10  O7    S    
C84   O68   S    
Cu8   O18   S    
C60   C68   T    
C61   O44   S    
C117  C154  A    
Cu6   O16   S    
C105  O88   S    
Cu1   O45   S    
C105  H44   S    
C69   H93   S    
C18   C36   A    
C31   O76   S    
C70   H98   S    
C117  H128  S    
C77   O61   S    
C82   H135  S    
C175  C184  S    
C142  C151  A    
Cu3   Cu4   S    
C2    C155  S    
C85   H143  S    
C93   H9    S    
C66   H87   S    
C126  H57   S    
C178  O22   A    
C71   O54   S    
C1    O1    A    
C104  O87   S    
C24   C55   T    
C139  O91   S    
Cu10  O25   S    
C88   H153  S    
C100  O84   S    
Cu11  O24   S    
Cu9   O19   S    
C24   C158  S    
Cu4   O41   S    
C14   C49   A    
C120  H2    S    
C86   H146  S    
Cu2   O31   S    
C104  H42   S    
C12   O58   S    
C124  O45   A    
C144  C153  A    
C95   H16   S    
C116  C155  A    
Cu9   Cu11  S    
C62   H75   S    
C143  C150  A    
C98   H23   S    
C81   O64   S    
C175  O15   A    
C106  O90   S    
C137  O88   S    
C96   H18   S    
C113  C158  A    
C146  O7    A    
C121  C161  A    
C63   H79   S    
C168  O5    A    
Cu7   O34   S    
C1    O67   A    
C81   H132  S    
C5    C22   A    
C67   H90   S    
C130  C148  A    
C132  C148  A    
C61   H72   S    
C186  C195  T    
C3    C20   A    
C87   H151  S    
C98   O82   S    
C74   H111  S    
C135  C149  S    
C106  H49   S    
C129  O81   S    
C49   C58   S    
C165  O33   A    
C171  O41   A    
C99   H29   S    
C108  H55   S    
C63   O47   S    
Cu12  O30   S    
C16   C33   A    
C20   C38   A    
C124  O23   A    
C109  H59   S    
C76   O60   S    
C125  C142  A    
C108  O92   S    
C97   H21   S    
C90   H73   S    
C138  O90   S    
C30   C41   A    
C77   H122  S    
C141  C152  A    
C82   H133  S    
C84   H141  S    
Cu8   Cu10  S    
C45   C54   S    
C74   O58   S    
C111  H63   S    
Cu8   O5    S    
C94   H11   S    
C73   H108  S    
Cu1   O1    S    
C91   H160  S    
C47   C55   S    
C48   C56   S    
Cu3   O37   S    
C22   O68   S    
C113  C131  A    
C88   H155  S    
C102  O85   S    
C100  H32   S    
C101  H84   S    
C107  H51   S    
Cu4   O43   S    
C173  O13   A    
C37   C166  S    
C199  O46   S    
C177  O21   A    
C157  O6    A    
C116  H117  S    
C95   H14   S    
C79   C154  A    
C123  H35   S    
C4    C21   A    
C9    O54   S    
C110  O94   S    
C146  O89   A    
C6    C23   A    
C140  O92   S    
C176  O18   A    
C113  H95   S    
C21   O66   S    
C35   C159  S    
C118  C158  A    
C114  H66   S    
C75   O59   S    
C80   O63   S    
C97   O81   S    
C79   H1    S    
C11   C29   A    
C44   C199  A    
C80   H126  S    
C18   C199  A    
C63   H77   S    
C64   H82   S    
C90   C155  A    
C10   C50   A    
