data_mof_unit_20221.cif
_audit_creation_date              2012-12-11T14:08:20-0500
_audit_creation_method            fapswitch 2.2
_symmetry_space_group_name_H-M    P1
_symmetry_Int_Tables_number       1
_space_group_crystal_system       triclinic
_cell_length_a                    28.181494
_cell_length_b                    7.177854
_cell_length_c                    17.348354
_cell_angle_alpha                 89.908773
_cell_angle_beta                  101.920219
_cell_angle_gamma                 89.992963
_cell_volume                      3433.59292372

loop_
_atom_site_label
_atom_site_type_symbol
_atom_type_description
_atom_site_fract_x
_atom_site_fract_y
_atom_site_fract_z
_atom_type_partial_charge
O1    O     O_R   0.000700 0.436510 0.857920 -0.538571
O2    O     O_R   0.999300 0.563490 0.142080 -0.538603
O3    O     O_R   0.999300 0.936510 0.642080 -0.538410
O4    O     O_R   0.000700 0.063490 0.357920 -0.538409
O5    O     O_R   0.930080 0.766380 0.721890 -0.543106
O6    O     O_R   0.069920 0.233620 0.278110 -0.543075
O7    O     O_R   0.069920 0.266380 0.778110 -0.543959
O8    O     O_R   0.930080 0.733620 0.221890 -0.543984
C1    C     C_R   0.910602 0.597780 0.708864 0.702962
C2    C     C_R   0.089414 0.402261 0.290818 0.702771
C3    C     C_R   0.089430 0.097677 0.791298 0.704262
C4    C     C_R   0.910552 0.902331 0.208994 0.704257
O9    O     O_R   0.996180 0.766230 0.862310 -0.543244
O10   O     O_R   0.003820 0.233770 0.137690 -0.543235
O11   O     O_R   0.003820 0.266230 0.637690 -0.543381
O12   O     O_R   0.996180 0.733770 0.362310 -0.543370
O13   O     O_R   0.065870 0.936460 0.783500 -0.537382
O14   O     O_R   0.934130 0.063540 0.216500 -0.537352
O15   O     O_R   0.934130 0.436460 0.716500 -0.536510
O16   O     O_R   0.065870 0.563540 0.283500 -0.536484
C5    C     C_R   0.997768 0.595390 0.893969 0.753012
C6    C     C_R   0.002236 0.404612 0.106032 0.752871
C7    C     C_R   0.002190 0.095547 0.605981 0.753432
C8    C     C_R   0.997807 0.904454 0.394018 0.753352
O17   O     O_3   0.022790 0.603020 0.723980 -0.378455
O18   O     O_3   0.977210 0.396980 0.276020 -0.378455
O19   O     O_3   0.977210 0.103020 0.776020 -0.377275
O20   O     O_3   0.022790 0.896980 0.223980 -0.377275
V1    V     V_3+5 0.995770 0.877900 0.754830 1.393257
V2    V     V_3+5 0.004230 0.122100 0.245170 1.393292
V3    V     V_3+5 0.004230 0.377900 0.745170 1.392191
V4    V     V_3+5 0.995770 0.622100 0.254830 1.392211
C9    C     C_2   0.008730 0.076358 0.523285 -0.029973
C10   C     C_2   0.991261 0.923650 0.476711 -0.029925
C11   C     C_2   0.991134 0.576048 0.976576 -0.029518
C12   C     C_2   0.008874 0.423960 0.023428 -0.029308
C13   C     C_R   0.683063 0.928050 0.028820 0.574240
C14   C     C_R   0.316672 0.073967 0.974893 0.574734
C15   C     C_R   0.320026 0.334411 0.451116 0.576845
C16   C     C_R   0.680517 0.661888 0.542583 0.577449
O21   O     O_2   0.712253 0.900622 0.977233 -0.521050
O22   O     O_2   0.287532 0.105630 0.026201 -0.521404
O23   O     O_2   0.293598 0.218044 0.486670 -0.516835
O24   O     O_2   0.707109 0.776078 0.506375 -0.515421
N1    N     N_R   0.702787 0.941662 0.107620 -0.555207
N2    N     N_R   0.296923 0.056815 0.896231 -0.555236
N3    N     N_R   0.297424 0.441382 0.388784 -0.558186
N4    N     N_R   0.702898 0.558133 0.606114 -0.558545
C17   C     C_R   0.673996 0.970172 0.161163 0.569733
C18   C     C_R   0.325638 0.023806 0.842975 0.569399
C19   C     C_R   0.323379 0.563050 0.352728 0.569614
C20   C     C_R   0.676802 0.438726 0.642926 0.569320
C21   C     C_R   0.777057 0.762036 0.165958 0.182345
C22   C     C_R   0.222980 0.237379 0.837132 0.181783
C23   C     C_R   0.223123 0.271159 0.321195 0.152792
C24   C     C_R   0.776764 0.729583 0.674550 0.153426
C25   C     C_R   0.827882 0.754418 0.190126 -0.188414
C26   C     C_R   0.172220 0.245306 0.811864 -0.188632
C27   C     C_R   0.172235 0.262795 0.299260 -0.200592
C28   C     C_R   0.827596 0.737764 0.697985 -0.200537
C29   C     C_R   0.833877 0.077070 0.152297 -0.199081
C30   C     C_R   0.165779 0.922765 0.849549 -0.199144
C31   C     C_R   0.165838 0.569159 0.354246 -0.198680
C32   C     C_R   0.834558 0.430859 0.643840 -0.198484
C33   C     C_R   0.783496 0.085026 0.127377 -0.139055
C34   C     C_R   0.216077 0.914542 0.875567 -0.139849
C35   C     C_R   0.216295 0.577011 0.377960 -0.132885
C36   C     C_R   0.784195 0.423150 0.618698 -0.132700
C37   C     C_R   0.754720 0.929220 0.134268 0.389268
C38   C     C_R   0.245034 0.070144 0.869307 0.389938
C39   C     C_R   0.245421 0.429306 0.362062 0.389415
C40   C     C_R   0.754824 0.571108 0.633492 0.390146
C41   C     C_R   0.602114 0.969399 0.055327 -0.044148
C42   C     C_R   0.397533 0.027232 0.948760 -0.044036
C43   C     C_R   0.398042 0.469738 0.442379 -0.046482
C44   C     C_R   0.602390 0.528130 0.551721 -0.046027
C45   C     C_R   0.632520 0.942134 0.001282 -0.033132
C46   C     C_R   0.367203 0.059053 0.002562 -0.032778
C47   C     C_R   0.370645 0.345268 0.478441 -0.036111
C48   C     C_R   0.629941 0.650050 0.514763 -0.035940
C49   C     C_R   0.611970 0.929900 0.921018 -0.126513
C50   C     C_R   0.387836 0.075492 0.082664 -0.126607
C51   C     C_R   0.394213 0.234508 0.540975 -0.126937
C52   C     C_R   0.606575 0.756926 0.450753 -0.126825
C53   C     C_R   0.623224 0.982906 0.136130 -0.030855
C54   C     C_R   0.376367 0.009912 0.868116 -0.031189
C55   C     C_R   0.373972 0.580104 0.379056 -0.029149
C56   C     C_R   0.626270 0.420933 0.616246 -0.028993
C57   C     C_R   0.856794 0.911527 0.183755 -0.083959
C58   C     C_R   0.143127 0.088336 0.817542 -0.083806
C59   C     C_R   0.143139 0.411398 0.315162 -0.077354
C60   C     C_R   0.856936 0.588716 0.683318 -0.077510
H1    H     H_    0.854890 0.200345 0.145916 0.141226
H2    H     H_    0.144617 0.799608 0.855465 0.141187
H3    H     H_    0.144548 0.685713 0.367721 0.140437
H4    H     H_    0.856039 0.314061 0.631175 0.140270
H5    H     H_    0.766641 0.212837 0.102184 0.130915
H6    H     H_    0.232725 0.786566 0.900963 0.130696
H7    H     H_    0.232934 0.698325 0.409440 0.137665
H8    H     H_    0.767813 0.301613 0.587076 0.136614
H9    H     H_    0.634505 0.909902 0.878088 0.168969
H10   H     H_    0.365392 0.100260 0.125363 0.168498
H11   H     H_    0.374090 0.136828 0.569563 0.171792
H12   H     H_    0.626869 0.851440 0.421015 0.172376
C61   C     C_R   0.478875 0.982202 0.920091 0.038443
C62   C     C_R   0.520710 0.011667 0.084159 0.038702
C63   C     C_R   0.524076 0.387442 0.561733 0.035019
C64   C     C_R   0.476330 0.610966 0.432520 0.034680
C65   C     C_R   0.469456 0.028085 0.057353 0.036828
C66   C     C_R   0.530203 0.969550 0.946730 0.036772
C67   C     C_R   0.527637 0.624200 0.459411 0.034257
C68   C     C_R   0.472908 0.371617 0.533876 0.033908
C69   C     C_R   0.448848 0.012456 0.975521 0.063151
C70   C     C_R   0.550781 0.983550 0.028627 0.062996
C71   C     C_R   0.551140 0.513209 0.524170 0.059361
C72   C     C_R   0.449323 0.484120 0.469689 0.059017
C73   C     C_R   0.456186 0.965306 0.839485 -0.176028
C74   C     C_R   0.543276 0.022197 0.165037 -0.175427
C75   C     C_R   0.549450 0.281841 0.626396 -0.174667
C76   C     C_R   0.450720 0.720913 0.369496 -0.174020
C77   C     C_R   0.406138 0.978735 0.814315 -0.133673
C78   C     C_R   0.593337 0.008628 0.190196 -0.133774
C79   C     C_R   0.599325 0.298610 0.652894 -0.136813
C80   C     C_R   0.400772 0.705226 0.343427 -0.136280
O25   O     O_2   0.305176 0.004163 0.765933 -0.519262
O26   O     O_2   0.694415 0.986658 0.238360 -0.518827
O27   O     O_2   0.699623 0.338040 0.705424 -0.527567
O28   O     O_2   0.300373 0.666667 0.291316 -0.528071
C81   C     C_R   0.562055 0.943617 0.894188 -0.175518
C82   C     C_R   0.437729 0.060338 0.109601 -0.175911
C83   C     C_R   0.444134 0.246690 0.568039 -0.174936
C84   C     C_R   0.556646 0.744721 0.423625 -0.175007
H13   H     H_    0.155473 0.374104 0.787377 0.136780
H14   H     H_    0.844832 0.625648 0.214249 0.136829
H15   H     H_    0.844135 0.859864 0.729133 0.142234
H16   H     H_    0.155439 0.140930 0.268256 0.141977
H17   H     H_    0.390848 0.964692 0.751943 0.164150
H18   H     H_    0.608544 0.018057 0.252762 0.162473
H19   H     H_    0.616737 0.214399 0.702647 0.163336
H20   H     H_    0.383176 0.792748 0.294924 0.163002
H21   H     H_    0.475880 0.940497 0.793586 0.114475
H22   H     H_    0.523428 0.040316 0.211212 0.112789
H23   H     H_    0.531996 0.184612 0.658742 0.115148
H24   H     H_    0.467985 0.822119 0.338658 0.114652
H25   H     H_    0.549856 0.933977 0.831352 0.115756
H26   H     H_    0.450068 0.075844 0.172193 0.116028
H27   H     H_    0.458848 0.154875 0.616098 0.116294
H28   H     H_    0.542155 0.831820 0.373804 0.115331
C85   C     C_3   0.040066 0.225037 0.496248 -0.750040
H29   H     H_    0.059001 0.312455 0.545910 0.199736
H30   H     H_    0.068915 0.159926 0.470293 0.203210
H31   H     H_    0.017363 0.319711 0.453072 0.231640
C86   C     C_3   0.959918 0.774989 0.503744 -0.750073
H32   H     H_    0.940980 0.687588 0.454078 0.199763
H33   H     H_    0.982616 0.680299 0.546919 0.231585
H34   H     H_    0.931071 0.840115 0.529700 0.203191
C87   C     C_3   0.959433 0.723777 0.003231 -0.750177
H35   H     H_    0.940336 0.810573 0.953337 0.199599
H36   H     H_    0.930713 0.657815 0.029283 0.202388
H37   H     H_    0.981893 0.819126 0.046245 0.231762
C88   C     C_3   0.040584 0.276251 0.996777 -0.750549
H38   H     H_    0.059683 0.189475 0.046675 0.199482
H39   H     H_    0.018128 0.180885 0.953765 0.231795
H40   H     H_    0.069300 0.342230 0.970725 0.202274
C89   C     C_3   0.253202 0.407090 0.830387 -0.739236
H41   H     H_    0.230434 0.526586 0.804114 0.202764
H42   H     H_    0.273525 0.448510 0.889703 0.209664
H43   H     H_    0.279318 0.376466 0.792186 0.238601
C90   C     C_3   0.747096 0.591815 0.173114 -0.739337
H44   H     H_    0.770108 0.472345 0.198708 0.201923
H45   H     H_    0.721392 0.621483 0.212118 0.240130
H46   H     H_    0.726334 0.550820 0.114028 0.208973
C91   C     C_3   0.747468 0.890116 0.695545 -0.654726
H47   H     H_    0.756028 0.017893 0.665054 0.219591
H48   H     H_    0.707844 0.865354 0.679130 0.209824
H49   H     H_    0.756860 0.913876 0.760143 0.218332
C92   C     C_3   0.252078 0.111098 0.298873 -0.651228
H50   H     H_    0.244137 0.983109 0.329831 0.221204
H51   H     H_    0.241777 0.087399 0.234334 0.218091
H52   H     H_    0.291714 0.136448 0.313728 0.209819

loop_
_geom_bond_atom_site_label_1
_geom_bond_atom_site_label_2
_ccdc_geom_bond_type
O17   V3    S    
C61   C66   A    
O1    C5    A    
C87   H35   S    
C23   C27   A    
O19   V1    S    
O13   V1    S    
C90   H44   S    
C64   C76   A    
O3    C7    A    
C11   C12   D    
C76   H24   S    
C64   C72   A    
C48   C52   A    
C21   C37   A    
C11   C87   S    
C88   H38   S    
C49   H9    S    
C91   H47   S    
O7    C3    A    
C17   O26   S    
C89   H41   S    
C51   H11   S    
C62   C70   A    
C19   O28   S    
C32   C36   A    
O9    V1    S    
O10   V2    S    
C14   O22   S    
N4    C20   A    
C85   H30   S    
C74   C78   A    
C55   C80   A    
O4    C8    A    
C29   H1    S    
C91   H49   S    
C82   H26   S    
C31   H3    S    
C27   H16   S    
O1    V3    S    
C44   C71   A    
C75   H23   S    
C66   C81   A    
O2    V4    S    
C63   C68   A    
C77   H17   S    
O3    V1    S    
C73   C77   A    
C1    O15   A    
C2    O16   A    
C24   C40   A    
O2    C6    A    
C16   C48   A    
C83   H27   S    
O14   V2    S    
N1    C17   A    
C86   H33   S    
C66   C70   A    
C81   H25   S    
O16   V4    S    
C65   C69   A    
O11   C7    A    
O15   V3    S    
O12   C8    A    
C62   C74   A    
C23   C92   S    
C61   C73   A    
N4    C40   S    
C56   C79   A    
C1    C60   S    
C63   C75   A    
C88   H39   S    
C20   O27   S    
C29   C57   A    
O5    V1    S    
C91   H48   S    
C26   H13   S    
C31   C35   A    
O7    V3    S    
C30   C34   A    
N1    C37   S    
O8    V4    S    
C17   C53   A    
C4    C57   S    
C20   C56   A    
C78   H18   S    
C85   H31   S    
C19   C55   A    
C21   C25   A    
O18   V4    S    
N3    C19   A    
C14   C46   A    
C7    C9    S    
C42   C69   A    
C13   C45   A    
C52   C84   A    
C8    C10   S    
C41   C70   A    
C24   C28   A    
C36   C40   A    
C84   H28   S    
C87   H36   S    
C73   H21   S    
C36   H8    S    
O5    C1    A    
C90   H45   S    
C46   C50   A    
C49   C81   A    
C22   C38   A    
C45   C49   A    
O8    C4    A    
C92   H52   S    
N3    C39   S    
C54   C77   A    
C9    C10   D    
C50   H10   S    
O9    C5    A    
C53   C78   A    
C18   O25   S    
C27   C59   A    
C42   C54   A    
C86   H34   S    
C26   C58   A    
C28   H15   S    
C41   C53   A    
C25   C57   A    
C43   C55   A    
C89   H43   S    
O6    V2    S    
C2    C59   S    
C87   H37   S    
C75   C79   A    
C30   H2    S    
C12   C88   S    
C52   H12   S    
C90   H46   S    
C25   H14   S    
C50   C82   A    
C32   C60   A    
C22   C89   S    
C13   N1    A    
C68   C72   A    
C88   H40   S    
C21   C90   S    
C15   N3    A    
C22   C26   A    
C10   C86   S    
C61   C69   A    
C16   N4    A    
C44   C56   A    
C3    O13   A    
N2    C38   S    
C80   H20   S    
C44   C48   A    
C74   H22   S    
O6    C2    A    
C15   O23   S    
O11   V3    S    
C5    C11   S    
C35   H7    S    
O12   V4    S    
C6    C12   S    
N2    C18   A    
C64   C67   A    
C24   C91   S    
C34   H6    S    
O20   V2    S    
C51   C83   A    
C33   H5    S    
C9    C85   S    
C85   H29   S    
C47   C51   A    
C3    C58   S    
O10   C6    A    
C34   C38   A    
C33   C37   A    
C30   C58   A    
C92   H51   S    
C63   C71   A    
C32   H4    S    
C35   C39   A    
C68   C83   A    
C13   O21   S    
O4    V2    S    
C14   N2    A    
C79   H19   S    
C18   C54   A    
C29   C33   A    
C67   C84   A    
C16   O24   S    
C31   C59   A    
C89   H42   S    
C92   H50   S    
C42   C46   A    
C4    O14   A    
C65   C82   A    
C41   C45   A    
C67   C71   A    
C43   C72   A    
C86   H32   S    
C28   C60   A    
C43   C47   A    
C23   C39   A    
C76   C80   A    
C15   C47   A    
C62   C65   A    
