data_mof_unit_6342.cif
_audit_creation_date              2012-12-10T19:40:46-0500
_audit_creation_method            fapswitch 2.2
_symmetry_space_group_name_H-M    P1
_symmetry_Int_Tables_number       1
_space_group_crystal_system       triclinic
_cell_length_a                    18.277004
_cell_length_b                    18.46813
_cell_length_c                    18.226231
_cell_angle_alpha                 120.265226
_cell_angle_beta                  119.109855
_cell_angle_gamma                 90.39153
_cell_volume                      4375.85931416

loop_
_atom_site_label
_atom_site_type_symbol
_atom_type_description
_atom_site_fract_x
_atom_site_fract_y
_atom_site_fract_z
_atom_type_partial_charge
C1    C     C_R   0.359591 0.139530 0.499380 0.895144
C2    C     C_3   0.660425 0.715324 0.312651 0.604839
C3    C     C_R   0.221666 0.800580 0.469046 0.097615
C4    C     C_R   0.642049 0.861624 0.501439 0.940327
C5    C     C_R   0.302735 0.793027 0.485869 -0.226150
C6    C     C_R   0.322889 0.717758 0.481607 0.310538
C7    C     C_R   0.275443 0.669264 0.495460 0.212760
C8    C     C_R   0.197137 0.686667 0.490682 -0.272912
C9    C     C_R   0.168788 0.747600 0.468822 0.079928
C10   C     C_3   0.133427 0.820863 0.511512 0.127290
C11   C     C_3   0.195181 0.879955 0.513327 -0.397841
C12   C     C_2   0.306112 0.811775 0.107728 -0.374093
C13   C     C_R   0.223047 0.170290 0.415304 -0.152440
C14   C     C_R   0.301594 0.192725 0.505583 -0.211949
C15   C     C_R   0.318386 0.262691 0.601295 0.331410
C16   C     C_R   0.643073 0.139735 0.502359 0.877020
C17   C     C_R   0.271590 0.325030 0.603353 0.200178
C18   C     C_R   0.196248 0.303924 0.507297 -0.175164
C19   C     C_R   0.169935 0.222077 0.415957 -0.029329
C20   C     C_3   0.133164 0.190065 0.306127 0.484134
C21   C     C_3   0.192559 0.128750 0.305629 0.128498
C22   C     C_R   0.753015 0.275114 0.945699 0.095336
C23   C     C_R   0.717731 0.767080 0.428493 -0.022974
C24   C     C_R   0.687219 0.195241 0.890395 -0.094199
C25   C     C_R   0.666294 0.176619 0.946209 -0.057513
C26   C     C_R   0.723553 0.230759 0.056663 -0.029673
C27   C     C_R   0.796948 0.306194 0.109474 -0.176198
C28   C     C_R   0.359933 0.858829 0.498407 0.902877
C29   C     C_R   0.804299 0.330679 0.051406 -0.026430
C30   C     C_3   0.880434 0.369723 0.055632 0.079159
C31   C     C_3   0.822003 0.304460 0.935061 0.072376
C32   C     C_R   0.719427 0.284701 0.558243 0.025788
C33   C     C_R   0.711696 0.195678 0.515669 -0.150337
C34   C     C_R   0.702838 0.810639 0.506426 -0.246479
C35   C     C_R   0.776240 0.166514 0.495996 -0.189404
C36   C     C_R   0.834433 0.223718 0.501068 0.259898
C37   C     C_R   0.822917 0.306520 0.520598 -0.177422
C38   C     C_R   0.774938 0.339358 0.563200 0.125926
C39   C     C_3   0.716993 0.395919 0.555707 -0.368823
C40   C     C_R   0.636975 0.138781 0.777723 0.848751
C41   C     C_3   0.653962 0.333359 0.548181 -0.293980
C42   C     C_R   0.140577 0.638070 0.498229 0.962824
C43   C     C_R   0.863423 0.360259 0.504048 0.842781
C44   C     C_R   0.857164 0.637349 0.498232 0.885485
C45   C     C_R   0.746556 0.801229 0.588807 0.248620
C46   C     C_R   0.140386 0.360031 0.501524 0.982607
C47   C     C_R   0.860576 0.361173 0.222073 0.757794
C48   C     C_R   0.137474 0.644381 0.777713 0.857506
C49   C     C_R   0.361752 0.860867 0.221218 0.948527
C50   C     C_2   0.270149 0.768384 0.936974 0.267120
C51   C     C_2   0.184409 0.723557 0.885582 0.021214
C52   C     C_2   0.334185 0.801028 0.046660 0.347084
C53   C     C_2   0.035119 0.797726 0.437342 0.519198
C54   C     C_2   0.150075 0.909884 0.443802 0.573951
C55   C     C_2   0.267373 0.150447 0.297885 0.498844
C56   C     C_R   0.781232 0.731121 0.575553 0.292169
C57   C     C_2   0.582244 0.105600 0.890124 0.477812
C58   C     C_2   0.708007 0.208618 0.117038 0.617345
C59   C     C_2   0.964471 0.353230 0.111881 0.605864
C60   C     C_2   0.792742 0.346645 0.877102 0.604505
C61   C     C_2   0.783132 0.077886 0.469857 0.603375
C62   C     C_2   0.758389 0.488536 0.653559 0.683682
C63   C     C_2   0.566452 0.279346 0.444517 0.474375
C64   C     C_2   0.769424 0.646235 0.268367 0.641600
C65   C     C_2   0.667351 0.557892 0.269340 0.470926
C66   C     C_R   0.800460 0.692467 0.499847 -0.265267
C67   C     C_R   0.768766 0.712534 0.428077 -0.015455
C68   C     C_3   0.715606 0.650986 0.311707 -0.337685
H1    H     H_    0.251801 0.935588 0.591898 0.201558
H2    H     H_    0.275630 0.820623 0.697816 0.369004
H3    H     H_    0.124386 0.964032 0.467712 0.100793
H4    H     H_    0.442021 0.169758 0.742789 0.369145
H5    H     H_    0.385025 0.495026 0.694348 0.376405
H6    H     H_    0.980932 0.129471 0.085101 0.382338
H7    H     H_    0.020676 0.835233 0.836949 0.418414
H8    H     H_    0.294970 0.362443 0.367779 0.434343
H9    H     H_    0.036563 0.904019 0.069818 0.419785
H10   H     H_    0.332566 0.196592 0.366882 0.089207
H11   H     H_    0.560085 0.042150 0.818959 0.101464
H12   H     H_    0.689811 0.394432 0.485300 0.166311
H13   H     H_    0.720565 0.261360 0.190503 0.009584
H14   H     H_    0.929720 0.576485 0.260246 0.416757
H15   H     H_    0.962301 0.304910 0.128671 0.074544
H16   H     H_    0.838347 0.371080 0.866438 0.108532
H17   H     H_    0.924017 0.136155 0.929313 0.409753
H18   H     H_    0.791382 0.036373 0.408030 0.073258
H19   H     H_    0.521820 0.782595 0.020828 0.405802
H20   H     H_    0.838446 0.094663 0.328148 0.348291
H21   H     H_    0.716394 0.528150 0.664938 0.116056
H22   H     H_    0.564443 0.242818 0.374259 0.084798
H23   H     H_    0.647957 0.364295 0.614715 0.218801
H24   H     H_    0.839164 0.990926 0.728254 0.368019
H25   H     H_    0.672005 0.553874 0.479463 0.353546
H26   H     H_    0.735938 0.611223 0.185721 0.152710
H27   H     H_    0.664520 0.543859 0.319183 0.084965
H28   H     H_    0.656891 0.900217 0.283919 0.374378
H29   H     H_    0.236100 0.790779 0.075087 0.203330
H30   H     H_    0.395333 0.938921 0.954308 0.408908
H31   H     H_    0.471359 0.582972 0.266046 0.425168
H32   H     H_    0.466058 0.732332 0.404297 0.382667
H33   H     H_    0.392417 0.700658 0.694268 0.367253
H34   H     H_    0.995485 0.824876 0.466844 0.144917
O1    O     O_3   0.500000 0.000000 0.500000 -0.565350
O2    O     O_R   0.055460 0.323770 0.439940 -0.563087
O3    O     O_R   0.885490 0.446080 0.270840 -0.631587
O4    O     O_R   0.323800 0.055370 0.439900 -0.585679
O5    O     O_R   0.175320 0.614550 0.729170 -0.577118
O6    O     O_R   0.885490 0.324650 0.270840 -0.603359
O7    O     O_R   0.053870 0.614540 0.729150 -0.561136
O8    O     O_R   0.883910 0.615420 0.560060 -0.553231
O9    O     O_R   0.176240 0.444580 0.560100 -0.549679
O10   O     O_R   0.055460 0.616070 0.439920 -0.616365
O11   O     O_R   0.884570 0.323750 0.439920 -0.590362
O12   O     O_R   0.616140 0.055410 0.439930 -0.614571
O13   O     O_R   0.616140 0.884540 0.439940 -0.552735
O14   O     O_R   0.615480 0.176200 0.560080 -0.620088
O15   O     O_R   0.444590 0.883880 0.560080 -0.628308
O16   O     O_R   0.614550 0.175310 0.729160 -0.581842
O17   O     O_R   0.324730 0.885400 0.270830 -0.583188
O18   O     O_R   0.614550 0.053870 0.729160 -0.619959
O19   O     O_R   0.446170 0.885420 0.270850 -0.553370
O20   O     O_2   0.319144 0.760026 0.816736 -0.240796
O21   O     O_2   0.217708 0.842662 0.833740 -0.183863
O22   O     O_3   0.383021 0.916531 0.987794 -0.456956
O23   O     O_R   0.323800 0.884510 0.439910 -0.586118
O24   O     O_2   0.497138 0.732119 0.267659 -0.265819
O25   O     O_2   0.499566 0.594818 0.140932 -0.156541
O26   O     O_3   0.535272 0.617648 0.309311 -0.616885
O27   O     O_2   0.486740 0.709439 0.537640 -0.221113
O28   O     O_2   0.361432 0.579399 0.370823 -0.174168
O29   O     O_3   0.403163 0.718919 0.381084 -0.555138
O30   O     O_2   0.245513 0.508629 0.459366 -0.202491
O31   O     O_2   0.397550 0.580794 0.528881 -0.179865
O32   O     O_3   0.348206 0.641203 0.651947 -0.449390
O33   O     O_2   0.000029 0.751818 0.344241 -0.457492
O34   O     O_R   0.444590 0.176180 0.560060 -0.596444
O35   O     O_2   0.146290 0.949255 0.682825 -0.189963
O36   O     O_2   0.107132 0.797447 0.632943 -0.298604
O37   O     O_3   0.271544 0.880095 0.716201 -0.486051
O38   O     O_2   0.141641 0.874328 0.361348 -0.420009
O39   O     O_2   0.478364 0.327324 0.777318 -0.206925
O40   O     O_2   0.347366 0.287228 0.773653 -0.166265
O41   O     O_3   0.394105 0.160591 0.677949 -0.603957
O42   O     O_2   0.235876 0.444165 0.735089 -0.246902
O43   O     O_2   0.388680 0.445415 0.816496 -0.133567
O44   O     O_3   0.342494 0.511792 0.713547 -0.423370
O45   O     O_R   0.615480 0.883900 0.560100 -0.579909
O46   O     O_2   0.967786 0.203720 0.239581 -0.250462
O47   O     O_2   0.983795 0.071666 0.235010 -0.150294
O48   O     O_3   0.980469 0.082514 0.096569 -0.415809
O49   O     O_2   0.063962 0.745572 0.932680 -0.222206
O50   O     O_2   0.173080 0.881990 0.006407 -0.227437
O51   O     O_3   0.046617 0.789278 0.811675 -0.462633
O52   O     O_2   0.151955 0.238516 0.196939 -0.234484
O53   O     O_2   0.109958 0.337511 0.310637 -0.296444
O54   O     O_3   0.273224 0.339622 0.394964 -0.554107
O55   O     O_2   0.208868 0.965884 0.228836 -0.248531
O56   O     O_3   0.000040 0.499960 0.500000 -0.572816
O57   O     O_2   0.099809 0.985864 0.271427 -0.192581
O58   O     O_3   0.061724 0.968543 0.104560 -0.389285
O59   O     O_2   0.254689 0.117550 0.213672 -0.414826
O60   O     O_2   0.535043 0.118590 0.922052 -0.495999
O61   O     O_2   0.683874 0.131554 0.087002 -0.489828
O62   O     O_2   0.943916 0.512479 0.069360 -0.188851
O63   O     O_2   0.812712 0.504176 0.074280 -0.260376
O64   O     O_3   0.966604 0.547971 0.236542 -0.469964
O65   O     O_2   0.035210 0.391797 0.136019 -0.411724
O66   O     O_2   0.719097 0.354051 0.842175 -0.498424
O67   O     O_R   0.176240 0.615450 0.560090 -0.556559
O68   O     O_2   0.796672 0.156589 0.764698 -0.281987
O69   O     O_2   0.949580 0.256812 0.905140 -0.228027
O70   O     O_3   0.874075 0.157127 0.928498 -0.537350
O71   O     O_2   0.783378 0.052105 0.519876 -0.495209
O72   O     O_2   0.503310 0.908236 0.170166 -0.276862
O73   O     O_2   0.474353 0.757111 0.127783 -0.157135
O74   O     O_3   0.457696 0.774210 0.989607 -0.440982
O75   O     O_2   0.003030 0.279185 0.560487 -0.243241
O76   O     O_2   0.954877 0.136204 0.526008 -0.245733
O77   O     O_3   0.893526 0.144692 0.369781 -0.444039
O78   O     O_R   0.883910 0.444550 0.560070 -0.604370
O79   O     O_2   0.838250 0.520148 0.719812 -0.461526
O80   O     O_2   0.497075 0.276302 0.438848 -0.542112
O81   O     O_2   0.694043 0.864746 0.718215 -0.143570
O82   O     O_2   0.852261 0.884187 0.795480 -0.212655
O83   O     O_3   0.790085 0.983949 0.736007 -0.474225
O84   O     O_2   0.860795 0.697921 0.719261 -0.152789
O85   O     O_2   0.708776 0.698196 0.660045 -0.193681
O86   O     O_3   0.731175 0.564538 0.536190 -0.605430
O87   O     O_2   0.849856 0.681256 0.324500 -0.534995
O88   O     O_2   0.628883 0.497752 0.177784 -0.488998
O89   O     O_R   0.884570 0.616050 0.439900 -0.627411
O90   O     O_2   0.776963 0.823397 0.327664 -0.294756
O91   O     O_2   0.636887 0.722964 0.158178 -0.234252
O92   O     O_3   0.636266 0.864189 0.300283 -0.436612
S1    S     S_3+6 0.296478 0.821399 0.889942 0.147630
S2    S     S_3+6 0.165516 0.278381 0.299572 0.045614
S3    S     S_3+6 0.139907 0.009440 0.228007 0.172497
S4    S     S_3+6 0.899449 0.486255 0.107431 0.117486
S5    S     S_3+6 0.861743 0.216634 0.879922 0.027664
S6    S     S_3+6 0.445976 0.812191 0.087352 0.147687
S7    S     S_3+6 0.924986 0.196001 0.492346 0.088588
S8    S     S_3+6 0.771101 0.883320 0.713221 0.149181
S9    S     S_3+6 0.771446 0.674722 0.627597 0.113547
S10   S     S_3+6 0.678902 0.781696 0.272444 0.101892
S11   S     S_3+6 0.544044 0.664919 0.254260 0.083534
S12   S     S_3+6 0.395910 0.679193 0.443471 0.125846
S13   S     S_3+6 0.317983 0.596664 0.530928 0.129760
S14   S     S_3+6 0.163158 0.862518 0.638589 0.055372
S15   S     S_3+6 0.386674 0.262167 0.711973 0.119652
S16   S     S_3+6 0.310634 0.431730 0.721431 0.150346
S17   S     S_3+6 0.013589 0.136120 0.219961 0.174935
S18   S     S_3+6 0.116948 0.787734 0.913528 0.111070
Zn1   Zn    Zn3+2 0.543850 0.957090 0.414170 1.147500
Zn2   Zn    Zn3+2 0.542910 0.129670 0.585830 1.095130
Zn3   Zn    Zn3+2 0.542910 0.956180 0.585840 1.108700
Zn4   Zn    Zn3+2 0.370330 0.957070 0.414150 1.121493
Zn5   Zn    Zn3+2 0.956190 0.542870 0.585830 1.140091
Zn6   Zn    Zn3+2 0.957140 0.543780 0.414160 1.047805
Zn7   Zn    Zn3+2 0.957140 0.370280 0.414170 1.124839
Zn8   Zn    Zn3+2 0.129710 0.542890 0.585850 1.209257

loop_
_geom_bond_atom_site_label_1
_geom_bond_atom_site_label_2
_ccdc_geom_bond_type
C31   C60   S    
H4    O41   S    
C40   O16   A    
C30   S4    S    
C22   C29   A    
O39   S15   D    
C27   C29   A    
C57   H11   S    
C4    O13   A    
C44   C66   S    
C35   C36   A    
C53   O33   D    
C3    C11   S    
O20   S1    D    
C31   S5    S    
C64   O87   D    
H32   O29   S    
C7    C8    A    
C39   C41   S    
C56   S9    S    
C49   O17   A    
H33   O32   S    
O18   Zn3   S    
H30   O22   S    
H19   O74   S    
C26   C27   A    
C29   C30   S    
O91   S10   D    
C3    C9    A    
C10   S14   S    
C64   C68   S    
C36   C37   A    
O54   S2    S    
C8    C42   S    
O45   Zn3   S    
C28   O15   A    
C44   O89   A    
C30   C31   S    
C33   C35   A    
O23   Zn4   S    
C48   O5    A    
C63   H22   S    
O24   S11   D    
C62   H21   S    
O85   S9    D    
O13   Zn1   S    
O70   S5    S    
C18   C19   A    
C20   S17   S    
C23   C67   A    
O15   Zn3   S    
O8    Zn5   S    
C42   O10   A    
O69   S5    D    
O53   S2    D    
O44   S16   S    
O6    Zn7   S    
C51   S18   S    
C48   C51   S    
C54   O38   D    
C57   O60   D    
O77   S7    S    
C45   C56   A    
C8    C9    A    
C47   O3    A    
C50   C52   S    
C32   C41   S    
C52   S6    S    
C32   C38   A    
C1    O34   A    
C9    C10   S    
O1    Zn1   S    
O55   S3    D    
C1    O4    A    
C18   C46   S    
O52   S2    D    
C23   C34   A    
H28   O92   S    
C48   O7    A    
O50   S18   D    
O92   S10   S    
H2    O37   S    
C63   O80   D    
C13   C14   A    
O12   Zn1   S    
O21   S1    D    
O78   Zn5   S    
C25   C57   S    
O74   S6    S    
C58   O61   D    
C16   O14   A    
O89   Zn6   S    
O42   S16   D    
O68   S5    D    
C12   C52   D    
O62   S4    D    
C12   C49   S    
C6    C7    A    
O34   Zn2   S    
C38   C39   S    
C4    C34   S    
C43   O78   A    
H17   O70   S    
O82   S8    D    
C22   C31   S    
C13   C19   A    
C65   H27   S    
C13   C21   S    
C67   C68   S    
C39   H12   S    
C2    S10   S    
C24   C25   A    
C55   O59   D    
O14   Zn2   S    
C17   S16   S    
C10   C11   S    
C58   H13   S    
C21   S3    S    
C21   C55   S    
C55   H10   S    
O36   S14   D    
H24   O83   S    
O56   Zn7   S    
C50   C51   D    
C25   C26   A    
C4    O45   A    
C46   O2    A    
H8    O54   S    
O19   Zn1   S    
O83   S8    S    
C37   C43   S    
O64   S4    S    
O2    Zn7   S    
C37   C38   A    
O28   S12   D    
C42   O67   A    
C16   C33   S    
C5    C28   S    
C50   S1    S    
H7    O51   S    
O57   S3    D    
C53   H34   S    
O56   Zn6   S    
C65   C68   S    
C49   O19   A    
C30   C59   S    
C17   C18   A    
O90   S10   D    
C61   O71   D    
O16   Zn2   S    
C2    S11   S    
C60   O66   D    
C65   O88   D    
C26   C58   S    
O1    Zn2   S    
C12   H29   S    
H31   O26   S    
C11   C54   S    
C34   C45   A    
C7    S13   S    
C41   H23   S    
O3    Zn6   S    
C22   C24   A    
O46   S17   D    
O26   S11   S    
C41   C63   S    
O1    Zn3   S    
C59   O65   D    
C28   O23   A    
H20   O77   S    
O43   S16   D    
H14   O64   S    
C27   C47   S    
C15   C17   A    
C39   C62   S    
C10   C53   S    
C40   O18   A    
O81   S8    D    
O72   S6    D    
O47   S17   D    
C59   H15   S    
C3    C5    A    
C16   O12   A    
O51   S18   S    
C11   H1    S    
O58   S3    S    
C61   H18   S    
O31   S13   D    
O9    Zn8   S    
O4    Zn4   S    
O86   S9    S    
C2    C68   S    
H5    O44   S    
C32   C33   A    
O41   S15   S    
C19   C20   S    
O25   S11   D    
C64   H26   S    
C15   S15   S    
O63   S4    D    
O48   S17   S    
C62   O79   D    
O27   S12   D    
C60   H16   S    
O32   S13   S    
C5    C6    A    
C35   C61   S    
O56   Zn5   S    
C56   C66   A    
C54   H3    S    
O22   S1    S    
O49   S18   D    
C24   C40   S    
C20   S2    S    
O84   S9    D    
C66   C67   A    
O75   S7    D    
O73   S6    D    
C6    S12   S    
O7    Zn5   S    
O37   S14   S    
H9    O58   S    
O5    Zn8   S    
H25   O86   S    
O17   Zn4   S    
O67   Zn8   S    
C45   S8    S    
C20   C21   S    
O30   S13   D    
O56   Zn8   S    
C47   O6    A    
C36   S7    S    
O76   S7    D    
C2    C23   S    
O10   Zn6   S    
C14   C15   A    
H6    O48   S    
C1    C14   S    
O40   S15   D    
C46   O9    A    
O29   S12   S    
O1    Zn4   S    
O11   Zn7   S    
C43   O11   A    
O35   S14   D    
C44   O8    A    
