data_mof_unit_31176.cif
_audit_creation_date              2012-12-10T18:04:39-0500
_audit_creation_method            fapswitch 2.2
_symmetry_space_group_name_H-M    P1
_symmetry_Int_Tables_number       1
_space_group_crystal_system       triclinic
_cell_length_a                    19.567694
_cell_length_b                    17.590666
_cell_length_c                    12.580343
_cell_angle_alpha                 90.005188
_cell_angle_beta                  99.200519
_cell_angle_gamma                 89.997372
_cell_volume                      4274.55472012

loop_
_atom_site_label
_atom_site_type_symbol
_atom_type_description
_atom_site_fract_x
_atom_site_fract_y
_atom_site_fract_z
_atom_type_partial_charge
C1    C     C_R   0.411676 0.103409 0.444059 0.857007
C2    C     C_R   0.781426 0.789011 0.645142 0.174752
C3    C     C_R   0.281322 0.711189 0.645426 0.172948
C4    C     C_R   0.281420 0.288998 0.645161 0.174760
C5    C     C_R   0.348274 0.739996 0.669074 -0.247664
C6    C     C_R   0.348407 0.260279 0.668754 -0.250559
C7    C     C_R   0.848275 0.239993 0.669069 -0.247664
C8    C     C_R   0.848416 0.760301 0.668724 -0.250551
C9    C     C_R   0.376947 0.777933 0.590134 -0.197674
C10   C     C_R   0.377038 0.222252 0.589842 -0.199103
C11   C     C_R   0.876947 0.277931 0.590129 -0.197674
C12   C     C_R   0.411696 0.896570 0.444090 0.857611
C13   C     C_R   0.877039 0.722263 0.589815 -0.199105
C14   C     C_R   0.676868 0.189749 0.518340 -0.255667
C15   C     C_R   0.676897 0.810307 0.518157 -0.257520
C16   C     C_R   0.176870 0.689746 0.518339 -0.255666
C17   C     C_R   0.176906 0.310319 0.518151 -0.257522
C18   C     C_R   0.685191 0.143790 0.701107 -0.202227
C19   C     C_R   0.685234 0.856198 0.700958 -0.202544
C20   C     C_R   0.185189 0.643794 0.701109 -0.202226
C21   C     C_R   0.185221 0.356176 0.700968 -0.202552
C22   C     C_R   0.362325 0.836099 0.409341 -0.123997
C23   C     C_R   0.911674 0.603406 0.444057 0.856999
C24   C     C_R   0.362311 0.163873 0.409203 -0.118479
C25   C     C_R   0.862323 0.336102 0.409339 -0.123992
C26   C     C_R   0.862299 0.663859 0.409195 -0.118467
C27   C     C_R   0.642742 0.989809 0.133654 -0.318090
C28   C     C_R   0.142742 0.489809 0.133654 -0.318096
C29   C     C_R   0.378851 0.998501 0.761804 -0.078812
C30   C     C_R   0.878851 0.498501 0.761804 -0.078806
C31   C     C_R   0.353073 0.984738 0.856367 -0.241123
C32   C     C_R   0.853073 0.484739 0.856367 -0.241122
C33   C     C_R   0.590775 0.899463 0.557586 0.849178
C34   C     C_R   0.911696 0.396571 0.444090 0.857605
C35   C     C_R   0.590785 0.100517 0.557614 0.849416
C36   C     C_R   0.090775 0.399462 0.557586 0.849182
C37   C     C_R   0.090785 0.600518 0.557614 0.849421
C38   C     C_R   0.398819 0.973484 0.951839 0.432599
C39   C     C_R   0.898819 0.473485 0.951839 0.432600
C40   C     C_R   0.471247 0.985461 0.953488 -0.121770
C41   C     C_R   0.971247 0.485461 0.953488 -0.121769
C42   C     C_R   0.494721 0.994072 0.853709 0.196838
C43   C     C_R   0.994721 0.494072 0.853709 0.196840
C44   C     C_R   0.521153 0.989621 0.048109 -0.009685
C45   C     C_R   0.744554 0.216355 0.538791 0.079010
C46   C     C_R   0.021153 0.489621 0.048109 -0.009683
C47   C     C_R   0.593001 0.988829 0.040765 0.214391
C48   C     C_R   0.093001 0.488829 0.040765 0.214394
C49   C     C_R   0.614379 0.989997 0.940857 -0.304753
C50   C     C_R   0.114380 0.489997 0.940857 -0.304761
C51   C     C_R   0.565696 0.995310 0.848788 -0.192734
C52   C     C_R   0.065696 0.495309 0.848788 -0.192741
C53   C     C_R   0.502905 0.999920 0.149876 -0.073963
C54   C     C_R   0.002905 0.499921 0.149876 -0.073956
C55   C     C_R   0.620835 0.994273 0.232607 0.010198
C56   C     C_R   0.744610 0.783766 0.538549 0.079248
C57   C     C_R   0.120835 0.494272 0.232607 0.010191
C58   C     C_R   0.750794 0.176097 0.726368 -0.195278
C59   C     C_R   0.750895 0.824042 0.726131 -0.199180
C60   C     C_R   0.250791 0.676101 0.726371 -0.195277
C61   C     C_R   0.250879 0.324014 0.726150 -0.199180
C62   C     C_R   0.649298 0.149111 0.595775 -0.047011
C63   C     C_R   0.649306 0.850871 0.595663 -0.045924
C64   C     C_R   0.149298 0.649112 0.595775 -0.047018
C65   C     C_R   0.149305 0.350868 0.595661 -0.045932
C66   C     C_R   0.331647 0.832852 0.300714 -0.181280
C67   C     C_R   0.244556 0.716353 0.538792 0.079009
C68   C     C_R   0.331653 0.167089 0.300544 -0.181431
C69   C     C_R   0.831642 0.332860 0.300714 -0.181284
C70   C     C_R   0.831627 0.667052 0.300542 -0.181435
C71   C     C_R   0.275448 0.785536 0.268811 -0.138567
C72   C     C_R   0.275468 0.214442 0.268613 -0.145173
C73   C     C_R   0.775440 0.285548 0.268811 -0.138567
C74   C     C_R   0.775430 0.714388 0.268614 -0.145173
C75   C     C_R   0.246534 0.745285 0.345701 -0.196545
C76   C     C_R   0.246566 0.254758 0.345473 -0.193307
C77   C     C_R   0.746527 0.245294 0.345700 -0.196546
C78   C     C_R   0.244617 0.283773 0.538556 0.079242
C79   C     C_R   0.746533 0.754713 0.345471 -0.193306
C80   C     C_R   0.275869 0.749289 0.456249 0.087713
C81   C     C_R   0.275914 0.250803 0.456014 0.087247
C82   C     C_R   0.775866 0.249293 0.456248 0.087713
C83   C     C_R   0.775897 0.750783 0.456007 0.087247
C84   C     C_R   0.339108 0.787838 0.485501 0.084191
C85   C     C_R   0.339143 0.212239 0.485279 0.082852
C86   C     C_R   0.839106 0.287840 0.485498 0.084192
C87   C     C_R   0.839133 0.712232 0.485265 0.082852
C88   C     C_R   0.781322 0.211187 0.645422 0.172948
H1    H     H_    0.664220 0.111843 0.761996 0.149107
H2    H     H_    0.950397 0.509586 0.162379 0.179331
H3    H     H_    0.343646 0.003074 0.686495 0.170911
H4    H     H_    0.843646 0.503075 0.686495 0.170908
H5    H     H_    0.297890 0.977587 0.854101 0.175093
H6    H     H_    0.797890 0.477588 0.854101 0.175092
H7    H     H_    0.585035 0.000571 0.774639 0.206200
H8    H     H_    0.085035 0.500570 0.774639 0.206204
H9    H     H_    0.378052 0.734418 0.749091 0.151446
H10   H     H_    0.378224 0.265949 0.748727 0.150446
H11   H     H_    0.878055 0.234413 0.749084 0.151446
H12   H     H_    0.664249 0.888055 0.761878 0.151192
H13   H     H_    0.878242 0.765987 0.748688 0.150448
H14   H     H_    0.778629 0.171162 0.807766 0.137359
H15   H     H_    0.778756 0.829023 0.807508 0.135528
H16   H     H_    0.278624 0.671169 0.807772 0.137359
H17   H     H_    0.278730 0.328978 0.807537 0.135525
H18   H     H_    0.644891 0.197549 0.440904 0.149470
H19   H     H_    0.644915 0.802508 0.440721 0.149077
H20   H     H_    0.144895 0.697544 0.440901 0.149474
H21   H     H_    0.144934 0.302532 0.440704 0.149093
H22   H     H_    0.349775 0.868603 0.240919 0.180929
H23   H     H_    0.164216 0.611850 0.761999 0.149112
H24   H     H_    0.349814 0.131333 0.240710 0.164657
H25   H     H_    0.849769 0.368612 0.240920 0.180931
H26   H     H_    0.849784 0.631288 0.240714 0.164659
H27   H     H_    0.702425 0.210118 0.316091 0.136022
H28   H     H_    0.702436 0.789900 0.315852 0.134846
H29   H     H_    0.202434 0.710105 0.316091 0.136022
H30   H     H_    0.202479 0.289960 0.315853 0.134842
H31   H     H_    0.252393 0.782448 0.184748 0.152569
H32   H     H_    0.252419 0.217527 0.184549 0.145709
H33   H     H_    0.752383 0.282464 0.184749 0.152570
H34   H     H_    0.164227 0.388020 0.761893 0.151208
H35   H     H_    0.752368 0.717453 0.184555 0.145717
H36   H     H_    0.429440 0.798492 0.611600 0.171937
H37   H     H_    0.429534 0.201690 0.611267 0.172123
H38   H     H_    0.929440 0.298488 0.611593 0.171934
H39   H     H_    0.929538 0.701706 0.611231 0.172107
H40   H     H_    0.658129 0.993866 0.306041 0.142309
H41   H     H_    0.158129 0.493865 0.306041 0.142306
H42   H     H_    0.404973 0.905348 0.072366 0.321109
H43   H     H_    0.904973 0.405348 0.072366 0.321109
H44   H     H_    0.668920 0.990408 0.933981 0.145720
H45   H     H_    0.168920 0.490407 0.933981 0.145724
H46   H     H_    0.697634 0.987771 0.129650 0.145355
H47   H     H_    0.197633 0.487770 0.129650 0.145353
H48   H     H_    0.450397 0.009585 0.162380 0.179334
N1    N     N_R   0.552340 0.000000 0.237260 -0.108135
N2    N     N_R   0.052340 0.500000 0.237260 -0.108133
N3    N     N_R   0.448170 0.000000 0.762060 -0.128202
N4    N     N_R   0.948170 0.500000 0.762060 -0.128200
O1    O     O_R   0.448200 0.076800 0.373930 -0.612511
O2    O     O_R   0.585240 0.076800 0.457600 -0.610362
O3    O     O_R   0.085240 0.423200 0.457600 -0.612573
O4    O     O_R   0.085240 0.576800 0.457600 -0.610362
O5    O     O_R   0.551780 0.923190 0.626070 -0.638295
O6    O     O_R   0.551780 0.076810 0.626070 -0.640148
O7    O     O_R   0.051780 0.423190 0.626070 -0.638296
O8    O     O_R   0.051780 0.576810 0.626070 -0.640143
O9    O     O_3   0.371369 0.943222 0.036688 -0.798488
O10   O     O_3   0.871368 0.443223 0.036688 -0.798493
O11   O     O_R   0.448200 0.923200 0.373930 -0.610686
O12   O     O_R   0.948200 0.576800 0.373930 -0.612511
O13   O     O_R   0.948200 0.423200 0.373930 -0.610688
O14   O     O_R   0.414750 0.076790 0.542400 -0.610217
O15   O     O_R   0.414750 0.923210 0.542400 -0.608223
O16   O     O_R   0.914750 0.576790 0.542400 -0.610210
O17   O     O_R   0.914750 0.423210 0.542400 -0.608224
O18   O     O_R   0.585240 0.923200 0.457600 -0.612568
Zn1   Zn    Zn3+2 0.522330 0.000000 0.387520 0.938679
Zn2   Zn    Zn3+2 0.022330 0.500000 0.387520 0.938678
Zn3   Zn    Zn3+2 0.477660 0.000000 0.612480 0.925559
Zn4   Zn    Zn3+2 0.977660 0.500000 0.612480 0.925564

loop_
_geom_bond_atom_site_label_1
_geom_bond_atom_site_label_2
_ccdc_geom_bond_type
C83   C87   A    
C23   O12   A    
O12   Zn2   S    
C10   C85   A    
C8    C13   A    
C37   O4    A    
C28   H47   S    
C9    C84   A    
O14   Zn3   S    
C32   H6    S    
C45   C82   A    
C75   H29   S    
O2    Zn1   S    
C80   C84   A    
O3    Zn2   S    
C39   C41   A    
C28   C57   A    
O15   Zn3   S    
C7    C11   A    
C39   O10   S    
C69   H25   S    
C7    H11   S    
C53   N1    A    
C6    H10   S    
C57   H41   S    
C36   O3    A    
C54   H2    S    
C27   C55   A    
C43   C52   A    
C23   C26   S    
C11   C86   A    
N4    Zn4   S    
C14   C62   A    
C12   C22   S    
C9    H36   S    
C4    C78   A    
C68   H24   S    
C32   C39   A    
C15   H19   S    
C21   H34   S    
C22   C66   A    
C44   C53   A    
C18   C58   A    
C7    C88   A    
C19   C63   A    
C26   C87   A    
C49   C51   A    
C70   C74   A    
C50   C52   A    
C41   C46   A    
C69   C73   A    
C58   H14   S    
O4    Zn2   S    
C10   H37   S    
C61   H17   S    
C8    H13   S    
C38   O9    S    
C21   C61   A    
C44   C47   A    
C68   C72   A    
C42   C51   A    
C13   C87   A    
C3    C60   A    
C40   C42   A    
C74   H35   S    
O16   Zn4   S    
C23   O16   A    
C41   C43   A    
C12   O11   A    
C72   H32   S    
C53   H48   S    
C49   H44   S    
O1    Zn1   S    
C14   C45   A    
C29   N3    A    
O6    Zn3   S    
C46   C48   A    
C71   C75   A    
C30   N4    A    
N1    Zn1   S    
C30   C32   A    
N3    Zn3   S    
C11   H38   S    
C47   C49   A    
C24   C68   A    
C2    C59   A    
C18   C62   A    
C18   H1    S    
C19   C59   A    
C82   C86   A    
C4    C61   A    
O7    Zn4   S    
C70   H26   S    
C17   H21   S    
C35   O6    A    
C22   C84   A    
C20   C64   A    
C5    C9    A    
C13   H39   S    
C20   H23   S    
C36   O7    A    
C66   C71   A    
C40   C44   A    
C33   C63   S    
C46   C54   A    
H42   O9    S    
C60   H16   S    
C43   N4    A    
C16   C67   A    
C66   H22   S    
C33   O5    A    
C45   C88   A    
C4    C6    A    
C5    H9    S    
C73   H33   S    
C74   C79   A    
O18   Zn1   S    
C26   C70   A    
C25   C86   A    
C25   C69   A    
C12   O15   A    
C29   H3    S    
C37   C64   S    
C33   O18   A    
C56   C83   A    
C24   C85   A    
C34   O13   A    
C27   C47   A    
C28   C48   A    
C73   C77   A    
C21   C65   A    
C42   N3    A    
C36   C65   S    
C27   H46   S    
C3    C67   A    
C67   C80   A    
C3    C5    A    
C50   H45   S    
C58   C88   A    
C76   C81   A    
C6    C10   A    
C19   H12   S    
C25   C34   S    
C17   C65   A    
C55   N1    A    
C31   C38   A    
C71   H31   S    
C59   H15   S    
C15   C56   A    
O13   Zn2   S    
O8    Zn4   S    
C29   C31   A    
C31   H5    S    
C38   C40   A    
C78   C81   A    
C54   N2    A    
O5    Zn3   S    
C77   C82   A    
C72   C76   A    
C79   H28   S    
C48   C50   A    
C17   C78   A    
O11   Zn1   S    
C57   N2    A    
C52   H8    S    
C35   C62   S    
C37   O8    A    
C1    O14   A    
C76   H30   S    
C1    O1    A    
C16   H20   S    
C35   O2    A    
C79   C83   A    
C34   O17   A    
N2    Zn2   S    
C14   H18   S    
C75   C80   A    
C55   H40   S    
C1    C24   S    
C2    C8    A    
C15   C63   A    
H43   O10   S    
C2    C56   A    
C16   C64   A    
C20   C60   A    
C77   H27   S    
O17   Zn4   S    
C81   C85   A    
C51   H7    S    
C30   H4    S    
