data_mof_unit_16753.cif
_audit_creation_date              2012-12-10T17:55:50-0500
_audit_creation_method            fapswitch 2.2
_symmetry_space_group_name_H-M    P1
_symmetry_Int_Tables_number       1
_space_group_crystal_system       triclinic
_cell_length_a                    11.054307
_cell_length_b                    10.895258
_cell_length_c                    9.663083
_cell_angle_alpha                 91.158629
_cell_angle_beta                  103.407057
_cell_angle_gamma                 100.297308
_cell_volume                      1111.55114694

loop_
_atom_site_label
_atom_site_type_symbol
_atom_type_description
_atom_site_fract_x
_atom_site_fract_y
_atom_site_fract_z
_atom_type_partial_charge
C1    C     C_R   0.509265 0.264107 0.500904 0.905181
C2    C     C_R   0.491339 0.736119 0.499328 0.904169
C3    C     C_R   0.262903 0.501167 0.441485 0.900485
C4    C     C_R   0.737135 0.499013 0.558534 0.899918
C5    C     C_R   0.407996 0.416085 0.048438 0.320815
C6    C     C_R   0.591683 0.584077 0.951387 0.351987
C7    C     C_R   0.409783 0.415421 0.898171 0.335878
C8    C     C_R   0.590169 0.584738 0.101790 0.337158
C9    C     C_2   0.127141 0.500887 0.408744 -0.259719
C10   C     C_2   0.873025 0.500020 0.591326 -0.261715
C11   C     C_2   0.068074 0.502885 0.514951 -0.116750
C12   C     C_2   0.932327 0.499367 0.485167 -0.110624
C13   C     C_R   0.492904 0.058153 0.370654 0.227126
C14   C     C_R   0.510243 0.942579 0.630526 0.248963
C15   C     C_R   0.464388 0.928359 0.370154 0.245044
C16   C     C_R   0.537620 0.072471 0.630849 0.241774
C17   C     C_R   0.483764 0.869576 0.500295 -0.314820
C18   C     C_R   0.518183 0.131043 0.500585 -0.308402
Cu1   Cu    Cu3+1 0.500000 0.500020 0.640660 1.145264
Cu2   Cu    Cu3+1 0.500000 0.499980 0.359340 1.143761
H1    H     H_    0.880556 0.496225 0.374381 0.220944
H2    H     H_    0.119983 0.506822 0.625744 0.219772
H3    H     H_    0.924904 0.502357 0.701942 0.206499
H4    H     H_    0.075113 0.497922 0.298126 0.207809
N1    N     N_R   0.500030 0.500030 0.852080 -0.316267
N2    N     N_R   0.499970 0.499970 0.147920 -0.311204
O1    O     O_R   0.499990 0.319660 0.618740 -0.502099
O2    O     O_R   0.500010 0.680340 0.381260 -0.500572
O3    O     O_R   0.499990 0.319630 0.381170 -0.527801
O4    O     O_R   0.500010 0.680370 0.618830 -0.527315
O5    O     O_R   0.320690 0.500020 0.575130 -0.549727
O6    O     O_R   0.679310 0.499980 0.424870 -0.547407
O7    O     O_R   0.320680 0.499990 0.337560 -0.513150
O8    O     O_R   0.679320 0.500010 0.662440 -0.516735
S1    S     S_3+6 0.269013 0.322671 0.098531 0.133183
O9    O     O_2   0.286203 0.287568 0.249305 -0.284726
O10   O     O_2   0.168103 0.401166 0.071229 -0.228213
O11   O     O_3   0.204150 0.183405 0.009319 -0.389453
H5    H     H_    0.246773 0.120769 0.063979 0.391876
S2    S     S_3+6 0.728859 0.680197 0.901017 0.127913
O12   O     O_2   0.834907 0.608136 0.936597 -0.271506
O13   O     O_2   0.714029 0.711937 0.749465 -0.266835
O14   O     O_3   0.781034 0.823064 0.984670 -0.387121
H6    H     H_    0.868033 0.849733 0.971757 0.392758
S3    S     S_3+6 0.294855 0.295210 0.776754 0.106448
O15   O     O_2   0.325277 0.172036 0.826696 -0.219159
O16   O     O_2   0.164999 0.307322 0.791495 -0.230463
O17   O     O_3   0.276764 0.279878 0.599880 -0.509938
H7    H     H_    0.211640 0.203438 0.566906 0.372102
S4    S     S_3+6 0.703692 0.706675 0.222929 0.109969
O18   O     O_2   0.834112 0.700189 0.205678 -0.257500
O19   O     O_2   0.668653 0.828825 0.175338 -0.177268
O20   O     O_3   0.723871 0.719610 0.400223 -0.513119
H8    H     H_    0.786164 0.798003 0.433128 0.371021
Br1   Br    Br    0.516901 0.128132 0.193931 -0.303464
Br2   Br    Br    0.490767 0.872786 0.808808 -0.244454
Br3   Br    Br    0.378049 0.836292 0.189719 -0.322525
Br4   Br    Br    0.621953 0.165456 0.811417 -0.277767

loop_
_geom_bond_atom_site_label_1
_geom_bond_atom_site_label_2
_ccdc_geom_bond_type
C14   Br2   S    
C11   C12   S    
C5    C7    A    
C9    H4    S    
C3    C9    S    
C8    S4    S    
C10   H3    S    
C4    O8    A    
Cu1   O1    S    
C11   H2    S    
S4    O19   D    
S1    O9    D    
C7    N1    A    
C13   C15   A    
C2    O4    A    
Cu1   O5    S    
C1    O3    A    
S4    O18   D    
Cu2   N2    S    
C16   C18   A    
C16   Br4   S    
O20   H8    S    
C2    C17   S    
C3    O5    A    
C15   Br3   S    
C14   C17   A    
C1    C18   S    
C4    O6    A    
C10   C12   D    
C13   C18   A    
Cu2   O7    S    
C5    S1    S    
S2    O13   D    
S2    O12   D    
S1    O10   D    
C14   C16   A    
Cu2   O3    S    
C9    C11   D    
O14   H6    S    
O11   H5    S    
Cu1   N1    S    
C6    S2    S    
S3    O17   S    
C6    N1    A    
C2    O2    A    
C3    O7    A    
C4    C10   S    
C5    N2    A    
S4    O20   S    
C7    S3    S    
S1    O11   S    
C8    N2    A    
C1    O1    A    
Cu2   O6    S    
S3    O16   D    
C15   C17   A    
O17   H7    S    
C6    C8    A    
Cu2   O2    S    
S3    O15   D    
Cu1   O4    S    
C12   H1    S    
S2    O14   S    
Cu1   Cu2   S    
C13   Br1   S    
Cu1   O8    S    
