data_mof_unit_17568.cif
_audit_creation_date              2013-03-05T15:46:54-0500
_audit_creation_method            fapswitch 2.2
_symmetry_space_group_name_H-M    P1
_symmetry_Int_Tables_number       1
_space_group_crystal_system       triclinic
_cell_length_a                    18.333711
_cell_length_b                    18.430818
_cell_length_c                    18.233169
_cell_angle_alpha                 89.939004
_cell_angle_beta                  119.793328
_cell_angle_gamma                 120.428755
_cell_volume                      4344.08259554

loop_
_atom_site_label
_atom_site_type_symbol
_atom_site_description
_atom_site_fract_x
_atom_site_fract_y
_atom_site_fract_z
_atom_type_partial_charge
Zn1   Zn    Zn3+2 0.086760 0.130530 0.543760 1.109619
Zn2   Zn    Zn3+2 0.086760 0.956230 0.542990 1.082038
Zn3   Zn    Zn3+2 0.913250 0.956230 0.369490 1.057223
Zn4   Zn    Zn3+2 0.913230 0.957020 0.543760 1.024623
O1    O     O_3   0.000000 0.000000 0.500000 -0.527490
O2    O     O_R   0.939250 0.884470 0.616070 -0.640016
O3    O     O_R   0.060740 0.176800 0.445190 -0.586477
O4    O     O_R   0.231610 0.054800 0.615530 -0.593883
O5    O     O_R   0.768390 0.883920 0.323210 -0.613029
O6    O     O_R   0.060730 0.883140 0.443890 -0.591605
O7    O     O_R   0.939260 0.056140 0.616830 -0.665494
O8    O     O_R   0.939300 0.883140 0.322450 -0.637224
O9    O     O_R   0.060710 0.177580 0.616830 -0.574576
O10   O     O_R   0.231620 0.176800 0.616070 -0.612369
O11   O     O_R   0.768380 0.884480 0.445190 -0.666568
O12   O     O_R   0.060710 0.883920 0.615530 -0.641446
O13   O     O_R   0.939300 0.054810 0.323210 -0.643016
C1    C     C_R   0.003383 0.864261 0.644654 0.842280
C2    C     C_R   0.001737 0.139933 0.360007 0.997601
C3    C     C_R   0.279609 0.139760 0.637316 1.014670
C4    C     C_R   0.720121 0.857818 0.359681 0.885982
C5    C     C_R   0.999292 0.858929 0.358933 0.910285
C6    C     C_R   0.997031 0.140964 0.638525 0.910489
C7    C     C_3   0.890571 0.143300 0.689629 0.136293
C8    C     C_3   0.901193 0.203760 0.759442 0.181562
H1    H     H_    0.834014 0.207541 0.722560 0.236435
C9    C     C_3   0.097040 0.236949 0.797842 0.286732
C10   C     C_3   0.002589 0.279316 0.662740 -0.336462
C11   C     C_3   0.997536 0.198388 0.697391 -0.287961
H2    H     H_    0.932665 0.249711 0.592836 0.202324
C12   C     C_3   0.002010 0.302497 0.801799 -0.201456
C13   C     C_3   0.103087 0.303974 0.860544 0.100193
C14   C     C_3   0.999057 0.338369 0.721703 0.663064
C15   C     C_R   0.188128 0.254379 0.359995 0.369467
C16   C     C_R   0.278273 0.314877 0.364009 0.298070
C17   C     C_R   0.272145 0.355408 0.298470 -0.083975
C18   C     C_R   0.179315 0.346695 0.236387 -0.072915
C19   C     C_R   0.093845 0.300998 0.244433 -0.060357
C20   C     C_R   0.096932 0.250963 0.304230 -0.066383
C21   C     C_R   0.006903 0.196193 0.303794 -0.109183
C22   C     C_R   0.918039 0.193583 0.249186 0.418437
C23   C     C_R   0.919295 0.251706 0.199488 -0.121176
C24   C     C_R   0.005169 0.303082 0.195076 -0.126968
H3    H     H_    0.599283 0.860592 0.202394 0.172169
C25   C     C_R   0.594815 0.689620 0.389117 0.004444
C26   C     C_R   0.539968 0.635693 0.422374 -0.509579
H4    H     H_    0.569552 0.604454 0.467450 0.135686
C27   C     C_R   0.449426 0.624705 0.400804 0.509752
C28   C     C_R   0.408693 0.661123 0.339007 0.533830
C29   C     C_R   0.450088 0.697106 0.288763 -0.222684
C30   C     C_R   0.552911 0.727488 0.326960 0.044953
C31   C     C_R   0.608393 0.795168 0.301550 -0.048620
C32   C     C_R   0.556122 0.809843 0.222588 -0.298100
C33   C     C_R   0.448543 0.759879 0.169444 0.459652
C34   C     C_R   0.394281 0.702593 0.201947 -0.127992
C35   C     C_R   0.846462 0.778206 0.693413 -0.073799
C36   C     C_R   0.746360 0.705608 0.666826 -0.179073
C37   C     C_R   0.727862 0.621734 0.671210 0.017875
C38   C     C_R   0.812285 0.616717 0.713974 -0.096917
H5    H     H_    0.800353 0.554777 0.723522 0.166290
C39   C     C_R   0.911481 0.690082 0.742579 -0.047433
C40   C     C_R   0.922187 0.762849 0.714027 0.085044
C41   C     C_R   0.010110 0.818043 0.711708 -0.163791
C42   C     C_R   0.099496 0.819655 0.766757 -0.164920
C43   C     C_R   0.096373 0.761675 0.817464 0.456827
C44   C     C_R   0.000931 0.694292 0.801716 -0.135747
C45   C     C_R   0.902289 0.668340 0.341181 0.334188
C46   C     C_R   0.858254 0.576494 0.331067 0.413750
C47   C     C_R   0.869389 0.528598 0.283757 -0.134182
H6    H     H_    0.837268 0.458929 0.277107 0.219063
C48   C     C_R   0.916944 0.567667 0.241125 -0.252233
H7    H     H_    0.919620 0.525438 0.202827 0.170275
C49   C     C_R   0.956904 0.657510 0.245584 0.041842
C50   C     C_R   0.951383 0.709450 0.296929 0.013924
C51   C     C_R   0.995395 0.800587 0.302088 -0.137074
C52   C     C_R   0.038688 0.838103 0.254152 -0.089499
C53   C     C_R   0.036674 0.783615 0.198370 -0.075901
C54   C     C_R   0.999568 0.695237 0.197377 -0.100954
C55   C     C_R   0.393814 0.138138 0.566188 0.386107
C56   C     C_R   0.450591 0.136138 0.535827 -0.155992
C57   C     C_R   0.557671 0.202565 0.584090 -0.083941
C58   C     C_R   0.609429 0.265742 0.667013 -0.038828
C59   C     C_R   0.555897 0.256220 0.707089 -0.082051
C60   C     C_R   0.446157 0.195400 0.654125 0.033316
C61   C     C_R   0.392216 0.195469 0.690307 -0.168396
C62   C     C_R   0.445940 0.249686 0.778719 -0.117716
C63   C     C_R   0.553458 0.302475 0.833303 0.386702
C64   C     C_R   0.608259 0.305375 0.798453 -0.117555
Zn5   Zn    Zn3+2 0.913240 0.369500 0.956210 1.026111
Zn6   Zn    Zn3+2 0.086750 0.543800 0.130490 1.036599
Zn7   Zn    Zn3+2 0.913240 0.543800 0.956980 1.006615
Zn8   Zn    Zn3+2 0.086770 0.543010 0.956210 1.099854
O14   O     O_3   0.000000 0.500030 0.999970 -0.535658
O15   O     O_R   0.231620 0.615550 0.054780 -0.577349
O16   O     O_R   0.768380 0.323230 0.883900 -0.617829
O17   O     O_R   0.060700 0.445220 0.176760 -0.584732
O18   O     O_R   0.939290 0.616110 0.884440 -0.653841
O19   O     O_R   0.060700 0.616880 0.177520 -0.628842
O20   O     O_R   0.060740 0.443890 0.883140 -0.608310
O21   O     O_R   0.939270 0.616890 0.056080 -0.626149
O22   O     O_R   0.939290 0.322450 0.883140 -0.574768
O23   O     O_R   0.939260 0.323230 0.054780 -0.657632
O24   O     O_R   0.060750 0.615550 0.883900 -0.554623
O25   O     O_R   0.231610 0.616100 0.176760 -0.612491
O26   O     O_R   0.768390 0.445230 0.884440 -0.618666
C65   C     C_R   0.280753 0.642444 0.141308 0.906964
C66   C     C_R   0.720417 0.360281 0.859680 0.747914
C67   C     C_R   0.000495 0.360147 0.139971 0.747645
C68   C     C_R   0.999208 0.638419 0.858443 0.849207
C69   C     C_R   0.000032 0.640486 0.140975 0.748198
C70   C     C_R   0.999873 0.359141 0.858346 0.918151
C71   C     C_2   0.854726 0.051486 0.701043 0.597101
H8    H     H_    0.904666 0.042098 0.757754 -0.005599
O27   O     O_2   0.766310 0.985965 0.646245 -0.537618
O28   O     O_3   0.084355 0.428431 0.756508 -0.699984
H9    H     H_    0.070541 0.454233 0.707408 0.380068
O29   O     O_3   0.185474 0.281771 0.796444 -0.715755
H10   H     H_    0.246567 0.297710 0.856577 0.373706
C72   C     C_2   0.202404 0.400230 0.905976 0.610765
H11   H     H_    0.230410 0.440505 0.969469 0.069989
O30   O     O_2   0.250350 0.435315 0.873320 -0.526451
O31   O     O_3   0.831617 0.134753 0.248142 -0.733390
H12   H     H_    0.768942 0.114828 0.187874 0.366493
O32   O     O_3   0.187732 0.196048 0.407583 -0.793149
H13   H     H_    0.236870 0.183619 0.414201 0.351129
O33   O     O_3   0.372211 0.330387 0.428035 -0.771124
H14   H     H_    0.374105 0.321272 0.482386 0.368961
C73   C     C_2   0.364396 0.403342 0.295404 0.583534
H15   H     H_    0.441483 0.439584 0.357297 0.091519
O34   O     O_2   0.355745 0.398668 0.224415 -0.523873
C74   C     C_2   0.171076 0.380795 0.160944 0.517499
H16   H     H_    0.105033 0.337481 0.092955 0.028463
O35   O     O_2   0.235998 0.457766 0.174387 -0.581929
C75   C     C_2   0.833488 0.262970 0.156421 0.401043
H17   H     H_    0.811640 0.279947 0.095543 0.067822
O36   O     O_2   0.788651 0.256684 0.190649 -0.511520
O37   O     O_3   0.809234 0.127816 0.603719 -0.773227
H18   H     H_    0.803578 0.092772 0.557451 0.361429
C76   C     C_2   0.687204 0.694054 0.412568 0.451541
H19   H     H_    0.732373 0.687930 0.476028 0.043053
O38   O     O_2   0.710228 0.699184 0.359474 -0.546298
O39   O     O_3   0.400347 0.580812 0.440674 -0.678580
H20   H     H_    0.435408 0.555482 0.479250 0.329825
O40   O     O_3   0.342431 0.674469 0.341753 -0.662084
H21   H     H_    0.350551 0.727398 0.323535 0.328987
O41   O     O_3   0.395633 0.770018 0.088547 -0.709929
H22   H     H_    0.445478 0.812486 0.075967 0.352973
C77   C     C_2   0.196984 0.884496 0.775039 0.478665
H23   H     H_    0.218257 0.950841 0.773209 0.102114
O42   O     O_2   0.253119 0.863728 0.781961 -0.510209
C78   C     C_2   0.879775 0.870796 0.725152 0.518223
H24   H     H_    0.823508 0.885247 0.702962 0.062551
O43   O     O_2   0.970918 0.931405 0.780083 -0.532418
C79   C     C_2   0.665095 0.720034 0.640568 0.352124
H25   H     H_    0.658469 0.763801 0.601829 0.104639
O44   O     O_2   0.607330 0.685863 0.664462 -0.506481
C80   C     C_2   0.622865 0.539918 0.635033 0.488018
H26   H     H_    0.554800 0.538708 0.592823 0.092970
O45   O     O_2   0.610797 0.471777 0.650954 -0.584690
O46   O     O_3   0.184926 0.770164 0.883803 -0.680705
H27   H     H_    0.244679 0.833667 0.910230 0.361520
C81   C     C_2   0.090417 0.935624 0.266684 0.441654
H28   H     H_    0.061940 0.970295 0.278350 0.066776
O47   O     O_2   0.168054 0.979189 0.267567 -0.518653
O48   O     O_3   0.896217 0.717207 0.392432 -0.745082
H29   H     H_    0.902812 0.696337 0.444071 0.339659
O49   O     O_3   0.801790 0.530648 0.364697 -0.717437
H30   H     H_    0.770739 0.559824 0.369476 0.362946
C82   C     C_2   0.071287 0.817056 0.139208 0.587430
H31   H     H_    0.112763 0.797218 0.128561 0.010578
O50   O     O_2   0.049468 0.863478 0.098599 -0.495612
C83   C     C_2   0.392090 0.249532 0.819151 0.512487
H32   H     H_    0.428062 0.309208 0.870633 0.139348
O51   O     O_2   0.309950 0.182526 0.798681 -0.559591
O52   O     O_3   0.286964 0.084353 0.510142 -0.801109
H33   H     H_    0.262873 0.071530 0.446662 0.323676
C84   C     C_2   0.395007 0.063569 0.452348 0.425338
H34   H     H_    0.331051 0.997095 0.437441 0.106771
O53   O     O_2   0.416805 0.077554 0.398127 -0.505809
O54   O     O_3   0.890099 0.166686 0.824287 -0.706957
H35   H     H_    0.938068 0.149604 0.853599 0.355521
C85   C     C_2   0.615012 0.205392 0.547045 0.609256
H36   H     H_    0.608406 0.145829 0.526799 0.089487
O55   O     O_2   0.666395 0.273022 0.535550 -0.492829
C86   C     C_2   0.717264 0.344473 0.707570 0.505885
H37   H     H_    0.737641 0.410924 0.726797 0.065865
O56   O     O_2   0.784425 0.335497 0.722742 -0.563500
O57   O     O_3   0.602405 0.349527 0.921601 -0.765557
H38   H     H_    0.672689 0.364094 0.960241 0.331949
C87   C     C_2   0.094522 0.159992 0.831839 0.433214
H39   H     H_    0.068860 0.138267 0.874839 0.123000
O58   O     O_2   0.121128 0.120115 0.810013 -0.484768
O59   O     O_3   0.106167 0.274182 0.932823 -0.829868
H40   H     H_    0.106913 0.313256 0.970836 0.328357
C88   C     C_2   0.090240 0.335468 0.651817 0.595449
H41   H     H_    0.170000 0.378157 0.709160 0.192388
O60   O     O_2   0.071406 0.335037 0.577377 -0.544581
O61   O     O_3   0.909199 0.336865 0.670418 -0.703639
H42   H     H_    0.848953 0.276999 0.625559 0.369804

loop_
_geom_bond_atom_site_label_1
_geom_bond_atom_site_label_2
_geom_bond_distance
_ccdc_geom_bond_type
C8    C12   1.581716 S    
C63   C64   1.412808 A    
O21   C69   1.274066 A    
O48   H29   0.991112 S    
O19   C69   1.274163 A    
Zn5   O23   1.934352 S    
C9    C11   1.598990 S    
C22   C23   1.401042 A    
Zn7   O26   1.931309 S    
C52   C81   1.497038 S    
C16   C17   1.395826 A    
C7    C71   1.532135 S    
C18   C74   1.482507 S    
C73   H15   1.085141 S    
O25   C65   1.265021 A    
C57   C58   1.414584 A    
C36   C37   1.416594 A    
C8    O54   1.415153 S    
C53   C54   1.407751 A    
C83   H32   1.085391 S    
O26   C66   1.280933 A    
O4    C3    1.281527 A    
Zn1   O1    1.954782 S    
C6    C11   1.501615 S    
C10   C11   1.596459 S    
C77   O42   1.221265 D    
O41   H22   0.991840 S    
C47   H6    1.083375 S    
C19   C20   1.425410 A    
C1    C41   1.479846 S    
C86   O56   1.219726 D    
C25   C30   1.427579 A    
O28   H9    0.993750 S    
C28   O40   1.379115 S    
O8    C5    1.273097 A    
C25   C76   1.482810 S    
C10   C88   1.525161 S    
C35   C36   1.422454 A    
O9    C6    1.278747 A    
C15   C16   1.411878 A    
C49   C50   1.413272 A    
O7    C6    1.276761 A    
C15   C20   1.427357 A    
C47   C48   1.385352 A    
C7    C11   1.613798 S    
Zn3   O8    1.959500 S    
Zn8   O24   1.941809 S    
C85   H36   1.085278 S    
C39   C44   1.404335 A    
C80   H26   1.080501 S    
O15   C65   1.297430 A    
C59   C60   1.422709 A    
C32   C33   1.392809 A    
C46   C47   1.387163 A    
C84   O53   1.221169 D    
C15   O32   1.380273 S    
C49   C54   1.413824 A    
C12   C14   1.590105 S    
O23   C67   1.277368 A    
O61   H42   0.987972 S    
C9    C87   1.535725 S    
Zn7   O21   1.950499 S    
Zn2   O12   1.932065 S    
C79   O44   1.220799 D    
C33   O41   1.383006 S    
C45   O48   1.379688 S    
C9    O29   1.412847 S    
C59   C64   1.431956 A    
O17   C67   1.280704 A    
C38   H5    1.079754 S    
C80   O45   1.221513 D    
C42   C77   1.487971 S    
C78   O43   1.221347 D    
C82   O50   1.221178 D    
C17   C73   1.491465 S    
C57   C85   1.488022 S    
C43   O46   1.383825 S    
H3    C32   1.084297 S    
C71   O27   1.222492 D    
C71   H8    1.075505 S    
C83   O51   1.221028 D    
C81   O47   1.220870 D    
C52   C53   1.404150 A    
C72   O30   1.220210 D    
O2    C1    1.275570 A    
C76   H19   1.086070 S    
C26   C27   1.400736 A    
C14   O28   1.410757 S    
C38   C39   1.405640 A    
C50   C51   1.425979 A    
C58   C86   1.484786 S    
C30   C31   1.409666 A    
C82   H31   1.085387 S    
O10   C3    1.288157 A    
C60   C61   1.436259 A    
Zn4   O2    1.941958 S    
O49   H30   0.990096 S    
C48   C49   1.413352 A    
C64   C66   1.453275 S    
C62   C63   1.390181 A    
O40   H21   0.992728 S    
C75   O36   1.221396 D    
C34   C65   1.470408 S    
C74   O35   1.220559 D    
C8    H1    1.112558 S    
C61   C62   1.412774 A    
O6    C5    1.275078 A    
Zn7   O18   1.932063 S    
C45   C46   1.421181 A    
C13   O59   1.413300 S    
O57   H38   0.988272 S    
Zn4   O7    1.957151 S    
C22   O31   1.384325 S    
Zn5   O16   1.935851 S    
C16   O33   1.383715 S    
C51   C52   1.415703 A    
C87   H39   1.082323 S    
C18   C19   1.441417 A    
Zn3   O5    1.931758 S    
C55   O52   1.382123 S    
Zn7   O14   1.963349 S    
O18   C68   1.288412 A    
O52   H33   0.988653 S    
O11   C4    1.282771 A    
C78   H24   1.078005 S    
O20   C70   1.274379 A    
C3    C61   1.456931 S    
C40   C41   1.428864 A    
Zn8   O15   1.932794 S    
C29   C30   1.406827 A    
C27   O39   1.379852 S    
C54   C69   1.447600 S    
C45   C50   1.436946 A    
C26   H4    1.083288 S    
C31   C32   1.398211 A    
C7    C8    1.561030 S    
C35   C78   1.488365 S    
Zn6   O25   1.931802 S    
C79   H25   1.084969 S    
C75   H17   1.083902 S    
O16   C66   1.286974 A    
C84   H34   1.085653 S    
C53   C82   1.492944 S    
C21   C22   1.398806 A    
C10   C14   1.577242 S    
C58   C59   1.437318 A    
O3    C2    1.277602 A    
C28   C29   1.426476 A    
C62   C83   1.496194 S    
C55   C56   1.415234 A    
Zn2   O1    1.963352 S    
Zn1   O9    1.951763 S    
C23   C24   1.413299 A    
C13   C72   1.543096 S    
C5    C51   1.444512 S    
C74   H16   1.082364 S    
Zn2   O6    1.950496 S    
C20   C21   1.429228 A    
O54   H35   0.985502 S    
Zn6   O14   1.946001 S    
C81   H28   1.083871 S    
C36   C79   1.487225 S    
C33   C34   1.405792 A    
C17   C18   1.418718 A    
C87   O58   1.221953 D    
Zn5   O22   1.951764 S    
C9    C13   1.607368 S    
Zn1   O3    1.934355 S    
C12   C13   1.599540 S    
Zn2   O4    1.931308 S    
C56   C57   1.406518 A    
Zn3   O1    1.945852 S    
C37   C80   1.488120 S    
C73   O34   1.220783 D    
C72   H11   1.086238 S    
Zn6   O17   1.938858 S    
C63   O57   1.388622 S    
C7    O37   1.416844 S    
O22   C70   1.277831 A    
O37   H18   0.992967 S    
C29   C34   1.434501 A    
C23   C75   1.495810 S    
O24   C68   1.275536 A    
C56   C84   1.492124 S    
Zn4   O11   1.932795 S    
C10   H2    1.111267 S    
C37   C38   1.399174 A    
C19   C24   1.436557 A    
O29   H10   0.994981 S    
C42   C43   1.410154 A    
C76   O38   1.220536 D    
O5    C4    1.268718 A    
C86   H37   1.081569 S    
C55   C60   1.433257 A    
C14   O61   1.418490 S    
O33   H14   0.991385 S    
C27   C28   1.395624 A    
C41   C42   1.417786 A    
Zn8   O14   1.943799 S    
O13   C2    1.281325 A    
Zn3   O13   1.938961 S    
C35   C40   1.424102 A    
C24   C67   1.458239 S    
C43   C44   1.409570 A    
C44   C68   1.458948 S    
Zn5   O14   1.954783 S    
C39   C40   1.393419 A    
O46   H27   0.989956 S    
C85   O55   1.221191 D    
C2    C21   1.459244 S    
C88   H41   1.080527 S    
C46   O49   1.380321 S    
C25   C26   1.399637 A    
Zn4   O1    1.943799 S    
C48   H7    1.081516 S    
O12   C1    1.298606 A    
O59   H40   0.990393 S    
C12   C70   1.496129 S    
O39   H20   0.989858 S    
Zn1   O10   1.935853 S    
O31   H12   0.990649 S    
C77   H23   1.085461 S    
Zn6   O19   1.959248 S    
C4    C31   1.449776 S    
Zn8   O20   1.957150 S    
O32   H13   0.989723 S    
C88   O60   1.221885 D    
