data_mof_unit_12155.cif
_audit_creation_date              2012-12-10T20:44:04-0500
_audit_creation_method            fapswitch 2.2
_symmetry_space_group_name_H-M    P1
_symmetry_Int_Tables_number       1
_space_group_crystal_system       triclinic
_cell_length_a                    17.167275
_cell_length_b                    10.722367
_cell_length_c                    9.938433
_cell_angle_alpha                 87.665918
_cell_angle_beta                  89.219717
_cell_angle_gamma                 92.345758
_cell_volume                      1826.14178877

loop_
_atom_site_label
_atom_site_type_symbol
_atom_type_description
_atom_site_fract_x
_atom_site_fract_y
_atom_site_fract_z
_atom_type_partial_charge
C1    C     C_R   0.502249 0.260314 0.501923 0.849722
C2    C     C_R   0.123347 0.645812 0.496522 0.168153
C3    C     C_R   0.456900 0.055537 0.591761 0.065088
C4    C     C_R   0.353784 0.513342 0.500198 0.856906
C5    C     C_R   0.504475 0.127862 0.502743 -0.080022
C6    C     C_R   0.544163 0.071153 0.398604 -0.223833
C7    C     C_R   0.540629 0.941956 0.392294 -0.245520
C8    C     C_R   0.497687 0.870764 0.490767 -0.064667
C9    C     C_R   0.452430 0.928172 0.584550 0.067690
C10   C     C_3   0.445008 0.904096 0.733142 -0.468896
C11   C     C_3   0.453472 0.044330 0.742377 0.017418
C12   C     C_R   0.890654 0.607612 0.492850 0.001799
C13   C     C_R   0.473972 0.396607 0.077012 0.093933
C14   C     C_R   0.531508 0.598039 0.066479 -0.146359
C15   C     C_R   0.532670 0.597147 0.923154 -0.108532
C16   C     C_R   0.500877 0.739425 0.497314 0.867577
C17   C     C_R   0.473122 0.397511 0.935323 0.020119
C18   C     C_3   0.395264 0.327798 0.935435 -0.068150
C19   C     C_3   0.395461 0.328640 0.090022 0.341544
C20   C     C_R   0.648143 0.500506 0.499131 0.868833
C21   C     C_R   0.850216 0.592499 0.614592 -0.282636
C22   C     C_R   0.773499 0.545074 0.619417 0.197051
C23   C     C_1   0.971817 0.638771 0.496173 -0.028422
C24   C     C_R   0.734515 0.518713 0.497556 -0.226119
C25   C     C_R   0.778207 0.526452 0.373943 0.136617
C26   C     C_R   0.856473 0.570406 0.372760 0.220309
C27   C     C_3   0.601090 0.056216 0.761657 -0.735098
C28   C     C_3   0.275972 0.326995 0.800492 -0.768808
C29   C     C_3   0.258784 0.343332 0.167069 -0.749614
C30   C     C_3   0.734831 0.395306 0.797784 -0.734581
C31   C     C_3   0.446157 0.109942 0.112647 -0.834897
C32   C     C_3   0.724736 0.584680 0.156441 -0.720990
C33   C     C_3   0.934589 0.457611 0.218607 -0.773827
C34   C     C_1   0.041104 0.650951 0.497118 -0.081298
C35   C     C_R   0.161722 0.632238 0.618540 -0.172025
C36   C     C_R   0.237699 0.592268 0.619524 -0.215534
C37   C     C_R   0.274577 0.560677 0.499302 -0.031292
C38   C     C_R   0.238126 0.588049 0.376665 -0.196412
C39   C     C_R   0.162176 0.628029 0.375158 -0.180415
H1    H     H_    0.555281 0.678883 0.115716 0.140967
H2    H     H_    0.642953 0.063222 0.845396 0.219318
H3    H     H_    0.621510 0.123528 0.679712 0.228039
H4    H     H_    0.601976 0.960151 0.724912 0.242759
H5    H     H_    0.558909 0.676080 0.865778 0.140323
H6    H     H_    0.342763 0.490951 0.853971 0.242050
H7    H     H_    0.221634 0.378949 0.791805 0.235587
H8    H     H_    0.260817 0.235201 0.852160 0.226728
H9    H     H_    0.299710 0.310558 0.698667 0.244534
H10   H     H_    0.399778 0.236289 0.894254 0.145607
H11   H     H_    0.334600 0.494916 0.106914 0.210480
H12   H     H_    0.131904 0.647069 0.713019 0.129376
H13   H     H_    0.212921 0.413342 0.165180 0.217653
H14   H     H_    0.256377 0.292255 0.266542 0.236421
H15   H     H_    0.245532 0.276470 0.087388 0.255670
H16   H     H_    0.755313 0.584986 0.819733 0.212768
H17   H     H_    0.794920 0.366528 0.820098 0.224432
H18   H     H_    0.708574 0.332702 0.722768 0.238236
H19   H     H_    0.698883 0.384907 0.891567 0.229584
H20   H     H_    0.394048 0.208990 0.263746 0.260894
H21   H     H_    0.445730 0.030940 0.188085 0.260951
H22   H     H_    0.507036 0.146666 0.095655 0.242414
H23   H     H_    0.132701 0.639607 0.279964 0.129489
H24   H     H_    0.421865 0.070267 0.020621 0.247000
H25   H     H_    0.708280 0.408794 0.257379 0.233235
H26   H     H_    0.697306 0.543502 0.067172 0.224693
H27   H     H_    0.776987 0.641868 0.121516 0.241363
H28   H     H_    0.683014 0.646335 0.204315 0.233265
H29   H     H_    0.940106 0.649620 0.238202 0.217194
H30   H     H_    0.963971 0.467400 0.118293 0.229865
H31   H     H_    0.888659 0.381807 0.215283 0.255092
H32   H     H_    0.978382 0.431971 0.295186 0.235362
H33   H     H_    0.266744 0.585636 0.714431 0.153393
H34   H     H_    0.879481 0.613424 0.707592 0.154403
H35   H     H_    0.267953 0.578540 0.282005 0.166056
H36   H     H_    0.579001 0.126372 0.324497 0.162006
H37   H     H_    0.574117 0.897980 0.315531 0.154503
H38   H     H_    0.385804 0.865638 0.762632 0.166731
H39   H     H_    0.492844 0.851956 0.779458 0.218247
H40   H     H_    0.399003 0.080415 0.782372 0.102280
H41   H     H_    0.523244 0.178349 0.838612 0.239043
N1    N     N_R   0.499490 0.499140 0.142800 -0.107412
N2    N     N_R   0.499490 0.499180 0.857150 -0.093080
N3    N     N_2   0.524322 0.087350 0.810123 -0.285662
N4    N     N_2   0.332686 0.397264 0.876810 -0.278178
N5    N     N_2   0.335352 0.404368 0.146186 -0.270327
N6    N     N_2   0.736436 0.524174 0.748022 -0.273693
N7    N     N_2   0.397047 0.206011 0.160361 -0.294575
N8    N     N_2   0.746192 0.485898 0.250698 -0.282490
N9    N     N_2   0.900777 0.574515 0.250002 -0.298612
O1    O     O_R   0.500010 0.316790 0.614690 -0.609282
O2    O     O_R   0.500000 0.316760 0.385350 -0.620204
O3    O     O_R   0.389120 0.500020 0.614710 -0.612723
O4    O     O_R   0.389110 0.499990 0.385370 -0.596704
O5    O     O_R   0.500000 0.683240 0.614650 -0.630873
O6    O     O_R   0.499990 0.683210 0.385310 -0.626846
O7    O     O_R   0.610890 0.500010 0.614630 -0.567119
O8    O     O_R   0.610880 0.499980 0.385290 -0.614300
Zn1   Zn    Zn3+2 0.500010 0.500020 0.653130 0.942800
Zn2   Zn    Zn3+2 0.499990 0.499980 0.346870 0.936457

loop_
_geom_bond_atom_site_label_1
_geom_bond_atom_site_label_2
_ccdc_geom_bond_type
C2    C35   A    
C28   H8    S    
C1    O1    A    
C13   N1    A    
C28   N4    S    
C31   H22   S    
C35   C36   A    
C10   H39   S    
O3    Zn1   S    
C7    C8    A    
C26   N9    S    
C12   C23   S    
C28   H7    S    
C1    C5    S    
C36   C37   A    
C15   H5    S    
C18   C19   S    
C19   N7    S    
C38   C39   A    
O6    Zn2   S    
C29   H15   S    
O5    Zn1   S    
C32   N8    S    
C30   H18   S    
C21   H34   S    
C17   N2    A    
H11   N5    S    
C2    C39   A    
C20   O8    A    
C20   C24   S    
C8    C9    A    
O7    Zn1   S    
C18   N4    S    
C30   N6    S    
C9    C10   S    
O4    Zn2   S    
C29   N5    S    
C33   H30   S    
C2    C34   S    
C20   O7    A    
C1    O2    A    
C21   C22   A    
N2    Zn1   S    
H41   N3    S    
C19   N5    S    
O8    Zn2   S    
C10   H38   S    
H29   N9    S    
C15   N2    A    
C31   N7    S    
C13   C19   S    
C31   H24   S    
C6    H36   S    
C24   C25   A    
N1    Zn2   S    
C11   N3    S    
C25   C26   A    
C30   H17   S    
C12   C21   A    
C25   N8    S    
C12   C26   A    
C31   H21   S    
C37   C38   A    
C3    C9    A    
C33   N9    S    
C27   H2    S    
C23   C34   T    
C17   C18   S    
C7    H37   S    
C11   H40   S    
C33   H31   S    
C32   H28   S    
C35   H12   S    
C22   C24   A    
H6    N4    S    
C32   H27   S    
C38   H35   S    
C39   H23   S    
C28   H9    S    
C16   O6    A    
C3    C5    A    
C6    C7    A    
C16   O5    A    
C13   C17   A    
H16   N6    S    
C27   N3    S    
C27   H3    S    
C5    C6    A    
C29   H14   S    
C30   H19   S    
H25   N8    S    
C22   N6    S    
H20   N7    S    
C3    C11   S    
C10   C11   S    
C33   H32   S    
C14   H1    S    
C4    O4    A    
C27   H4    S    
C4    C37   S    
C8    C16   S    
C14   C15   A    
C14   N1    A    
O2    Zn2   S    
O1    Zn1   S    
C36   H33   S    
C18   H10   S    
C32   H26   S    
C4    O3    A    
C29   H13   S    
