data_mof_unit_22669.cif
_audit_creation_date              2012-12-10T20:31:03-0500
_audit_creation_method            fapswitch 2.2
_symmetry_space_group_name_H-M    P1
_symmetry_Int_Tables_number       1
_space_group_crystal_system       triclinic
_cell_length_a                    15.011742
_cell_length_b                    10.676432
_cell_length_c                    9.849913
_cell_angle_alpha                 89.95842
_cell_angle_beta                  89.807206
_cell_angle_gamma                 90.065149
_cell_volume                      1578.65332877

loop_
_atom_site_label
_atom_site_type_symbol
_atom_type_description
_atom_site_fract_x
_atom_site_fract_y
_atom_site_fract_z
_atom_type_partial_charge
C1    C     C_R   0.502661 0.259900 0.500062 0.882591
C2    C     C_R   0.907696 0.520495 0.378454 0.135088
C3    C     C_R   0.951745 0.448984 0.742984 -0.225302
C4    C     C_R   0.044712 0.447886 0.745719 0.202063
C5    C     C_R   0.092340 0.472047 0.624021 0.094151
C6    C     C_R   0.046258 0.496445 0.501599 0.014169
C7    C     C_R   0.092866 0.521308 0.379562 0.138358
C8    C     C_R   0.046958 0.544896 0.258784 -0.219441
C9    C     C_R   0.954532 0.544146 0.258122 -0.223875
C10   C     C_R   0.184939 0.472770 0.620874 -0.257346
C11   C     C_R   0.230602 0.498532 0.500356 -0.083923
C12   C     C_R   0.326557 0.499712 0.500145 0.896582
C13   C     C_R   0.184883 0.522742 0.380171 -0.255097
C14   C     C_R   0.515643 0.063741 0.623318 0.141806
C15   C     C_R   0.516816 0.128546 0.500671 -0.104284
C16   C     C_R   0.535122 0.064904 0.379205 -0.224831
C17   C     C_R   0.535321 0.935366 0.379173 -0.226150
C18   C     C_R   0.517179 0.871413 0.500598 -0.103165
C19   C     C_R   0.515910 0.935987 0.623303 0.127263
C20   C     C_3   0.451410 0.928356 0.739034 -0.473573
C21   C     C_3   0.450929 0.070316 0.738800 -0.493767
C22   C     C_R   0.459611 0.405150 0.071727 0.214907
C23   C     C_R   0.502868 0.740070 0.499953 0.883262
C24   C     C_R   0.546825 0.587008 0.071709 -0.137213
C25   C     C_R   0.546864 0.586985 0.927616 -0.138630
C26   C     C_R   0.459164 0.405580 0.928997 0.220347
C27   C     C_3   0.362537 0.373440 0.925313 -0.530199
C28   C     C_3   0.363575 0.370764 0.079140 -0.498878
C29   C     C_R   0.673388 0.499792 0.499803 0.887686
C30   C     C_R   0.815509 0.520983 0.378781 -0.261930
C31   C     C_R   0.769201 0.498449 0.499650 -0.069776
C32   C     C_R   0.814365 0.474427 0.620709 -0.244084
C33   C     C_R   0.906509 0.473111 0.622059 0.064225
C34   C     C_R   0.953552 0.496524 0.500758 0.057938
H1    H     H_    0.779978 0.540005 0.285299 0.158447
H2    H     H_    0.543378 0.886415 0.283612 0.165511
H3    H     H_    0.386429 0.886449 0.709515 0.206631
H4    H     H_    0.482161 0.887620 0.831593 0.201428
H5    H     H_    0.385720 0.110916 0.708645 0.199211
H6    H     H_    0.481180 0.111699 0.831388 0.203707
H7    H     H_    0.583208 0.658650 0.125924 0.141102
H8    H     H_    0.583288 0.658591 0.872920 0.146860
H9    H     H_    0.321704 0.451362 0.884654 0.214883
H10   H     H_    0.349789 0.280319 0.879144 0.198987
H11   H     H_    0.321933 0.445323 0.125540 0.216238
H12   H     H_    0.777894 0.456141 0.713920 0.161482
H13   H     H_    0.353395 0.275504 0.122122 0.202633
H14   H     H_    0.914352 0.431130 0.835436 0.146867
H15   H     H_    0.222175 0.452684 0.711612 0.169497
H16   H     H_    0.220752 0.543698 0.287197 0.152030
H17   H     H_    0.082563 0.564045 0.165134 0.149400
H18   H     H_    0.919738 0.562487 0.163937 0.145002
H19   H     H_    0.543062 0.114052 0.283647 0.170090
N1    N     N_R   0.499390 0.499140 0.142800 -0.107506
N2    N     N_R   0.499390 0.499180 0.857150 -0.106787
O1    O     O_R   0.500010 0.316790 0.614690 -0.617072
O2    O     O_R   0.500000 0.316760 0.385350 -0.623685
O3    O     O_R   0.367850 0.499990 0.614680 -0.626126
O4    O     O_R   0.367840 0.499950 0.385340 -0.623726
O5    O     O_R   0.500000 0.683240 0.614650 -0.620434
O6    O     O_R   0.499990 0.683210 0.385310 -0.626831
O7    O     O_R   0.632160 0.500050 0.614660 -0.627895
O8    O     O_R   0.632150 0.500010 0.385320 -0.627031
Zn1   Zn    Zn3+2 0.500010 0.500020 0.653130 0.943058
Zn2   Zn    Zn3+2 0.499990 0.499980 0.346870 0.942280
C35   C     C_3   0.090922 0.421582 0.878698 -0.945600
H20   H     H_    0.133156 0.502745 0.907391 0.235534
H21   H     H_    0.042617 0.405070 0.962527 0.245312
H22   H     H_    0.132991 0.336556 0.869025 0.247532

loop_
_geom_bond_atom_site_label_1
_geom_bond_atom_site_label_2
_ccdc_geom_bond_type
C25   H8    S    
C7    C13   A    
C35   H21   S    
C11   C12   S    
O1    Zn1   S    
C28   H13   S    
C6    C7    A    
C1    C15   S    
C17   H2    S    
C1    O2    A    
C10   H15   S    
C20   H4    S    
C19   C20   S    
C21   H5    S    
O5    Zn1   S    
C30   C31   A    
C2    C30   A    
C12   O3    A    
N2    Zn1   S    
C2    C34   A    
C29   O8    A    
C35   H20   S    
C24   C25   A    
C5    C10   A    
C22   N1    A    
N1    Zn2   S    
C22   C28   S    
C4    C5    A    
O4    Zn2   S    
C4    C35   S    
C20   H3    S    
C11   C13   A    
C8    H17   S    
C26   C27   S    
C5    C6    A    
C21   H6    S    
C24   H7    S    
C30   H1    S    
C15   C16   A    
C14   C19   A    
C14   C21   S    
C13   H16   S    
C26   N2    A    
C33   C34   A    
C9    H18   S    
C12   O4    A    
O3    Zn1   S    
C23   O5    A    
O8    Zn2   S    
C28   H11   S    
C35   H22   S    
C7    C8    A    
C10   C11   A    
C3    C33   A    
C24   N1    A    
C18   C23   S    
O6    Zn2   S    
C3    H14   S    
C23   O6    A    
C20   C21   S    
C6    C34   A    
C17   C18   A    
C18   C19   A    
C22   C26   A    
C27   C28   S    
C27   H9    S    
C29   O7    A    
C16   C17   A    
O7    Zn1   S    
C14   C15   A    
C29   C31   S    
C2    C9    A    
C32   H12   S    
C27   H10   S    
C1    O1    A    
C31   C32   A    
C3    C4    A    
C25   N2    A    
C32   C33   A    
O2    Zn2   S    
C8    C9    A    
C16   H19   S    
