data_mof_unit_13449.cif
_audit_creation_date              2012-12-11T14:21:22-0500
_audit_creation_method            fapswitch 2.2
_symmetry_space_group_name_H-M    P1
_symmetry_Int_Tables_number       1
_space_group_crystal_system       triclinic
_cell_length_a                    11.563087
_cell_length_b                    11.47091
_cell_length_c                    19.510705
_cell_angle_alpha                 90.431687
_cell_angle_beta                  89.690577
_cell_angle_gamma                 60.435332
_cell_volume                      2250.75135159

loop_
_atom_site_label
_atom_site_type_symbol
_atom_type_description
_atom_site_fract_x
_atom_site_fract_y
_atom_site_fract_z
_atom_type_partial_charge
C1    C     C_R   0.640118 0.117714 0.599126 0.547153
C2    C     C_1   0.652338 0.150624 0.668496 0.004799
C3    C     C_R   0.651840 0.699299 0.184021 0.039249
C4    C     C_R   0.611893 0.745985 0.598540 0.559287
C5    C     C_R   0.519231 0.776264 0.206737 0.043465
C6    C     C_R   0.495419 0.784160 0.277909 0.019527
C7    C     C_R   0.732170 0.701719 0.296693 -0.134388
C8    C     C_R   0.756939 0.662986 0.229163 -0.165736
C9    C     C_R   0.410512 0.822005 0.160924 0.028676
C10   C     C_R   0.294681 0.824987 0.183351 -0.117027
C11   C     C_R   0.277271 0.809189 0.252457 -0.123327
C12   C     C_1   0.640215 0.703579 0.667857 0.003640
C13   C     C_R   0.370532 0.801353 0.299878 -0.075306
C14   C     C_R   0.602517 0.761337 0.322513 0.029556
C15   C     C_R   0.155883 0.188949 0.189097 -0.005997
C16   C     C_R   0.237996 0.146529 0.597424 0.561230
C17   C     C_R   0.246744 0.231358 0.208225 0.014351
C18   C     C_R   0.280648 0.226239 0.277981 0.013483
C19   C     C_R   0.163936 0.103906 0.303252 -0.155445
C20   C     C_R   0.109640 0.132022 0.238758 -0.015233
C21   C     C_R   0.290791 0.294679 0.161100 -0.075340
C22   C     C_R   0.328268 0.385526 0.184410 -0.123606
C23   C     C_1   0.062823 0.234650 0.850860 0.002995
C24   C     C_R   0.335951 0.402345 0.254277 -0.140931
C25   C     C_R   0.326458 0.314456 0.300029 -0.099072
C26   C     C_R   0.253519 0.144516 0.323107 -0.012043
C27   C     C_R   0.670246 0.188213 0.194504 -0.018470
C28   C     C_R   0.648629 0.111865 0.403018 0.504332
C29   C     C_R   0.728947 0.055771 0.218366 0.046237
C30   C     C_R   0.758175 0.034119 0.288316 0.027735
C31   C     C_R   0.627405 0.274298 0.312280 -0.037981
C32   C     C_R   0.626325 0.295489 0.241666 -0.135812
C33   C     C_R   0.781470 0.944752 0.172627 -0.031135
C34   C     C_1   0.133300 0.190104 0.721549 -0.028975
C35   C     C_R   0.888339 0.822909 0.192060 -0.073176
C36   C     C_R   0.934671 0.806634 0.258825 -0.118273
C37   C     C_R   0.868653 0.909446 0.307105 -0.072811
C38   C     C_R   0.683895 0.142082 0.335430 -0.045582
C39   C     C_R   0.024453 0.263446 0.921647 0.554948
C40   C     C_R   0.582842 0.798305 0.394844 0.544242
C41   C     C_R   0.684283 0.604656 0.929605 0.562526
C42   C     C_R   0.708985 0.206307 0.930168 0.540313
C43   C     C_R   0.084184 0.234893 0.124728 0.540020
C44   C     C_R   0.680901 0.617468 0.122969 0.591621
C45   C     C_1   0.093663 0.213294 0.791098 -0.029560
C46   C     C_R   0.706205 0.210538 0.126105 0.533876
C47   C     C_R   0.300930 0.117181 0.393578 0.528677
C48   C     C_1   0.671518 0.646546 0.860177 0.007464
C49   C     C_1   0.654396 0.683327 0.728316 -0.030831
C50   C     C_1   0.664141 0.666534 0.799640 -0.031485
C51   C     C_2   0.581222 0.388393 0.361520 0.207735
C52   C     C_2   0.414876 0.866177 0.090097 0.240713
C53   C     C_2   0.993444 0.115010 0.229103 0.238535
C54   C     C_1   0.174869 0.170573 0.663429 -0.000292
C55   C     C_1   0.679749 0.190275 0.860829 0.008587
C56   C     C_1   0.658424 0.167720 0.728966 -0.029940
C57   C     C_1   0.666427 0.180402 0.800346 -0.029426
Cr1   Cr    Cr6+3 0.404720 0.198220 0.499960 1.011198
Cr2   Cr    Cr6+3 0.698290 0.897110 0.500380 1.019062
Cr3   Cr    Cr6+3 0.396970 0.904720 0.499610 1.022215
Cr4   Cr    Cr6+3 0.926180 0.151990 0.028120 1.046899
Cr5   Cr    Cr6+3 0.921330 0.451820 0.027470 1.020457
Cr6   Cr    Cr6+3 0.626260 0.446870 0.028710 1.015994
H1    H     H_    0.816457 0.674726 0.329706 0.147383
H2    H     H_    0.859342 0.598675 0.213127 0.137620
H3    H     H_    0.216852 0.842687 0.147446 0.153541
H4    H     H_    0.186615 0.813080 0.270170 0.144912
H5    H     H_    0.342305 0.801700 0.352320 0.174188
H6    H     H_    0.129046 0.056865 0.339754 0.131785
H7    H     H_    0.285699 0.283445 0.106267 0.148385
H8    H     H_    0.587853 0.371409 0.416306 0.132053
H9    H     H_    0.338126 0.880314 0.053920 0.110093
H10   H     H_    0.898725 0.188133 0.251059 0.101330
H11   H     H_    0.348783 0.444652 0.148472 0.126001
H12   H     H_    0.357984 0.478250 0.272703 0.161668
H13   H     H_    0.347060 0.325999 0.352308 0.173625
H14   H     H_    0.749585 0.955874 0.119818 0.139592
H15   H     H_    0.593746 0.395902 0.223334 0.177706
H16   H     H_    0.936594 0.741846 0.155018 0.112420
H17   H     H_    0.020394 0.713282 0.273580 0.100085
H18   H     H_    0.913375 0.892744 0.357040 0.140444
O1    O     O_R   0.267740 0.231960 0.575440 -0.496070
O2    O     O_R   0.596130 0.579390 0.952730 -0.502567
O3    O     O_R   0.639060 0.321160 0.958670 -0.497437
O4    O     O_R   0.527280 0.186640 0.570530 -0.492345
O5    O     O_R   0.821240 0.124200 0.104370 -0.468521
O6    O     O_R   0.036890 0.167040 0.097840 -0.465246
O7    O     O_R   0.056180 0.349610 0.102880 -0.530951
O8    O     O_R   0.797660 0.564870 0.097950 -0.508846
O9    O     O_R   0.595880 0.584250 0.104270 -0.518748
O10   O     O_R   0.638830 0.325670 0.099150 -0.514210
O11   O     O_3   0.824590 0.350230 0.028100 -0.280122
O12   O     O_R   0.685970 0.784660 0.430010 -0.500106
O13   O     O_R   0.728090 0.003450 0.576380 -0.501801
O14   O     O_R   0.682970 0.789190 0.570490 -0.485045
O15   O     O_R   0.499290 0.771880 0.575530 -0.499085
O16   O     O_R   0.285330 0.030870 0.569730 -0.487825
O17   O     O_R   0.270980 0.227080 0.423890 -0.519080
O18   O     O_R   0.530280 0.182120 0.430050 -0.537687
O19   O     O_R   0.731330 0.998570 0.424830 -0.531902
O20   O     O_2   0.538031 0.502874 0.341547 -0.530634
O21   O     O_2   0.501055 0.891986 0.072216 -0.526550
O22   O     O_2   0.004722 0.016424 0.199300 -0.508972
O23   O     O_R   0.502530 0.767000 0.423990 -0.503105
O24   O     O_R   0.288330 0.026350 0.429250 -0.525921
O25   O     O_3   0.499990 0.000020 0.499980 -0.285693
O26   O     O_R   0.821500 0.119340 0.952830 -0.515099
O27   O     O_R   0.037130 0.162530 0.957360 -0.493742
O28   O     O_R   0.056440 0.344740 0.951340 -0.502149
O29   O     O_R   0.797900 0.560360 0.957470 -0.506969

loop_
_geom_bond_atom_site_label_1
_geom_bond_atom_site_label_2
_ccdc_geom_bond_type
C23   C45   T    
C27   C29   A    
C35   C36   A    
C18   C26   A    
C40   O12   A    
C12   C49   T    
Cr3   O25   S    
C7    C8    A    
C9    C52   S    
C52   O21   D    
C47   O17   A    
Cr2   O14   S    
C43   O7    A    
C36   C37   A    
Cr1   O1    S    
C5    C6    A    
C16   O16   A    
C6    C14   A    
C41   O2    A    
Cr5   O8    S    
C29   C33   A    
C56   C57   S    
C30   C38   A    
C1    C2    S    
Cr4   O27   S    
C19   C26   A    
Cr4   O6    S    
C4    O15   A    
C7    C14   A    
C19   C20   A    
C1    O13   A    
C47   O24   A    
Cr5   O11   S    
Cr6   O11   S    
Cr2   O13   S    
C4    C12   S    
C9    C10   A    
Cr4   O11   S    
C28   O19   A    
C48   C50   T    
C10   C11   A    
C8    H2    S    
C21   C22   A    
Cr2   O19   S    
C37   H18   S    
C15   C20   A    
C18   C25   A    
C51   H8    S    
C11   H4    S    
C10   H3    S    
C1    O4    A    
C39   O27   A    
C3    C44   S    
Cr2   O25   S    
C42   O3    A    
C24   C25   A    
C3    C8    A    
C36   H17   S    
C46   O10   A    
Cr5   O7    S    
C17   C21   A    
C30   C37   A    
Cr6   O2    S    
Cr1   O25   S    
C5    C9    A    
C29   C30   A    
C52   H9    S    
C42   C55   S    
C40   O23   A    
C4    O14   A    
C31   C32   A    
Cr5   O29   S    
C28   C38   S    
C16   O1    A    
C17   C18   A    
C34   C45   S    
C26   C47   S    
Cr3   O15   S    
C28   O18   A    
C32   H15   S    
C34   C54   T    
C41   O29   A    
C55   C57   T    
C22   C24   A    
C19   H6    S    
C22   H11   S    
Cr1   O4    S    
C44   O9    A    
C27   C46   S    
C42   O26   A    
C15   C17   A    
C27   C32   A    
C53   H10   S    
Cr1   O18   S    
C31   C51   S    
C20   C53   S    
C3    C5    A    
C24   H12   S    
Cr1   O17   S    
C51   O20   D    
Cr6   O3    S    
C31   C38   A    
C21   H7    S    
C25   H13   S    
C43   O6    A    
C15   C43   S    
C2    C56   T    
C6    C13   A    
C11   C13   A    
C33   H14   S    
Cr5   O28   S    
C53   O22   D    
C23   C39   S    
Cr6   O9    S    
C35   H16   S    
C33   C35   A    
C41   C48   S    
Cr4   O26   S    
C16   C54   S    
C7    H1    S    
Cr4   O5    S    
C44   O8    A    
C14   C40   S    
C39   O28   A    
C49   C50   S    
Cr6   O10   S    
Cr2   O12   S    
Cr3   O23   S    
Cr3   O16   S    
Cr3   O24   S    
C46   O5    A    
C13   H5    S    
