data_mof_unit_33224.cif
_audit_creation_date              2012-12-11T17:47:29-0500
_audit_creation_method            fapswitch 2.2
_symmetry_space_group_name_H-M    P1
_symmetry_Int_Tables_number       1
_space_group_crystal_system       triclinic
_cell_length_a                    7.207128
_cell_length_b                    23.061406
_cell_length_c                    25.273274
_cell_angle_alpha                 89.99998
_cell_angle_beta                  89.99995
_cell_angle_gamma                 89.9999
_cell_volume                      4200.58253896

loop_
_atom_site_label
_atom_site_type_symbol
_atom_type_description
_atom_site_fract_x
_atom_site_fract_y
_atom_site_fract_z
_atom_type_partial_charge
O1    O     O_R   0.690340 0.802800 0.195640 -0.537810
O2    O     O_R   0.309660 0.197200 0.804360 -0.537810
O3    O     O_R   0.309660 0.197200 0.695640 -0.537810
O4    O     O_R   0.690340 0.802800 0.304360 -0.537811
O5    O     O_R   0.190340 0.697200 0.304360 -0.537810
O6    O     O_R   0.809660 0.302800 0.695640 -0.537811
O7    O     O_R   0.809660 0.302800 0.804360 -0.537810
O8    O     O_R   0.190340 0.697200 0.195640 -0.537810
O9    O     O_R   0.360590 0.809740 0.303990 -0.541342
O10   O     O_R   0.639410 0.190260 0.696010 -0.541342
O11   O     O_R   0.639410 0.190260 0.803990 -0.541341
O12   O     O_R   0.360590 0.809740 0.196010 -0.541341
O13   O     O_R   0.860590 0.690260 0.196010 -0.541341
O14   O     O_R   0.139410 0.309740 0.803990 -0.541341
O15   O     O_R   0.139410 0.309740 0.696010 -0.541341
O16   O     O_R   0.860590 0.690260 0.303990 -0.541342
C1    C     C_R   0.529095 0.823522 0.321742 0.697966
C2    C     C_R   0.470905 0.176478 0.678257 0.697964
C3    C     C_R   0.470905 0.176478 0.821742 0.697965
C4    C     C_R   0.529095 0.823522 0.178257 0.697964
C5    C     C_R   0.029095 0.676478 0.178258 0.697964
C6    C     C_R   0.970905 0.323522 0.821743 0.697964
C7    C     C_R   0.970905 0.323522 0.678257 0.697966
C8    C     C_R   0.029095 0.676478 0.321743 0.697965
O17   O     O_3   0.523810 0.713070 0.250000 -0.375300
O18   O     O_3   0.476190 0.286930 0.750000 -0.375300
O19   O     O_3   0.023810 0.786930 0.250000 -0.375300
O20   O     O_3   0.976190 0.213070 0.750000 -0.375300
V1    V     V_3+5 0.248970 0.756850 0.250000 1.389129
V2    V     V_3+5 0.751030 0.243150 0.750000 1.389129
V3    V     V_3+5 0.748970 0.743150 0.250000 1.389130
V4    V     V_3+5 0.251030 0.256850 0.750000 1.389129
C9    C     C_R   0.038528 0.633659 0.365880 -0.059764
C10   C     C_R   0.961473 0.366342 0.634121 -0.059767
C11   C     C_R   0.961472 0.366341 0.865880 -0.059761
C12   C     C_R   0.038527 0.633657 0.134122 -0.059767
C13   C     C_R   0.538527 0.866340 0.134120 -0.059763
C14   C     C_R   0.461473 0.133656 0.865878 -0.059764
C15   C     C_R   0.461472 0.133658 0.634121 -0.059763
C16   C     C_R   0.538526 0.866343 0.365878 -0.059762
C17   C     C_R   0.883559 0.599975 0.379808 -0.230963
C18   C     C_R   0.116445 0.400024 0.620192 -0.230957
C19   C     C_R   0.116440 0.400025 0.879808 -0.230959
C20   C     C_R   0.883558 0.599973 0.120194 -0.230953
C21   C     C_R   0.383557 0.900023 0.120190 -0.230958
C22   C     C_R   0.616442 0.099971 0.879804 -0.230960
C23   C     C_R   0.616440 0.099974 0.620193 -0.230959
C24   C     C_R   0.383550 0.900022 0.379810 -0.230959
C25   C     C_R   0.893228 0.560165 0.421540 -0.184721
C26   C     C_R   0.106777 0.439834 0.578460 -0.184729
C27   C     C_R   0.106771 0.439834 0.921540 -0.184747
C28   C     C_R   0.893225 0.560162 0.078463 -0.184745
C29   C     C_R   0.393226 0.939832 0.078457 -0.184746
C30   C     C_R   0.606772 0.060159 0.921534 -0.184732
C31   C     C_R   0.606770 0.060164 0.578461 -0.184737
C32   C     C_R   0.393217 0.939832 0.421543 -0.184730
C33   C     C_R   0.057991 0.553476 0.451270 0.399989
C34   C     C_R   0.942013 0.446525 0.548729 0.399991
C35   C     C_R   0.942011 0.446522 0.951272 0.399979
C36   C     C_R   0.057987 0.553473 0.048731 0.399981
C37   C     C_R   0.557987 0.946520 0.048726 0.399973
C38   C     C_R   0.442008 0.053468 0.951264 0.399998
C39   C     C_R   0.442008 0.053475 0.548730 0.399983
C40   C     C_R   0.557983 0.946524 0.451271 0.399992
C41   C     C_R   0.214137 0.587441 0.437524 0.047988
C42   C     C_R   0.785862 0.412563 0.562479 0.047989
C43   C     C_R   0.785865 0.412558 0.937525 0.047988
C44   C     C_R   0.214135 0.587437 0.062479 0.047987
C45   C     C_R   0.714136 0.912557 0.062475 0.047988
C46   C     C_R   0.285859 0.087432 0.937517 0.047984
C47   C     C_R   0.285861 0.087440 0.562478 0.047988
C48   C     C_R   0.714139 0.912565 0.437519 0.047977
C49   C     C_R   0.203187 0.626708 0.395004 -0.222090
C50   C     C_R   0.796811 0.373295 0.604998 -0.222088
C51   C     C_R   0.796814 0.373291 0.895004 -0.222089
C52   C     C_R   0.203186 0.626705 0.104997 -0.222085
C53   C     C_R   0.703187 0.873291 0.104996 -0.222086
C54   C     C_R   0.296811 0.126703 0.895000 -0.222092
C55   C     C_R   0.296812 0.126707 0.604997 -0.222088
C56   C     C_R   0.703192 0.873298 0.394999 -0.222095
N1    N     N_2   0.073164 0.513103 0.494199 -0.320518
N2    N     N_2   0.926841 0.486896 0.505800 -0.320509
N3    N     N_2   0.926838 0.486892 0.994203 -0.320492
N4    N     N_2   0.073157 0.513103 0.005800 -0.320482
N5    N     N_2   0.573160 0.986890 0.005795 -0.320510
N6    N     N_2   0.426836 0.013096 0.994194 -0.320490
N7    N     N_2   0.426834 0.013103 0.505801 -0.320512
N8    N     N_2   0.573156 0.986895 0.494201 -0.320506
H1    H     H_    0.245445 0.396072 0.641868 0.141280
H2    H     H_    0.754560 0.603927 0.358131 0.141284
H3    H     H_    0.754560 0.603924 0.141872 0.141280
H4    H     H_    0.245438 0.396075 0.858130 0.141283
H5    H     H_    0.745442 0.103924 0.858128 0.141279
H6    H     H_    0.254559 0.896073 0.141868 0.141283
H7    H     H_    0.254547 0.896068 0.358135 0.141278
H8    H     H_    0.745439 0.103925 0.641870 0.141283
H9    H     H_    0.228571 0.465559 0.569766 0.144346
H10   H     H_    0.771436 0.534440 0.430232 0.144348
H11   H     H_    0.771433 0.534436 0.069771 0.144352
H12   H     H_    0.228563 0.465561 0.930233 0.144358
H13   H     H_    0.728564 0.034432 0.930226 0.144350
H14   H     H_    0.271433 0.965557 0.069764 0.144352
H15   H     H_    0.271419 0.965554 0.430238 0.144346
H16   H     H_    0.728562 0.034438 0.569768 0.144348
H17   H     H_    0.323726 0.652642 0.385186 0.135201
H18   H     H_    0.676268 0.347362 0.614817 0.135208
H19   H     H_    0.676274 0.347357 0.885187 0.135203
H20   H     H_    0.323728 0.652639 0.114814 0.135212
H21   H     H_    0.823728 0.847358 0.114814 0.135203
H22   H     H_    0.176269 0.152637 0.885183 0.135208
H23   H     H_    0.176273 0.152641 0.614815 0.135203
H24   H     H_    0.823738 0.847368 0.385178 0.135204
C57   C     C_3   0.395099 0.582117 0.467390 -0.364382
C58   C     C_3   0.384914 0.612329 0.521328 -0.299965
C59   C     C_3   0.571425 0.609624 0.549871 -0.753155
H25   H     H_    0.611743 0.563893 0.557305 0.234359
H26   H     H_    0.680920 0.631014 0.525851 0.234698
H27   H     H_    0.560721 0.632369 0.588466 0.214295
H28   H     H_    0.345890 0.658570 0.515683 0.194080
H29   H     H_    0.277933 0.591367 0.546542 0.211912
H30   H     H_    0.430646 0.535666 0.472457 0.179610
H31   H     H_    0.509362 0.602066 0.444126 0.172062
C60   C     C_3   0.604897 0.417890 0.532616 -0.364401
C61   C     C_3   0.615032 0.387649 0.478692 -0.299980
C62   C     C_3   0.428505 0.390346 0.450158 -0.753156
H32   H     H_    0.319035 0.368954 0.474185 0.234692
H33   H     H_    0.388163 0.436076 0.442724 0.234386
H34   H     H_    0.439190 0.367599 0.411563 0.214296
H35   H     H_    0.722007 0.408594 0.453464 0.211899
H36   H     H_    0.654038 0.341409 0.484354 0.194089
H37   H     H_    0.490623 0.397967 0.555893 0.172067
H38   H     H_    0.569398 0.464341 0.527527 0.179621
C63   C     C_3   0.604904 0.417883 0.967390 -0.364382
C64   C     C_3   0.615060 0.387648 0.021317 -0.299957
C65   C     C_3   0.428579 0.390388 0.049874 -0.753106
H39   H     H_    0.388449 0.436126 0.057360 0.234306
H40   H     H_    0.318980 0.369073 0.025837 0.234724
H41   H     H_    0.439220 0.367589 0.088444 0.214289
H42   H     H_    0.653964 0.341399 0.015654 0.194063
H43   H     H_    0.722118 0.408574 0.046531 0.211902
H44   H     H_    0.569390 0.464334 0.972472 0.179633
H45   H     H_    0.490631 0.397951 0.944118 0.172034
C66   C     C_3   0.395095 0.582111 0.032614 -0.364417
C67   C     C_3   0.384979 0.612383 0.978705 -0.299975
C68   C     C_3   0.571476 0.609659 0.950157 -0.753130
H46   H     H_    0.681033 0.630993 0.974195 0.234709
H47   H     H_    0.611668 0.563925 0.942682 0.234346
H48   H     H_    0.560828 0.632449 0.911584 0.214296
H49   H     H_    0.277934 0.591473 0.953476 0.211889
H50   H     H_    0.346077 0.658628 0.984391 0.194078
H51   H     H_    0.509384 0.602011 0.055900 0.172054
H52   H     H_    0.430557 0.535661 0.027504 0.179648
C69   C     C_3   0.895097 0.917882 0.032610 -0.364381
C70   C     C_3   0.884942 0.887645 0.978683 -0.299962
C71   C     C_3   0.071431 0.890375 0.950130 -0.753109
H53   H     H_    0.111588 0.936111 0.942646 0.234315
H54   H     H_    0.181013 0.869052 0.974168 0.234719
H55   H     H_    0.060786 0.867578 0.911559 0.214287
H56   H     H_    0.846017 0.841399 0.984347 0.194067
H57   H     H_    0.777900 0.908575 0.953467 0.211902
H58   H     H_    0.930612 0.964333 0.027527 0.179633
H59   H     H_    0.009369 0.897950 0.055882 0.172039
C72   C     C_3   0.104892 0.082102 0.967378 -0.364388
C73   C     C_3   0.115011 0.112346 0.021303 -0.299955
C74   C     C_3   0.928481 0.109644 0.049835 -0.753172
H60   H     H_    0.819011 0.131028 0.025804 0.234702
H61   H     H_    0.888158 0.063914 0.057272 0.234380
H62   H     H_    0.939146 0.132397 0.088427 0.214297
H63   H     H_    0.221985 0.091403 0.046533 0.211893
H64   H     H_    0.154007 0.158587 0.015640 0.194081
H65   H     H_    0.990620 0.102022 0.944098 0.172058
H66   H     H_    0.069402 0.035650 0.972468 0.179617
C75   C     C_3   0.104899 0.082115 0.532613 -0.364384
C76   C     C_3   0.115065 0.112343 0.478682 -0.299953
C77   C     C_3   0.928558 0.109631 0.450137 -0.753120
H67   H     H_    0.888311 0.063899 0.442675 0.234334
H68   H     H_    0.819026 0.130987 0.474170 0.234704
H69   H     H_    0.939228 0.132407 0.411556 0.214290
H70   H     H_    0.154049 0.158586 0.484338 0.194071
H71   H     H_    0.222070 0.091397 0.453464 0.211901
H72   H     H_    0.069370 0.035665 0.527536 0.179621
H73   H     H_    0.990631 0.102054 0.555882 0.172051
C78   C     C_3   0.895103 0.917895 0.467381 -0.364307
C79   C     C_3   0.884951 0.887664 0.521316 -0.299895
C80   C     C_3   0.071472 0.890367 0.549851 -0.753200
H74   H     H_    0.180943 0.868977 0.525826 0.234703
H75   H     H_    0.111797 0.936097 0.557283 0.234382
H76   H     H_    0.060795 0.867621 0.588447 0.214297
H77   H     H_    0.777968 0.908617 0.546541 0.211885
H78   H     H_    0.845947 0.841419 0.515663 0.194061
H79   H     H_    0.009383 0.897961 0.444107 0.172029
H80   H     H_    0.930609 0.964351 0.472460 0.179589

loop_
_geom_bond_atom_site_label_1
_geom_bond_atom_site_label_2
_ccdc_geom_bond_type
O17   V3    S    
C65   H41   S    
N7    N8    D    
C51   H19   S    
C74   H60   S    
C24   H7    S    
C60   H38   S    
O19   V1    S    
C30   H13   S    
C45   C53   A    
C72   C73   S    
C10   C18   A    
C78   C79   S    
C19   C27   A    
C46   C72   S    
C47   C55   A    
C58   C59   S    
C43   C51   A    
C25   C33   A    
C65   H39   S    
C77   H68   S    
C5    C12   S    
N5    N6    D    
O16   V3    S    
O18   V4    S    
C6    C11   S    
C38   N6    S    
O11   C3    A    
C63   H45   S    
C28   C36   A    
O3    C2    A    
O8    V1    S    
C23   C31   A    
C73   C74   S    
C43   C63   S    
C35   N3    S    
C34   N2    S    
C64   H43   S    
O12   V1    S    
C80   H75   S    
C71   H54   S    
C73   H64   S    
C37   C45   A    
C66   C67   S    
C42   C50   A    
O1    V3    S    
C41   C49   A    
C79   C80   S    
C38   C46   A    
C44   C66   S    
O2    V4    S    
C10   C50   A    
C16   C24   A    
C76   C77   S    
C67   H50   S    
C12   C52   A    
C35   C43   A    
C25   H10   S    
C29   C37   A    
C34   C42   A    
C57   H31   S    
C77   H67   S    
O11   V2    S    
C59   H26   S    
C31   C39   A    
C52   H20   S    
C62   H34   S    
C23   H8    S    
C16   C56   A    
C11   C19   A    
C58   H28   S    
O9    V1    S    
C39   N7    S    
C7    C10   S    
C66   H51   S    
C17   H2    S    
C75   H72   S    
O16   C8    A    
O7    V2    S    
C65   H40   S    
C78   H80   S    
C71   H55   S    
O12   C4    A    
C73   H63   S    
C21   H6    S    
C17   C25   A    
C68   H47   S    
C68   H46   S    
C77   H69   S    
O5    V1    S    
N1    N2    D    
O13   C5    A    
C26   C34   A    
C60   C61   S    
C32   H15   S    
C22   H5    S    
O14   V4    S    
C64   H42   S    
C80   H76   S    
C14   C54   A    
C75   C76   S    
C13   C53   A    
C31   H16   S    
C45   C69   S    
C47   C75   S    
C69   H58   S    
C1    C16   S    
C15   C55   A    
C2    C15   S    
C70   H57   S    
C67   H49   S    
C3    C14   S    
C50   H18   S    
O10   V2    S    
C49   H17   S    
N3    N4    D    
C29   H14   S    
C59   H27   S    
C11   C51   A    
C56   H24   S    
C32   C40   A    
O8    C5    A    
C61   H36   S    
C54   H22   S    
C53   H21   S    
C72   H66   S    
C70   C71   S    
C20   H3    S    
C37   N5    S    
C18   C26   A    
O4    C1    A    
C9    C49   A    
C66   H52   S    
O6    V2    S    
C22   C30   A    
C39   C47   A    
C75   H73   S    
C74   H62   S    
C63   C64   S    
C33   N1    S    
C12   C20   A    
C27   C35   A    
C13   C21   A    
C76   H71   S    
C68   H48   S    
C72   H65   S    
C15   C23   A    
C57   C58   S    
C46   C54   A    
O9    C1    A    
C27   H12   S    
C24   C32   A    
O1    C4    A    
C26   H9    S    
C60   H37   S    
O2    C3    A    
C42   C60   S    
C41   C57   S    
O13   V3    S    
C8    C9    S    
C48   C78   S    
C33   C41   A    
C67   C68   S    
O15   V4    S    
C64   C65   S    
C78   H79   S    
C44   C52   A    
O7    C6    A    
C30   C38   A    
C28   H11   S    
C63   H44   S    
C19   H4    S    
C55   H23   S    
C69   H59   S    
C18   H1    S    
C9    C17   A    
O14   C6    A    
O20   V2    S    
C70   H56   S    
C48   C56   A    
C4    C13   S    
C36   N4    S    
C20   C28   A    
C80   H74   S    
C62   H32   S    
O5    C8    A    
O10   C2    A    
O6    C7    A    
O15   C7    A    
C61   H35   S    
C79   H78   S    
C40   C48   A    
O3    V4    S    
C14   C22   A    
O4    V3    S    
C21   C29   A    
C57   H30   S    
C36   C44   A    
C74   H61   S    
C71   H53   S    
C62   H33   S    
C79   H77   S    
C69   C70   S    
C76   H70   S    
C40   N8    S    
C58   H29   S    
C59   H25   S    
C61   C62   S    
