data_mof_unit_10085.cif
_audit_creation_date              2012-10-26T19:57:51-0400
_audit_creation_method            fapswitch 2.2
_symmetry_space_group_name_H-M    P1
_symmetry_Int_Tables_number       1
_space_group_crystal_system       triclinic
_cell_length_a                    7.497823
_cell_length_b                    8.681811
_cell_length_c                    12.954944
_cell_angle_alpha                 88.038595
_cell_angle_beta                  81.301908
_cell_angle_gamma                 103.128141
_cell_volume                      809.750306359

loop_
_atom_site_label
_atom_site_type_symbol
_atom_type_description
_atom_site_fract_x
_atom_site_fract_y
_atom_site_fract_z
_atom_type_partial_charge
C1    C     C_R   0.452556 0.199806 0.504581 0.587733
C2    C     C_R   0.689473 0.411258 0.134122 0.246778
C3    C     C_R   0.604354 0.476478 0.863578 -0.141774
C4    C     C_R   0.393159 0.480207 0.137072 -0.143807
C5    C     C_R   0.581472 0.459720 0.972410 -0.005021
C6    C     C_R   0.407273 0.459876 0.030502 -0.008747
C7    C     C_2   0.426254 0.031440 0.507278 -0.096766
C8    C     C_2   0.573077 0.968141 0.497565 -0.102883
C9    C     C_R   0.547170 0.800038 0.497580 0.538753
C10   C     C_R   0.467395 0.483345 0.700887 0.561943
C11   C     C_R   0.528639 0.491317 0.299954 0.574759
C12   C     C_R   0.538761 0.463681 0.188857 0.002208
C13   C     C_R   0.447448 0.454183 0.814436 -0.006286
C14   C     C_R   0.250027 0.425496 0.982227 -0.087244
C15   C     C_R   0.721447 0.429589 0.024654 -0.086696
C16   C     C_R   0.269922 0.399091 0.875925 0.254980
Cu1   Cu    Cu3+1 0.686350 0.517570 0.488220 1.068006
Cu2   Cu    Cu3+1 0.313650 0.482430 0.511780 1.084325
H1    H     H_    0.269147 0.505460 0.179472 0.188299
H2    H     H_    0.840577 0.089463 0.888355 0.373406
H3    H     H_    0.741638 0.504944 0.817927 0.193765
H4    H     H_    0.114792 0.404062 0.029062 0.188099
H5    H     H_    0.843348 0.403905 0.980398 0.187495
H6    H     H_    0.935498 0.373866 0.579783 0.273533
H7    H     H_    0.064114 0.624643 0.418928 0.245763
H8    H     H_    0.285054 0.959367 0.516238 0.139186
H9    H     H_    0.714265 0.040261 0.488673 0.157972
H10   H     H_    0.965373 0.116202 0.163039 0.374731
N1    N     N_2   0.033570 0.455950 0.529530 -0.229358
N2    N     N_2   0.966430 0.544050 0.470470 -0.240455
O1    O     O_R   0.621060 0.286250 0.492350 -0.486306
O2    O     O_2   0.661106 0.184165 0.283872 -0.290716
O3    O     O_3   0.893873 0.168342 0.120325 -0.489701
O4    O     O_2   0.976750 0.363237 0.776004 -0.348466
O5    O     O_2   0.169782 0.171823 0.746236 -0.276743
O6    O     O_3   0.947018 0.142678 0.921284 -0.476966
O7    O     O_R   0.378940 0.713750 0.507650 -0.523005
O8    O     O_R   0.306310 0.256580 0.512240 -0.475254
O9    O     O_R   0.693690 0.743420 0.487760 -0.504500
O10   O     O_R   0.631800 0.512400 0.642670 -0.524453
O11   O     O_R   0.368200 0.487600 0.357330 -0.514232
O12   O     O_R   0.317060 0.482730 0.662570 -0.428740
O13   O     O_R   0.682940 0.517270 0.337430 -0.438962
O14   O     O_2   0.951912 0.387294 0.250394 -0.315500
S1    S     S_3+6 0.802026 0.287668 0.200325 -0.000371
S2    S     S_3+6 0.088035 0.268357 0.826533 0.001217

loop_
_geom_bond_atom_site_label_1
_geom_bond_atom_site_label_2
_ccdc_geom_bond_type
C11   C12   S    
Cu1   O13   S    
O6    S2    S    
N1    N2    D    
Cu1   N2    S    
C10   O12   A    
O3    S1    S    
O2    S1    D    
C3    C13   A    
C9    O9    A    
C5    C15   A    
C2    C12   A    
C14   H4    S    
C9    O7    A    
Cu1   Cu2   S    
Cu2   O8    S    
C7    C8    D    
Cu2   N1    S    
C1    C7    S    
C11   O13   A    
C2    C15   A    
O5    S2    D    
C7    H8    S    
C1    O8    A    
O4    S2    D    
C15   H5    S    
Cu2   O7    S    
H10   O3    S    
C11   O11   A    
Cu2   O12   S    
C2    S1    S    
C5    C6    A    
Cu1   O1    S    
C14   C16   A    
C3    H3    S    
C6    C14   A    
H2    O6    S    
C1    O1    A    
O14   S1    D    
C4    C6    A    
Cu1   O9    S    
C13   C16   A    
C16   S2    S    
H7    N2    S    
C8    H9    S    
H6    N1    S    
C10   O10   A    
C4    C12   A    
C4    H1    S    
C10   C13   S    
Cu2   O11   S    
C8    C9    S    
C3    C5    A    
Cu1   O10   S    
