data_mof_unit_40262.cif
_audit_creation_date              2012-12-10T20:41:00-0500
_audit_creation_method            fapswitch 2.2
_symmetry_space_group_name_H-M    P1
_symmetry_Int_Tables_number       1
_space_group_crystal_system       triclinic
_cell_length_a                    27.712516
_cell_length_b                    10.682604
_cell_length_c                    9.881597
_cell_angle_alpha                 89.310264
_cell_angle_beta                  89.275309
_cell_angle_gamma                 90.719652
_cell_volume                      2924.68374263

loop_
_atom_site_label
_atom_site_type_symbol
_atom_type_description
_atom_site_fract_x
_atom_site_fract_y
_atom_site_fract_z
_atom_type_partial_charge
C1    C     C_R   0.501541 0.259932 0.500417 0.878699
C2    C     C_R   0.281187 0.416516 0.395087 0.237552
C3    C     C_R   0.253229 0.491714 0.480856 0.295935
C4    C     C_R   0.101851 0.484109 0.477447 -0.053234
C5    C     C_R   0.127275 0.382912 0.533065 -0.028305
C6    C     C_R   0.101969 0.280756 0.589139 -0.131389
C7    C     C_R   0.127596 0.586771 0.420469 -0.027147
C8    C     C_R   0.353576 0.497800 0.501286 -0.151936
C9    C     C_R   0.646484 0.496720 0.498107 -0.046043
C10   C     C_R   0.974140 0.373256 0.525780 0.033495
C11   C     C_R   0.974917 0.592813 0.446361 0.039549
C12   C     C_R   0.406171 0.501595 0.500895 0.881082
C13   C     C_R   0.949159 0.482978 0.488686 0.079324
C14   C     C_R   0.947200 0.263709 0.557234 -0.263702
C15   C     C_R   0.896893 0.262476 0.561896 -0.007192
C16   C     C_R   0.871516 0.372663 0.528092 -0.098043
C17   C     C_R   0.898008 0.483244 0.493653 -0.052781
C18   C     C_R   0.873325 0.594809 0.463622 -0.028808
C19   C     C_R   0.823040 0.594939 0.467761 0.514470
C20   C     C_R   0.820635 0.376709 0.522362 0.531588
C21   C     C_R   0.722121 0.526979 0.613242 -0.085920
C22   C     C_R   0.672036 0.530357 0.614204 -0.193227
C23   C     C_R   0.501621 0.739980 0.499234 0.904076
C24   C     C_R   0.671535 0.458671 0.381680 -0.203460
C25   C     C_R   0.721630 0.455300 0.381046 -0.093989
C26   C     C_R   0.746802 0.489556 0.496738 0.309417
C27   C     C_R   0.025257 0.376424 0.531093 0.054823
C28   C     C_R   0.050766 0.483163 0.479864 0.075043
C29   C     C_R   0.025746 0.589484 0.432096 0.046263
C30   C     C_R   0.051933 0.277228 0.588173 -0.211066
C31   C     C_R   0.102580 0.687387 0.365317 -0.128387
C32   C     C_R   0.948949 0.703442 0.421864 -0.206843
C33   C     C_R   0.899111 0.704211 0.430585 -0.100310
C34   C     C_R   0.593900 0.499497 0.499326 0.888637
C35   C     C_R   0.052567 0.688997 0.370979 -0.212576
C36   C     C_R   0.513415 0.062155 0.621066 0.148434
C37   C     C_R   0.509577 0.128677 0.499782 -0.102212
C38   C     C_R   0.515349 0.066641 0.376155 -0.224718
C39   C     C_R   0.515277 0.937307 0.375277 -0.169866
C40   C     C_R   0.509705 0.871439 0.498049 -0.104308
C41   C     C_R   0.513458 0.934350 0.620050 0.133023
C42   C     C_3   0.483044 0.923243 0.745595 -0.455877
C43   C     C_3   0.482904 0.064900 0.746716 -0.493239
C44   C     C_R   0.459276 0.467784 0.073126 0.197638
C45   C     C_R   0.177716 0.387413 0.533205 0.512272
C46   C     C_R   0.538215 0.548391 0.067849 -0.026335
C47   C     C_R   0.538315 0.545081 0.924430 -0.182077
C48   C     C_R   0.459139 0.468870 0.930979 0.283301
C49   C     C_3   0.431683 0.348350 0.927554 -0.480146
C50   C     C_3   0.432169 0.346722 0.081328 -0.505949
C51   C     C_R   0.178054 0.586141 0.420049 0.513947
C52   C     C_R   0.275333 0.570499 0.574226 -0.184299
C53   C     C_R   0.325418 0.574620 0.585936 -0.051618
C54   C     C_R   0.331172 0.419687 0.407226 -0.221457
H1    H     H_    0.352832 0.360981 0.342296 0.157689
H2    H     H_    0.253060 0.628332 0.638554 0.166917
H3    H     H_    0.121576 0.766118 0.318258 0.193326
H4    H     H_    0.966221 0.792336 0.399280 0.155980
H5    H     H_    0.652439 0.429956 0.292136 0.189292
H6    H     H_    0.880819 0.791381 0.410284 0.221605
H7    H     H_    0.740944 0.425972 0.291149 0.150074
H8    H     H_    0.035866 0.768458 0.323411 0.147671
H9    H     H_    0.516221 0.116661 0.280111 0.173478
H10   H     H_    0.515847 0.890172 0.278880 0.201339
H11   H     H_    0.446863 0.880933 0.727227 0.225391
H12   H     H_    0.503049 0.881331 0.831436 0.207741
H13   H     H_    0.446579 0.104486 0.728747 0.213658
H14   H     H_    0.502945 0.104262 0.833488 0.206636
H15   H     H_    0.569014 0.581213 0.866764 0.180193
H16   H     H_    0.395023 0.359970 0.885168 0.236505
H17   H     H_    0.453105 0.272771 0.882207 0.200742
H18   H     H_    0.395691 0.357416 0.127172 0.209370
H19   H     H_    0.453894 0.269639 0.124941 0.211788
H20   H     H_    0.120754 0.202765 0.634526 0.194330
H21   H     H_    0.653384 0.559972 0.705113 0.171172
H22   H     H_    0.741832 0.553431 0.702630 0.147432
H23   H     H_    0.964510 0.176024 0.578696 0.154982
H24   H     H_    0.035282 0.196899 0.637356 0.148556
N1    N     N_R   0.201819 0.487712 0.476558 -0.353975
N2    N     N_R   0.798123 0.487005 0.495846 -0.360565
N3    N     N_R   0.499670 0.499140 0.142800 -0.151507
N4    N     N_R   0.499670 0.499180 0.857150 -0.123988
O1    O     O_R   0.500010 0.316790 0.614690 -0.616980
O2    O     O_2   0.793521 0.271993 0.540042 -0.513579
O3    O     O_2   0.203283 0.683025 0.364243 -0.540492
O4    O     O_2   0.798983 0.701658 0.442260 -0.533639
O5    O     O_R   0.500000 0.316760 0.385350 -0.632244
O6    O     O_R   0.428760 0.500040 0.614660 -0.575136
O7    O     O_R   0.428750 0.500000 0.385310 -0.619158
O8    O     O_R   0.500000 0.683240 0.614650 -0.623879
O9    O     O_R   0.499990 0.683210 0.385310 -0.583468
O10   O     O_R   0.571250 0.500000 0.614690 -0.630201
O11   O     O_R   0.571240 0.499960 0.385340 -0.604164
O12   O     O_2   0.202611 0.292795 0.589673 -0.542859
Zn1   Zn    Zn3+2 0.500000 0.500020 0.653130 0.972319
Zn2   Zn    Zn3+2 0.500000 0.499980 0.346870 0.983321
C55   C     C_3   0.259291 0.333945 0.289058 -0.825415
H25   H     H_    0.275341 0.358278 0.188448 0.234887
H26   H     H_    0.267070 0.234483 0.313068 0.256965
H27   H     H_    0.219667 0.344458 0.281652 0.240206
C56   C     C_2   0.579932 0.610565 0.130187 0.938581
O13   O     O_2   0.573851 0.693102 0.212725 -0.613224
O14   O     O_R   0.626564 0.582215 0.085579 -0.836385
H28   H     H_    0.652276 0.633713 0.132306 0.349622
C57   C     C_2   0.873159 0.144986 0.610569 1.005363
O15   O     O_2   0.881597 0.046351 0.553873 -0.636244
O16   O     O_R   0.843149 0.146194 0.725364 -0.750753
H29   H     H_    0.829664 0.060070 0.749749 0.356964
C58   C     C_2   0.346572 0.664707 0.681786 0.909329
O17   O     O_2   0.337449 0.776000 0.670437 -0.616256
O18   O     O_R   0.374787 0.622413 0.788746 -0.794144
H30   H     H_    0.386791 0.693110 0.847563 0.332722

loop_
_geom_bond_atom_site_label_1
_geom_bond_atom_site_label_2
_ccdc_geom_bond_type
C10   C27   A    
C1    O5    A    
C44   C48   A    
C21   C26   A    
C56   O13   D    
C41   C42   S    
O18   H30   S    
C34   O11   A    
C32   H4    S    
C19   O4    S    
C3    N1    S    
C51   O3    S    
C55   H25   S    
O8    Zn1   S    
C39   H10   S    
C57   O16   S    
C21   H22   S    
C28   C29   A    
C36   C37   A    
C58   O18   S    
C5    C6    A    
C9    C22   A    
C47   N4    A    
C44   C50   S    
C23   C40   S    
C18   C19   A    
C14   H23   S    
C50   H18   S    
C47   H15   S    
C55   H26   S    
O9    Zn2   S    
C54   H1    S    
C2    C55   S    
C43   H14   S    
C42   H11   S    
O16   H29   S    
C16   C20   A    
O6    Zn1   S    
C56   O14   S    
C21   C22   A    
C27   C30   A    
C36   C41   A    
C22   H21   S    
C4    C7    A    
C45   O12   S    
C4    C28   A    
C6    H20   S    
C34   O10   A    
C46   C56   S    
C7    C31   A    
C20   N2    A    
C12   O7    A    
C24   C25   A    
C44   N3    A    
C2    C54   A    
C50   H19   S    
C8    C54   A    
C39   C40   A    
N3    Zn2   S    
C12   O6    A    
C16   C17   A    
C25   C26   A    
C5    C45   A    
O10   Zn1   S    
C26   N2    S    
C37   C38   A    
C46   N3    A    
C8    C12   S    
O1    Zn1   S    
O5    Zn2   S    
C17   C18   A    
C23   O8    A    
C45   N1    A    
C25   H7    S    
C33   H6    S    
C48   C49   S    
C6    C30   A    
C11   C32   A    
O11   Zn2   S    
C49   H16   S    
C20   O2    S    
C10   C14   A    
C9    C34   S    
C31   C35   A    
C42   C43   S    
O14   H28   S    
C55   H27   S    
C52   C53   A    
C38   H9    S    
C53   C58   S    
C46   C47   A    
C40   C41   A    
N4    Zn1   S    
C4    C5    A    
C10   C13   A    
C8    C53   A    
C3    C52   A    
C9    C24   A    
C1    C37   S    
C1    O1    A    
C57   O15   D    
C29   C35   A    
C13   C17   A    
C32   C33   A    
C15   C57   S    
O7    Zn2   S    
C2    C3    A    
C7    C51   A    
C58   O17   D    
C11   C13   A    
C31   H3    S    
C38   C39   A    
C24   H5    S    
C48   N4    A    
C35   H8    S    
C23   O9    A    
C19   N2    A    
C18   C33   A    
C51   N1    A    
C30   H24   S    
C52   H2    S    
C11   C29   A    
C43   H13   S    
C49   C50   S    
C49   H17   S    
C27   C28   A    
C42   H12   S    
C14   C15   A    
C36   C43   S    
C15   C16   A    
