data_mof_unit_22407.cif
_audit_creation_date              2012-10-26T19:39:56-0400
_audit_creation_method            fapswitch 2.2
_symmetry_space_group_name_H-M    P1
_symmetry_Int_Tables_number       1
_space_group_crystal_system       triclinic
_cell_length_a                    14.935104
_cell_length_b                    8.67799
_cell_length_c                    7.613251
_cell_angle_alpha                 103.891591
_cell_angle_beta                  94.229339
_cell_angle_gamma                 94.823053
_cell_volume                      949.965314455

loop_
_atom_site_label
_atom_site_type_symbol
_atom_type_description
_atom_site_fract_x
_atom_site_fract_y
_atom_site_fract_z
_atom_type_partial_charge
C1    C     C_R   0.497021 0.199879 0.452643 0.535794
C2    C     C_R   0.178361 0.357996 0.431457 -0.149173
C3    C     C_R   0.766676 0.500321 0.493721 0.001370
C4    C     C_R   0.233323 0.499677 0.506279 0.001370
C5    C     C_R   0.803103 0.359634 0.418818 -0.136463
C6    C     C_R   0.196897 0.640363 0.581180 -0.136463
C7    C     C_R   0.896430 0.358412 0.422078 -0.006613
C8    C     C_R   0.103569 0.641583 0.577924 -0.006614
C9    C     C_R   0.953155 0.501214 0.498477 0.037646
C10   C     C_R   0.046844 0.498781 0.501528 0.037646
C11   C     C_R   0.915829 0.646053 0.571249 0.013204
C12   C     C_R   0.502978 0.800120 0.547357 0.535794
C13   C     C_R   0.084171 0.353943 0.428758 0.013205
C14   C     C_R   0.933055 0.215536 0.352026 -0.115174
C15   C     C_R   0.066944 0.784459 0.647979 -0.115172
C16   C     C_3   0.067511 0.052280 0.287903 -0.277350
C17   C     C_3   0.000765 0.903117 0.212372 -0.440562
C18   C     C_3   0.932489 0.947713 0.712117 -0.277352
C19   C     C_3   0.999234 0.096878 0.787647 -0.440577
C20   C     C_3   0.390621 0.369743 0.941057 -0.040562
C21   C     C_3   0.364331 0.213101 0.994168 -0.291437
C22   C     C_3   0.283773 0.115479 0.869453 -0.516922
C23   C     C_R   0.026970 0.209761 0.355351 0.010866
C24   C     C_3   0.609380 0.630254 0.058944 -0.040557
C25   C     C_3   0.635679 0.786891 0.005827 -0.291443
C26   C     C_3   0.716250 0.884490 0.130516 -0.516922
C27   C     C_R   0.973030 0.790234 0.644659 0.010866
C28   C     C_2   0.495514 0.030693 0.427541 -0.163512
C29   C     C_2   0.504483 0.969307 0.572459 -0.163512
C30   C     C_R   0.329614 0.500535 0.502047 0.538656
C31   C     C_R   0.670386 0.499464 0.497953 0.538655
C32   C     C_R   0.821639 0.642000 0.568546 -0.149172
Cu1   Cu    Cu3+1 0.510010 0.517380 0.684380 0.904094
Cu2   Cu    Cu3+1 0.489990 0.482620 0.315620 0.904092
H1    H     H_    0.789304 0.747750 0.623610 0.087096
H2    H     H_    0.957840 0.915999 0.093081 0.148580
H3    H     H_    0.038598 0.797835 0.168576 0.153999
H4    H     H_    0.111340 0.064033 0.179298 0.134857
H5    H     H_    0.111039 0.029884 0.402071 0.139452
H6    H     H_    0.042158 0.083999 0.906930 0.148583
H7    H     H_    0.042516 0.119544 0.682727 0.157728
H8    H     H_    0.961402 0.202153 0.831450 0.153998
H9    H     H_    0.888958 0.970111 0.597955 0.139453
H10   H     H_    0.888664 0.935954 0.820726 0.134857
H11   H     H_    0.224808 0.185914 0.874810 0.149058
H12   H     H_    0.210695 0.252247 0.376393 0.087096
H13   H     H_    0.301146 0.079795 0.726895 0.145700
H14   H     H_    0.264809 0.005706 0.914745 0.144814
H15   H     H_    0.422208 0.139874 0.983050 0.171188
H16   H     H_    0.344208 0.235440 0.133822 0.205484
H17   H     H_    0.335276 0.448165 0.963410 0.139872
H18   H     H_    0.396743 0.327698 0.797759 0.198485
H19   H     H_    0.698890 0.920177 0.273083 0.145694
H20   H     H_    0.775209 0.814036 0.125137 0.149066
H21   H     H_    0.735219 0.994263 0.085227 0.144809
H22   H     H_    0.655788 0.764550 0.866165 0.205500
H23   H     H_    0.758578 0.250820 0.361866 0.103238
H24   H     H_    0.577812 0.860137 0.016970 0.171172
H25   H     H_    0.603258 0.672306 0.202242 0.198477
H26   H     H_    0.664723 0.551825 0.036599 0.139877
H27   H     H_    0.241422 0.749177 0.638129 0.103237
H28   H     H_    0.887176 0.108792 0.296879 0.111336
H29   H     H_    0.112824 0.891203 0.703125 0.111337
H30   H     H_    0.486906 0.956534 0.289158 0.127025
H31   H     H_    0.513091 0.043466 0.710841 0.127026
H32   H     H_    0.957481 0.880460 0.317299 0.157731
N1    N     N_2   0.474890 0.456420 0.038520 -0.147167
N2    N     N_2   0.525110 0.543580 0.961480 -0.147163
O1    O     O_R   0.506510 0.286130 0.619770 -0.516976
O2    O     O_R   0.493490 0.713870 0.380230 -0.516975
O3    O     O_R   0.489600 0.256770 0.308360 -0.515803
O4    O     O_R   0.510400 0.743230 0.691640 -0.515800
O5    O     O_R   0.378710 0.514640 0.655720 -0.530731
O6    O     O_R   0.621290 0.485360 0.344280 -0.530732
O7    O     O_R   0.361800 0.485290 0.344300 -0.511090
O8    O     O_R   0.638200 0.514710 0.655700 -0.511091

loop_
_geom_bond_atom_site_label_1
_geom_bond_atom_site_label_2
_ccdc_geom_bond_type
C22   H14   S    
C12   C29   S    
C20   N1    S    
C25   H22   S    
C26   H21   S    
C21   H15   S    
C2    H12   S    
C17   H32   S    
C1    O3    A    
C6    H27   S    
C28   C29   D    
C20   H17   S    
C14   H28   S    
C13   C23   A    
C18   C19   S    
C2    C13   A    
Cu1   O4    S    
C7    C14   A    
C16   C17   S    
C1    C28   S    
C17   H2    S    
C9    C10   A    
Cu2   O2    S    
C19   H8    S    
Cu1   O1    S    
Cu2   O7    S    
C22   H13   S    
C12   O4    A    
C21   C22   S    
C26   H20   S    
C21   H16   S    
N1    N2    D    
C32   H1    S    
C24   C25   S    
C4    C6    A    
C5    C7    A    
C30   O5    A    
C31   O6    A    
C6    C8    A    
C25   C26   S    
C1    O1    A    
C14   C23   A    
C2    C4    A    
C18   H10   S    
Cu1   O8    S    
C15   C27   A    
C11   C27   A    
C24   H26   S    
Cu1   Cu2   S    
C17   H3    S    
C3    C31   S    
C9    C11   A    
Cu2   O6    S    
C29   H31   S    
C28   H30   S    
Cu1   O5    S    
C11   C32   A    
C16   C23   S    
C25   H24   S    
C26   H19   S    
C7    C9    A    
C12   O2    A    
C18   C27   S    
C3    C5    A    
C10   C13   A    
Cu2   N1    S    
C8    C15   A    
C5    H23   S    
C20   H18   S    
C18   H9    S    
C30   O7    A    
C31   O8    A    
C24   H25   S    
C3    C32   A    
C19   H6    S    
C24   N2    S    
C16   H5    S    
C22   H11   S    
C20   C21   S    
C8    C10   A    
C15   H29   S    
Cu2   O3    S    
C4    C30   S    
C19   H7    S    
Cu1   N2    S    
C16   H4    S    
