data_mof_unit_14843.cif
_audit_creation_date              2012-12-10T19:45:38-0500
_audit_creation_method            fapswitch 2.2
_symmetry_space_group_name_H-M    P1
_symmetry_Int_Tables_number       1
_space_group_crystal_system       triclinic
_cell_length_a                    10.821396
_cell_length_b                    14.654284
_cell_length_c                    14.827795
_cell_angle_alpha                 64.829581
_cell_angle_beta                  103.430537
_cell_angle_gamma                 103.356347
_cell_volume                      2046.43553171

loop_
_atom_site_label
_atom_site_type_symbol
_atom_type_description
_atom_site_fract_x
_atom_site_fract_y
_atom_site_fract_z
_atom_type_partial_charge
C1    C     C_R   0.478078 0.119904 0.312659 0.799016
C2    C     C_R   0.524928 0.879985 0.687310 0.795202
C3    C     C_R   0.870490 0.001979 0.495127 -0.078653
C4    C     C_R   0.129298 0.998518 0.504907 -0.079569
C5    C     C_R   0.906238 0.959858 0.436800 0.020070
C6    C     C_R   0.093412 0.043673 0.560821 0.019269
C7    C     C_R   0.462528 0.187077 0.205646 -0.072292
C8    C     C_R   0.559608 0.812052 0.792502 -0.069436
C9    C     C_R   0.363011 0.215951 0.033192 0.006472
C10   C     C_R   0.699127 0.780444 0.953403 0.008143
C11   C     C_R   0.386378 0.150820 0.134654 -0.249758
C12   C     C_R   0.649698 0.848150 0.858529 -0.252664
C13   C     C_R   0.518818 0.288937 0.175782 -0.259092
C14   C     C_R   0.515948 0.707894 0.821764 -0.254402
C15   C     C_R   0.502683 0.356865 0.074177 0.081510
C16   C     C_R   0.565432 0.636857 0.914910 0.074086
C17   C     C_R   0.423540 0.319487 0.001985 0.096602
C18   C     C_R   0.654695 0.674021 0.983111 0.100624
C19   C     C_R   0.558917 0.461806 0.043306 0.067763
C20   C     C_R   0.525685 0.529962 0.942361 0.065166
C21   C     C_R   0.456817 0.488904 0.871260 -0.210149
C22   C     C_R   0.647561 0.500999 0.109583 -0.207014
C23   C     C_R   0.262740 0.998866 0.502588 0.790284
C24   C     C_R   0.737151 0.001229 0.497450 0.792753
C25   C     C_R   0.408646 0.385900 0.900494 -0.229398
C26   C     C_R   0.695559 0.604266 0.079505 -0.199210
C27   C     C_R   0.709625 0.283190 0.670623 -0.309106
C28   C     C_R   0.284601 0.713863 0.333732 -0.306301
C29   C     C_R   0.677782 0.201917 0.640370 0.079895
C30   C     C_R   0.318062 0.795972 0.362758 0.086637
C31   C     C_R   0.519918 0.285767 0.508308 0.034567
C32   C     C_R   0.482519 0.715480 0.489917 0.030073
C33   C     C_R   0.548454 0.371556 0.534783 -0.008147
C34   C     C_R   0.452337 0.628853 0.464722 0.006051
C35   C     C_R   0.645504 0.368128 0.618257 0.167693
C36   C     C_R   0.352032 0.630636 0.383634 0.179989
C37   C     C_R   0.483509 0.458977 0.483079 0.127571
C38   C     C_R   0.517691 0.541637 0.516152 0.130592
C39   C     C_R   0.614726 0.533684 0.600187 -0.196454
C40   C     C_R   0.384602 0.466056 0.400316 -0.168806
C41   C     C_R   0.677119 0.448727 0.649834 -0.171042
C42   C     C_R   0.319795 0.549764 0.352453 -0.146649
C43   C     C_R   0.371043 0.097221 0.751571 -0.162661
C44   C     C_R   0.636432 0.947063 0.224872 -0.191416
C45   C     C_R   0.280749 0.044908 0.698992 -0.090000
C46   C     C_R   0.728890 0.985035 0.288600 -0.097605
C47   C     C_R   0.186302 0.095257 0.622174 0.065089
C48   C     C_R   0.812430 0.921781 0.365114 0.065489
C49   C     C_R   0.178892 0.196368 0.603808 -0.194734
C50   C     C_R   0.805852 0.821647 0.373427 -0.190445
C51   C     C_R   0.265683 0.246965 0.659415 0.302404
C52   C     C_R   0.714806 0.784553 0.308244 0.320210
C53   C     C_R   0.363352 0.198075 0.732030 -0.134770
C54   C     C_R   0.628807 0.846728 0.235114 -0.156538
C55   C     C_R   0.963692 0.043303 0.555771 -0.244273
C56   C     C_R   0.035632 0.956684 0.444464 -0.238631
Cu1   Cu    Cu3+1 0.466270 0.918260 0.475690 0.944948
Cu2   Cu    Cu3+1 0.533730 0.081740 0.524310 0.939193
H1    H     H_    0.431761 0.237417 0.774477 0.147014
H2    H     H_    0.557538 0.817912 0.185186 0.149609
H3    H     H_    0.441999 0.534346 0.791317 0.166425
H4    H     H_    0.685306 0.453558 0.185024 0.158809
H5    H     H_    0.750753 0.445919 0.714193 0.140688
H6    H     H_    0.243648 0.551321 0.289886 0.134198
H7    H     H_    0.559696 0.722401 0.548247 0.123865
H8    H     H_    0.445883 0.280449 0.447556 0.125206
H9    H     H_    0.266896 0.860800 0.323746 0.113529
H10   H     H_    0.726469 0.135845 0.681221 0.113137
H11   H     H_    0.782988 0.279432 0.735144 0.129325
H12   H     H_    0.206602 0.715229 0.272668 0.137472
H13   H     H_    0.644196 0.591575 0.630616 0.126190
H14   H     H_    0.353692 0.407561 0.370744 0.123823
H15   H     H_    0.445540 0.058927 0.808847 0.131428
H16   H     H_    0.570975 0.995563 0.167292 0.138361
H17   H     H_    0.286325 0.966208 0.716287 0.110736
H18   H     H_    0.733851 0.063041 0.279636 0.111270
H19   H     H_    0.105532 0.235965 0.546149 0.164035
H20   H     H_    0.870402 0.772228 0.431079 0.162294
H21   H     H_    0.935240 0.074830 0.600806 0.152939
H22   H     H_    0.063724 0.925390 0.399088 0.154538
H23   H     H_    0.358689 0.358818 0.842521 0.199101
H24   H     H_    0.762777 0.629123 0.133971 0.198968
H25   H     H_    0.441518 0.684118 0.770339 0.155465
H26   H     H_    0.572278 0.313659 0.234319 0.157312
H27   H     H_    0.686916 0.928892 0.834157 0.145356
H28   H     H_    0.338902 0.072355 0.159449 0.146493
N1    N     N_R   0.584450 0.204570 0.560790 -0.176390
N2    N     N_R   0.415550 0.795430 0.439210 -0.176662
O1    O     O_R   0.455540 0.022090 0.338120 -0.589180
O2    O     O_R   0.544460 0.977910 0.661880 -0.594576
O3    O     O_R   0.512510 0.160150 0.379180 -0.588374
O4    O     O_R   0.487490 0.839850 0.620820 -0.585286
O5    O     O_R   0.291160 0.930970 0.479480 -0.586546
O6    O     O_R   0.708840 0.069030 0.520520 -0.588490
O7    O     O_R   0.348130 0.069020 0.520540 -0.574098
O8    O     O_R   0.651870 0.930980 0.479460 -0.572241
C57   C     C_R   0.266163 0.173885 0.965674 0.089441
C58   C     C_R   0.274327 0.079638 0.965100 -0.176077
C59   C     C_R   0.176685 0.034662 0.909912 -0.101674
C60   C     C_R   0.070521 0.083389 0.854188 -0.081771
C61   C     C_R   0.061177 0.176692 0.854489 -0.103042
C62   C     C_R   0.157520 0.221285 0.910781 -0.131496
H29   H     H_    0.355837 0.040579 0.008009 0.113640
H30   H     H_    0.183610 0.962076 0.910096 0.123183
H31   H     H_    0.995365 0.048701 0.811093 0.111777
H32   H     H_    0.978573 0.213996 0.811936 0.123007
H33   H     H_    0.146332 0.291909 0.912799 0.137107
C63   C     C_R   0.803399 0.823892 0.015264 0.108541
C64   C     C_R   0.926572 0.796004 0.040072 -0.163897
C65   C     C_R   0.027016 0.842097 0.092399 -0.128560
C66   C     C_R   0.005650 0.916446 0.120178 -0.079379
C67   C     C_R   0.883991 0.945686 0.094574 -0.108797
C68   C     C_R   0.783308 0.900121 0.041800 -0.137975
H34   H     H_    0.945211 0.739908 0.017363 0.125646
H35   H     H_    0.122086 0.821669 0.109514 0.111675
H36   H     H_    0.083768 0.952395 0.160229 0.108095
H37   H     H_    0.867928 0.004180 0.115023 0.131696
H38   H     H_    0.689847 0.924387 0.021346 0.116664
Br1   Br    Br    0.247531 0.381841 0.636991 -0.608406
Br2   Br    Br    0.709223 0.649488 0.318295 -0.593283

loop_
_geom_bond_atom_site_label_1
_geom_bond_atom_site_label_2
_ccdc_geom_bond_type
C43   H15   S    
C31   H8    S    
C61   C62   A    
C1    O1    A    
Cu1   O4    S    
C27   C29   A    
C5    C56   A    
C36   C42   A    
C66   C67   A    
C18   C26   A    
C6    C55   A    
Cu2   N1    S    
C46   H18   S    
C57   C58   A    
C53   H1    S    
C39   C41   A    
C54   H2    S    
C7    C11   A    
C13   H26   S    
C60   H31   S    
Cu1   O1    S    
C12   H27   S    
C23   O7    A    
C37   C40   A    
C24   O8    A    
C38   C39   A    
C11   H28   S    
C58   H29   S    
C32   N2    A    
C63   C64   A    
C2    O2    A    
C65   C66   A    
C3    C55   A    
C43   C53   A    
C19   C20   A    
C44   C46   A    
C49   C51   A    
Cu1   O8    S    
C51   Br1   S    
C31   C33   A    
C66   H36   S    
Cu2   O3    S    
C21   H3    S    
C30   H9    S    
C27   H11   S    
C8    C12   A    
C9    C11   A    
C40   C42   A    
C59   H30   S    
C26   H24   S    
C1    C7    S    
C4    C56   A    
C25   H23   S    
C3    C24   S    
C14   H25   S    
C50   H20   S    
C67   C68   A    
C52   C54   A    
C45   C47   A    
C5    C48   S    
C46   C48   A    
C31   N1    A    
C6    C47   S    
C44   H16   S    
C19   C22   A    
C4    C6    A    
C4    C23   S    
C27   C35   A    
C33   C37   A    
C23   O5    A    
C51   C53   A    
C32   C34   A    
C63   C68   A    
C15   C19   A    
Cu2   O7    S    
C37   C38   A    
C24   O6    A    
C22   H4    S    
C29   H10   S    
C55   H21   S    
C50   C52   A    
C59   C60   A    
C16   C20   A    
C62   H33   S    
C16   C18   A    
C2    O4    A    
C43   C45   A    
C10   C12   A    
C64   H34   S    
Cu2   O2    S    
C9    C57   S    
C52   Br2   S    
C9    C17   A    
C13   C15   A    
C14   C16   A    
C41   H5    S    
C30   N2    A    
C42   H6    S    
C61   H32   S    
C15   C17   A    
C21   C25   A    
C8    C14   A    
C40   H14   S    
C34   C38   A    
C28   H12   S    
C57   C62   A    
C3    C5    A    
C47   C49   A    
C56   H22   S    
Cu1   N2    S    
C45   H17   S    
C17   C25   A    
C28   C30   A    
Cu2   O6    S    
C10   C63   S    
C64   C65   A    
Cu1   Cu2   S    
C67   H37   S    
C10   C18   A    
C48   C50   A    
C60   C61   A    
C33   C35   A    
C49   H19   S    
C34   C36   A    
C35   C41   A    
C29   N1    A    
C68   H38   S    
C44   C54   A    
C7    C13   A    
C20   C21   A    
C28   C36   A    
C1    O3    A    
C58   C59   A    
C22   C26   A    
C2    C8    S    
C39   H13   S    
Cu1   O5    S    
C65   H35   S    
C32   H7    S    
