data_mof_unit_37113.cif
_audit_creation_date              2013-03-05T16:32:17-0500
_audit_creation_method            fapswitch 2.2
_symmetry_space_group_name_H-M    P1
_symmetry_Int_Tables_number       1
_space_group_crystal_system       triclinic
_cell_length_a                    15.9119
_cell_length_b                    10.85297
_cell_length_c                    9.577504
_cell_angle_alpha                 90.494756
_cell_angle_beta                  89.455543
_cell_angle_gamma                 90.489405
_cell_volume                      1653.75679606

loop_
_atom_site_label
_atom_site_type_symbol
_atom_site_description
_atom_site_fract_x
_atom_site_fract_y
_atom_site_fract_z
_atom_type_partial_charge
O1    O     O_R   0.500000 0.319640 0.618810 -0.552911
O2    O     O_R   0.500010 0.319680 0.381230 -0.540036
C1    C     C_R   0.504122 0.263009 0.499034 0.831463
O3    O     O_R   0.379430 0.499990 0.618840 -0.499689
O4    O     O_R   0.379440 0.500030 0.381260 -0.601430
C2    C     C_R   0.340495 0.500301 0.500603 0.816412
Cu1   Cu    Cu3+1 0.500000 0.499980 0.640670 1.040321
Cu2   Cu    Cu3+1 0.500000 0.500020 0.359330 1.016976
O5    O     O_R   0.499990 0.680320 0.618770 -0.576318
O6    O     O_R   0.500000 0.680360 0.381190 -0.604750
O7    O     O_R   0.620560 0.499970 0.618740 -0.578993
O8    O     O_R   0.620570 0.500010 0.381160 -0.528506
C3    C     C_R   0.501410 0.737165 0.500528 0.843384
C4    C     C_R   0.659488 0.500765 0.499570 0.808530
C5    C     C_3   0.048292 0.390089 0.585937 -0.086174
C6    C     C_3   0.050296 0.511428 0.349231 0.741189
C7    C     C_3   0.951449 0.491338 0.354612 -0.046272
H1    H     H_    0.060787 0.313187 0.517001 0.150545
H2    H     H_    0.923033 0.569142 0.297577 0.167586
C8    C     C_1   0.748662 0.502682 0.500074 0.029760
C9    C     C_3   0.083736 0.507472 0.506019 -0.230151
C10   C     C_3   0.948956 0.396311 0.609135 0.404774
C11   C     C_3   0.916269 0.504926 0.510899 -0.368018
C12   C     C_3   0.949438 0.636846 0.570372 0.390211
C13   C     C_3   0.048995 0.623041 0.590831 0.062834
C14   C     C_1   0.823923 0.504092 0.504630 0.288639
C15   C     C_1   0.176024 0.505192 0.503517 0.218389
C16   C     C_1   0.251297 0.502686 0.501938 -0.085275
H3    H     H_    0.059069 0.598605 0.701047 0.196219
C17   C     C_R   0.491542 0.064132 0.615145 -0.123120
C18   C     C_R   0.511756 0.130415 0.496659 -0.205366
C19   C     C_R   0.537387 0.062082 0.376406 0.352174
C20   C     C_R   0.532658 0.932370 0.378701 -0.259023
H4    H     H_    0.550901 0.881032 0.286271 0.172320
C21   C     C_R   0.507331 0.869636 0.500386 -0.113569
C22   C     C_R   0.490202 0.940004 0.618348 0.013562
C23   C     C_3   0.460147 0.934596 0.766661 0.259525
C24   C     C_3   0.460641 0.077094 0.762373 0.289989
H5    H     H_    0.507124 0.892733 0.836635 0.085600
H6    H     H_    0.396751 0.117299 0.766824 0.142381
C25   C     C_R   0.570695 0.531508 0.072258 0.306203
N1    N     N_R   0.500530 0.500930 0.147930 -0.244513
C26   C     C_R   0.434527 0.451757 0.076089 -0.183972
H7    H     H_    0.381854 0.417264 0.136067 0.159770
C27   C     C_R   0.434702 0.447239 0.925524 0.607298
N2    N     N_R   0.500530 0.500890 0.852020 -0.231770
C28   C     C_R   0.570625 0.531342 0.925709 0.124970
C29   C     C_3   0.619731 0.648068 0.918027 -0.501517
C30   C     C_3   0.619111 0.649848 0.077440 0.232114
H8    H     H_    0.682929 0.633427 0.870685 0.275963
H9    H     H_    0.583632 0.723887 0.871681 0.159840
H10   H     H_    0.582226 0.725777 0.126296 0.081392
N3    N     N_R   0.909714 0.275012 0.572763 0.181520
O9    O     O_R   0.828951 0.258606 0.587737 -0.282419
O10   O     O_R   0.954662 0.176977 0.550090 -0.261195
N4    N     N_R   0.094412 0.355835 0.712909 0.178119
O11   O     O_R   0.147079 0.430611 0.774274 -0.356126
O12   O     O_R   0.082851 0.246568 0.765030 -0.248227
N5    N     N_R   0.924115 0.423429 0.756699 0.173546
O13   O     O_R   0.977544 0.457128 0.851879 -0.264929
O14   O     O_R   0.845150 0.418259 0.793375 -0.264513
N6    N     N_R   0.926169 0.736286 0.471711 0.149588
O15   O     O_R   0.847170 0.756020 0.446816 -0.364711
O16   O     O_R   0.980110 0.815652 0.422190 -0.225607
N7    N     N_R   0.570916 0.120450 0.254027 0.133386
O17   O     O_R   0.630463 0.202786 0.265430 -0.297830
O18   O     O_R   0.555605 0.072583 0.131989 -0.378504
O19   O     O_3   0.378173 0.884130 0.774224 -0.554405
C31   C     C_3   0.357195 0.862256 0.915162 -0.210149
H11   H     H_    0.362245 0.948048 0.979273 0.160200
H12   H     H_    0.397327 0.788779 0.958975 0.141521
H13   H     H_    0.291005 0.829627 0.921025 0.210819
O20   O     O_3   0.515643 0.135140 0.860371 -0.563185
C32   C     C_3   0.602248 0.125397 0.826571 -0.059674
H14   H     H_    0.618856 0.181564 0.733871 0.166088
H15   H     H_    0.621556 0.028148 0.810617 0.125363
H16   H     H_    0.639269 0.163418 0.914728 0.233117
O21   O     O_3   0.369345 0.394348 0.849065 -0.540941
C33   C     C_3   0.318365 0.311080 0.925026 -0.260759
H17   H     H_    0.279362 0.257875 0.849985 0.227835
H18   H     H_    0.274369 0.361613 0.995291 0.187972
H19   H     H_    0.356451 0.243446 0.983367 0.153963
O22   O     O_3   0.699734 0.630972 0.133275 -0.534684
C34   C     C_3   0.740828 0.745673 0.149251 -0.097309
H20   H     H_    0.711109 0.800326 0.234897 0.162422
H21   H     H_    0.741633 0.799079 0.050477 0.171317
H22   H     H_    0.807136 0.728915 0.177579 0.220019
O23   O     O_3   0.064931 0.635077 0.304528 -0.563326
C35   C     C_3   0.060890 0.651457 0.157973 0.006499
H23   H     H_    0.008765 0.598683 0.108775 0.197107
H24   H     H_    0.121685 0.625875 0.108127 0.186102
H25   H     H_    0.050330 0.750442 0.137023 0.187450
O24   O     O_3   0.094331 0.434143 0.249174 -0.576091
C36   C     C_3   0.107743 0.308855 0.278246 -0.195843
H26   H     H_    0.049294 0.258028 0.304913 0.217522
H27   H     H_    0.158129 0.297367 0.356074 0.125420
H28   H     H_    0.131767 0.264663 0.181121 0.214327
N8    N     N_R   0.922574 0.382538 0.273908 0.138389
O25   O     O_R   0.858526 0.316601 0.314583 -0.256418
O26   O     O_R   0.943564 0.374866 0.142479 -0.233063
N9    N     N_R   0.097080 0.739623 0.576649 0.207629
O27   O     O_R   0.083386 0.828690 0.665599 -0.237201
O28   O     O_R   0.156937 0.754218 0.484567 -0.286873
N10   N     N_R   0.908933 0.669439 0.706344 0.174878
O29   O     O_R   0.827564 0.678364 0.715988 -0.324849
O30   O     O_R   0.952749 0.714449 0.809336 -0.302247

loop_
_geom_bond_atom_site_label_1
_geom_bond_atom_site_label_2
_geom_bond_distance
_ccdc_geom_bond_type
C5    H1    1.078353 S    
C6    C9    1.598935 S    
O20   C32   1.417182 S    
C21   C22   1.384467 A    
C34   H22   1.108822 S    
N10   O30   1.302555 A    
Cu1   Cu2   2.694539 S    
C27   N2    1.383625 A    
Cu1   O7    1.927817 S    
C6    O24   1.447837 S    
O24   C36   1.408761 S    
C32   H15   1.110652 S    
C22   C23   1.495975 S    
C5    C10   1.595992 S    
Cu2   N1    2.024731 S    
C3    C21   1.439993 S    
C17   C18   1.382723 A    
O7    C4    1.293478 A    
C23   O19   1.411829 S    
N4    O11   1.302234 A    
C17   C24   1.494809 S    
C25   N1    1.365404 A    
C11   C14   1.471141 S    
C31   H12   1.113266 S    
O5    C3    1.294192 A    
N6    O16   1.300100 A    
C20   C21   1.408651 A    
C29   H9    1.106024 S    
C2    C16   1.419709 S    
C28   C29   1.484727 S    
C6    C7    1.586450 S    
N7    O18   1.299288 A    
C32   H16   1.108803 S    
C11   C12   1.622218 S    
C27   O21   1.394366 S    
C35   H24   1.110995 S    
C7    N8    1.478032 S    
C29   H8    1.111257 S    
C9    C15   1.468854 S    
N5    O13   1.300460 A    
N9    O28   1.301486 A    
C31   H11   1.113643 S    
O3    Cu1   1.931833 S    
C25   C30   1.492712 S    
N10   O29   1.301523 A    
N9    O27   1.301336 A    
C10   N3    1.492135 S    
N3    O10   1.302606 A    
C13   H3    1.104122 S    
N5    O14   1.302317 A    
C32   H14   1.109871 S    
Cu1   N2    2.024242 S    
C4    C8    1.418956 S    
C12   C13   1.606480 S    
O3    C2    1.296001 A    
C10   N5    1.491460 S    
C33   H18   1.111297 S    
O21   C33   1.411247 S    
O19   C31   1.409060 S    
C36   H28   1.109116 S    
N3    O9    1.302592 A    
O1    C1    1.298112 A    
C31   H13   1.109346 S    
C1    C18   1.445152 S    
C26   H7    1.077866 S    
C23   C24   1.547381 S    
O4    Cu2   1.927820 S    
O22   C34   1.409022 S    
Cu2   O8    1.931830 S    
C30   H10   1.113044 S    
N6    O15   1.301539 A    
C20   H4    1.080615 S    
C25   C28   1.403573 A    
C7    C11   1.599165 S    
C34   H20   1.112347 S    
C35   H25   1.109060 S    
C36   H27   1.108428 S    
C26   C27   1.442420 A    
C29   C30   1.526680 S    
O8    C4    1.297218 A    
N7    O17   1.301533 A    
N8    O26   1.301400 A    
N1    C26   1.363469 A    
Cu1   O5    1.970232 S    
C9    C13   1.588803 S    
N2    C28   1.362331 A    
C12   N6    1.491899 S    
O1    Cu1   1.966592 S    
C18   C19   1.422773 A    
O2    Cu2   1.970232 S    
C34   H21   1.113619 S    
O6    C3    1.294228 A    
C33   H19   1.113276 S    
C17   C22   1.347750 A    
C19   C20   1.409479 A    
C30   O22   1.411772 S    
O2    C1    1.292146 A    
C23   H5    1.111254 S    
C5    N4    1.478186 S    
C24   H6    1.110033 S    
C13   N9    1.479598 S    
O4    C2    1.294989 A    
C8    C14   1.198710 T    
C7    H2    1.111320 S    
N4    O12   1.301568 A    
C36   H26   1.106178 S    
C33   H17   1.109204 S    
C5    C9    1.588472 S    
O23   C35   1.418500 S    
Cu2   O6    1.966592 S    
N8    O25   1.298963 A    
C15   C16   1.198230 T    
C6    O23   1.428655 S    
C10   C11   1.607537 S    
C12   N10   1.488761 S    
C35   H23   1.110235 S    
C19   N7    1.433477 S    
C24   O20   1.428183 S    
