data_mof_unit_22160.cif
_audit_creation_date              2013-03-05T16:15:44-0500
_audit_creation_method            fapswitch 2.2
_symmetry_space_group_name_H-M    P1
_symmetry_Int_Tables_number       1
_space_group_crystal_system       triclinic
_cell_length_a                    22.389132
_cell_length_b                    22.552718
_cell_length_c                    14.624003
_cell_angle_alpha                 90.003485
_cell_angle_beta                  90.250829
_cell_angle_gamma                 90.000449
_cell_volume                      7384.1115924

loop_
_atom_site_label
_atom_site_type_symbol
_atom_site_description
_atom_site_fract_x
_atom_site_fract_y
_atom_site_fract_z
_atom_type_partial_charge
O1    O     O_R   0.439540 0.939530 0.576170 -0.575437
O2    O     O_R   0.560460 0.060470 0.423830 -0.575417
O3    O     O_R   0.560460 0.939530 0.423830 -0.575409
O4    O     O_R   0.439540 0.060470 0.576170 -0.575408
O5    O     O_R   0.939540 0.439530 0.576170 -0.575475
O6    O     O_R   0.060460 0.560470 0.423830 -0.575497
O7    O     O_R   0.060460 0.439530 0.423830 -0.575321
O8    O     O_R   0.939540 0.560470 0.576170 -0.575348
O9    O     O_R   0.439530 0.939530 0.423800 -0.570356
O10   O     O_R   0.560470 0.060470 0.576200 -0.570364
O11   O     O_R   0.560470 0.939530 0.576200 -0.570334
O12   O     O_R   0.439530 0.060470 0.423800 -0.570341
O13   O     O_R   0.939530 0.439530 0.423800 -0.570344
O14   O     O_R   0.060470 0.560470 0.576200 -0.570349
O15   O     O_R   0.060470 0.439530 0.576200 -0.570363
O16   O     O_R   0.939530 0.560470 0.423800 -0.570362
C1    C     C_R   0.419816 0.919785 0.499887 0.827134
C2    C     C_R   0.580184 0.080215 0.500113 0.827123
C3    C     C_R   0.580183 0.919784 0.500108 0.827115
C4    C     C_R   0.419817 0.080216 0.499892 0.827104
C5    C     C_R   0.919809 0.419792 0.499888 0.827134
C6    C     C_R   0.080192 0.580206 0.500111 0.827142
C7    C     C_R   0.080174 0.419774 0.500109 0.827088
C8    C     C_R   0.919825 0.580225 0.499891 0.827096
Cu1   Cu    Cu3+1 0.500000 1.000000 0.590220 0.967361
Cu2   Cu    Cu3+1 0.500000 0.000000 0.409780 0.967368
Cu3   Cu    Cu3+1 0.000000 0.500000 0.590220 0.967361
Cu4   Cu    Cu3+1 1.000000 0.500000 0.409780 0.967368
C9    C     C_3   0.528490 0.048750 0.969315 -0.193441
C10   C     C_3   0.471510 0.951260 0.030684 -0.193433
C11   C     C_3   0.471770 0.048898 0.030695 -0.193430
C12   C     C_3   0.528231 0.951111 0.969305 -0.193418
C13   C     C_3   0.029664 0.548048 0.969279 -0.193242
C14   C     C_3   0.970335 0.451958 0.030722 -0.193264
C15   C     C_3   0.972956 0.549577 0.030660 -0.193639
C16   C     C_3   0.027045 0.450429 0.969339 -0.193582
C17   C     C_3   0.700119 0.725454 0.534254 -0.036780
C18   C     C_3   0.299876 0.274546 0.465753 -0.036785
C19   C     C_3   0.300076 0.725341 0.465860 -0.036763
C20   C     C_3   0.699930 0.274665 0.534140 -0.036800
C21   C     C_3   0.199986 0.225318 0.534384 -0.036931
C22   C     C_3   0.800012 0.774674 0.465618 -0.036924
C23   C     C_3   0.799955 0.225448 0.465974 -0.036671
C24   C     C_3   0.200045 0.774538 0.534029 -0.036670
C25   C     C_3   0.235154 0.202716 0.450422 0.143770
C26   C     C_3   0.764845 0.797281 0.549579 0.143761
C27   C     C_3   0.764697 0.202915 0.549891 0.143728
C28   C     C_3   0.235301 0.797083 0.450119 0.143699
C29   C     C_3   0.735283 0.702851 0.450285 0.143841
C30   C     C_3   0.264711 0.297145 0.549723 0.143843
C31   C     C_3   0.264818 0.702792 0.549764 0.143651
C32   C     C_3   0.735190 0.297201 0.450230 0.143659
C33   C     C_1   0.375930 0.125529 0.499966 -0.200106
C34   C     C_1   0.624070 0.874471 0.500035 -0.200114
C35   C     C_1   0.624053 0.125545 0.500057 -0.200193
C36   C     C_1   0.375946 0.874456 0.499945 -0.200239
C37   C     C_1   0.875979 0.625579 0.499951 -0.199971
C38   C     C_1   0.124018 0.374418 0.500050 -0.199946
C39   C     C_1   0.124101 0.625495 0.500041 -0.200350
C40   C     C_1   0.875905 0.374498 0.499955 -0.200323
H1    H     H_    0.447974 0.088985 0.055312 0.133363
H2    H     H_    0.552027 0.911024 0.944689 0.133371
H3    H     H_    0.552500 0.088711 0.944708 0.133330
H4    H     H_    0.447500 0.911298 0.055292 0.133337
H5    H     H_    0.950139 0.590239 0.055247 0.133335
H6    H     H_    0.049862 0.409767 0.944753 0.133339
H7    H     H_    0.054642 0.587420 0.944640 0.133309
H8    H     H_    0.945357 0.412587 0.055360 0.133305
C41   C     C_3   0.259664 0.233195 0.587241 -0.037596
C42   C     C_3   0.740333 0.766799 0.412761 -0.037600
C43   C     C_3   0.740345 0.233209 0.412901 -0.037603
C44   C     C_3   0.259653 0.766780 0.587106 -0.037616
C45   C     C_3   0.759798 0.733336 0.587103 -0.037569
C46   C     C_3   0.240198 0.266663 0.412903 -0.037566
C47   C     C_3   0.240468 0.733093 0.412778 -0.037633
C48   C     C_3   0.759539 0.266909 0.587220 -0.037636
C49   C     C_3   0.294494 0.210583 0.503010 0.037252
C50   C     C_3   0.705505 0.789416 0.496991 0.037255
C51   C     C_3   0.705426 0.210660 0.497079 0.037188
C52   C     C_3   0.294572 0.789342 0.502934 0.037211
C53   C     C_3   0.794622 0.710713 0.502879 0.037112
C54   C     C_3   0.205372 0.289280 0.497128 0.037107
C55   C     C_3   0.205547 0.710536 0.496955 0.037307
C56   C     C_3   0.794462 0.289453 0.503037 0.037312
N1    N     N_1   0.499980 0.000000 0.274190 -0.156424
N2    N     N_1   0.500020 1.000000 0.725810 -0.156425
N3    N     N_1   0.999980 0.500000 0.274190 -0.156423
N4    N     N_1   0.000020 0.500000 0.725810 -0.156422
C57   C     C_3   0.555711 0.999859 0.030924 0.244227
C58   C     C_3   0.444290 0.000151 0.969076 0.244246
C59   C     C_3   0.055700 0.498540 0.030922 0.244234
C60   C     C_3   0.944300 0.501466 0.969078 0.244162
C61   C     C_3   0.499754 0.000005 0.091606 0.044128
C62   C     C_3   0.500246 0.000004 0.908394 0.044132
C63   C     C_3   0.999756 0.500045 0.091606 0.044124
C64   C     C_3   0.000245 0.499960 0.908393 0.044081
C65   C     C_1   0.339233 0.164042 0.501145 -0.073230
C66   C     C_1   0.660767 0.835958 0.498856 -0.073235
C67   C     C_1   0.660726 0.164081 0.498907 -0.073329
C68   C     C_1   0.339272 0.835920 0.501102 -0.073349
C69   C     C_1   0.839322 0.664131 0.501082 -0.073207
C70   C     C_1   0.160672 0.335863 0.498921 -0.073202
C71   C     C_1   0.160813 0.663994 0.498844 -0.073370
C72   C     C_1   0.839196 0.335996 0.501148 -0.073352
C73   C     C_1   0.499869 0.000002 0.194200 0.124458
C74   C     C_1   0.500131 0.000002 0.805800 0.124456
C75   C     C_1   0.999870 0.500026 0.194200 0.124450
C76   C     C_1   0.000130 0.499976 0.805799 0.124419
C77   C     C_3   0.380211 0.000320 0.934313 -0.896191
H9    H     H_    0.349067 0.000403 0.993132 0.234872
H10   H     H_    0.372295 0.040470 0.892100 0.232575
H11   H     H_    0.372078 0.960214 0.892090 0.232484
C78   C     C_3   0.619790 0.999695 0.065688 -0.896162
H12   H     H_    0.650934 0.999604 0.006869 0.234869
H13   H     H_    0.627921 0.039808 0.107897 0.232546
H14   H     H_    0.627706 0.959553 0.107916 0.232560
C79   C     C_3   0.880232 0.503127 0.934321 -0.895525
H15   H     H_    0.873573 0.542931 0.890799 0.232354
H16   H     H_    0.870837 0.462689 0.893407 0.232590
H17   H     H_    0.849102 0.505002 0.993150 0.234717
C80   C     C_3   0.119768 0.496899 0.065682 -0.895948
H18   H     H_    0.126614 0.456804 0.108453 0.232392
H19   H     H_    0.150904 0.495640 0.006862 0.234806
H20   H     H_    0.128969 0.537041 0.107341 0.232670
C81   C     C_3   0.218099 0.148768 0.393081 -0.844990
H21   H     H_    0.172759 0.155163 0.363745 0.234329
H22   H     H_    0.250633 0.142956 0.336792 0.233899
H23   H     H_    0.218422 0.108387 0.436373 0.230676
C82   C     C_3   0.781905 0.851232 0.606911 -0.844993
H24   H     H_    0.827244 0.844833 0.636252 0.234332
H25   H     H_    0.781589 0.891609 0.563611 0.230681
H26   H     H_    0.749370 0.857053 0.663196 0.233891
C83   C     C_3   0.781752 0.149033 0.607372 -0.845195
H27   H     H_    0.827010 0.155550 0.636944 0.234410
H28   H     H_    0.749105 0.143149 0.663485 0.233624
H29   H     H_    0.781627 0.108634 0.564113 0.230758
C84   C     C_3   0.218239 0.850969 0.392652 -0.845218
H30   H     H_    0.172983 0.844447 0.363073 0.234415
H31   H     H_    0.218353 0.891363 0.435923 0.230754
H32   H     H_    0.250887 0.856867 0.336544 0.233621
C85   C     C_3   0.718211 0.648895 0.392970 -0.845057
H33   H     H_    0.672890 0.655317 0.363578 0.234360
H34   H     H_    0.750766 0.643029 0.336725 0.233748
H35   H     H_    0.718480 0.608530 0.436297 0.230739
C86   C     C_3   0.281777 0.351098 0.607046 -0.845042
H36   H     H_    0.327100 0.344679 0.636434 0.234357
H37   H     H_    0.281503 0.391466 0.563726 0.230739
H38   H     H_    0.249223 0.356956 0.663294 0.233761
C87   C     C_3   0.281872 0.648908 0.607240 -0.845181
H39   H     H_    0.327139 0.655413 0.636784 0.234403
H40   H     H_    0.249237 0.643040 0.663374 0.233709
H41   H     H_    0.281724 0.608506 0.563986 0.230706
C88   C     C_3   0.718147 0.351078 0.392732 -0.845147
H42   H     H_    0.672872 0.344582 0.363209 0.234387
H43   H     H_    0.718318 0.391489 0.435962 0.230700
H44   H     H_    0.750774 0.356917 0.336579 0.233753
C89   C     C_R   0.646901 0.691970 0.571150 0.125117
C90   C     C_R   0.655570 0.635161 0.608494 -0.130923
C91   C     C_R   0.607307 0.602980 0.642969 -0.140297
C92   C     C_R   0.549899 0.627136 0.640422 -0.099894
C93   C     C_R   0.540715 0.683435 0.603199 -0.138927
C94   C     C_R   0.588853 0.715669 0.568248 -0.172034
H45   H     H_    0.699826 0.615822 0.611089 0.131448
H46   H     H_    0.614444 0.559319 0.671704 0.120566
H47   H     H_    0.512528 0.602201 0.667102 0.123847
H48   H     H_    0.496158 0.702028 0.600988 0.134798
H49   H     H_    0.580032 0.758493 0.538487 0.132151
C95   C     C_R   0.353093 0.308035 0.428863 0.125103
C96   C     C_R   0.344422 0.364846 0.391528 -0.130927
C97   C     C_R   0.392684 0.397032 0.357061 -0.140299
C98   C     C_R   0.450093 0.372879 0.359605 -0.099895
C99   C     C_R   0.459279 0.316576 0.396818 -0.138941
C100  C     C_R   0.411142 0.284338 0.431761 -0.172043
H50   H     H_    0.300165 0.384184 0.388935 0.131454
H51   H     H_    0.385545 0.440695 0.328334 0.120572
H52   H     H_    0.487464 0.397816 0.332931 0.123847
H53   H     H_    0.503836 0.297985 0.399026 0.134784
H54   H     H_    0.419964 0.241512 0.461514 0.132149
C101  C     C_R   0.353377 0.691889 0.429155 0.125590
C102  C     C_R   0.344824 0.635017 0.391962 -0.130666
C103  C     C_R   0.393159 0.602869 0.357648 -0.140191
C104  C     C_R   0.450525 0.627122 0.360197 -0.099757
C105  C     C_R   0.459596 0.683485 0.397266 -0.139041
C106  C     C_R   0.411386 0.715685 0.432063 -0.171968
H55   H     H_    0.300601 0.615602 0.389361 0.131249
H56   H     H_    0.386110 0.559159 0.329032 0.120539
H57   H     H_    0.487953 0.602214 0.333638 0.123881
H58   H     H_    0.504120 0.702154 0.399475 0.134718
H59   H     H_    0.420124 0.758561 0.461705 0.132180
C107  C     C_R   0.646633 0.308125 0.570839 0.125573
C108  C     C_R   0.655192 0.365004 0.608004 -0.130655
C109  C     C_R   0.606860 0.397160 0.642311 -0.140196
C110  C     C_R   0.549493 0.372909 0.639783 -0.099761
C111  C     C_R   0.540417 0.316538 0.602743 -0.139039
C112  C     C_R   0.588624 0.284330 0.567954 -0.172005
H60   H     H_    0.699415 0.384418 0.610588 0.131252
H61   H     H_    0.613913 0.440875 0.670905 0.120537
H62   H     H_    0.512068 0.397823 0.666336 0.123882
H63   H     H_    0.495893 0.297870 0.600552 0.134716
H64   H     H_    0.579883 0.241447 0.538337 0.132167
C113  C     C_R   0.146761 0.191852 0.571292 0.125309
C114  C     C_R   0.155404 0.135015 0.608547 -0.130703
C115  C     C_R   0.107133 0.102850 0.643030 -0.140284
C116  C     C_R   0.049743 0.127052 0.640585 -0.099876
C117  C     C_R   0.040586 0.183384 0.603462 -0.138893
C118  C     C_R   0.088733 0.215602 0.568504 -0.172164
H65   H     H_    0.199647 0.115640 0.611065 0.131350
H66   H     H_    0.114249 0.059166 0.671693 0.120551
H67   H     H_    0.012365 0.102130 0.667271 0.123852
H68   H     H_    0.996044 0.202014 0.601334 0.134803
H69   H     H_    0.079934 0.258457 0.538835 0.132108
C119  C     C_R   0.853239 0.808135 0.428707 0.125326
C120  C     C_R   0.844597 0.864967 0.391429 -0.130705
C121  C     C_R   0.892870 0.897127 0.356944 -0.140281
C122  C     C_R   0.950261 0.872927 0.359412 -0.099878
C123  C     C_R   0.959417 0.816603 0.396562 -0.138888
C124  C     C_R   0.911268 0.784389 0.431520 -0.172134
H70   H     H_    0.800354 0.884340 0.388895 0.131350
H71   H     H_    0.885755 0.940806 0.328262 0.120549
H72   H     H_    0.987641 0.897846 0.332724 0.123850
H73   H     H_    0.003960 0.797976 0.398709 0.134807
H74   H     H_    0.920066 0.741541 0.461213 0.132101
C125  C     C_R   0.853245 0.191968 0.429294 0.125377
C126  C     C_R   0.844663 0.135114 0.392051 -0.130852
C127  C     C_R   0.892987 0.102940 0.357760 -0.140205
C128  C     C_R   0.950372 0.127146 0.360387 -0.099783
C129  C     C_R   0.959472 0.183489 0.397513 -0.139066
C130  C     C_R   0.911273 0.215715 0.432288 -0.171898
H75   H     H_    0.800426 0.115734 0.389392 0.131350
H76   H     H_    0.885915 0.059245 0.329102 0.120557
H77   H     H_    0.987791 0.102218 0.333845 0.123875
H78   H     H_    0.004010 0.202121 0.399784 0.134690
H79   H     H_    0.920033 0.258570 0.461984 0.132202
C131  C     C_R   0.146751 0.808007 0.570724 0.125455
C132  C     C_R   0.155328 0.864857 0.607984 -0.130812
C133  C     C_R   0.107002 0.897022 0.642288 -0.140197
C134  C     C_R   0.049619 0.872811 0.639657 -0.099770
C135  C     C_R   0.040524 0.816472 0.602514 -0.139070
C136  C     C_R   0.088726 0.784255 0.567726 -0.171876
H80   H     H_    0.199563 0.884242 0.610644 0.131323
H81   H     H_    0.114069 0.940715 0.670959 0.120553
H82   H     H_    0.012198 0.897732 0.666209 0.123875
H83   H     H_    0.995988 0.797836 0.600239 0.134682
H84   H     H_    0.079968 0.741404 0.538015 0.132197
C137  C     C_R   0.732202 0.780053 0.312080 0.119644
C138  C     C_R   0.775181 0.759752 0.249637 -0.131087
C139  C     C_R   0.768682 0.770978 0.156113 -0.139777
C140  C     C_R   0.719004 0.802180 0.123884 -0.112262
C141  C     C_R   0.675628 0.821898 0.185140 -0.139915
C142  C     C_R   0.681972 0.810737 0.278768 -0.149796
H85   H     H_    0.813818 0.735217 0.273429 0.133096
H86   H     H_    0.802118 0.755369 0.108606 0.123080
H87   H     H_    0.713950 0.810778 0.051443 0.119976
H88   H     H_    0.636828 0.845562 0.160003 0.127567
H89   H     H_    0.647068 0.825410 0.323943 0.141348
C143  C     C_R   0.267802 0.219938 0.687920 0.119642
C144  C     C_R   0.224811 0.240206 0.750367 -0.131100
C145  C     C_R   0.231317 0.228976 0.843889 -0.139769
C146  C     C_R   0.281017 0.197806 0.876112 -0.112275
C147  C     C_R   0.324407 0.178126 0.814852 -0.139933
C148  C     C_R   0.318055 0.189289 0.721226 -0.149756
H90   H     H_    0.186158 0.264718 0.726581 0.133107
H91   H     H_    0.197871 0.244559 0.891399 0.123090
H92   H     H_    0.286077 0.189207 0.948552 0.119981
H93   H     H_    0.363225 0.154488 0.839986 0.127567
H94   H     H_    0.352971 0.174648 0.676049 0.141329
C149  C     C_R   0.267591 0.780140 0.687795 0.119713
C150  C     C_R   0.224627 0.759662 0.750126 -0.131009
C151  C     C_R   0.230954 0.770952 0.843661 -0.139936
C152  C     C_R   0.280432 0.802421 0.876010 -0.112277
C153  C     C_R   0.323778 0.822348 0.814864 -0.139879
C154  C     C_R   0.317612 0.811115 0.721227 -0.150040
H95   H     H_    0.186137 0.734933 0.726235 0.133021
H96   H     H_    0.197540 0.755186 0.891084 0.123247
H97   H     H_    0.285353 0.811069 0.948460 0.120013
H98   H     H_    0.362419 0.846234 0.840094 0.127561
H99   H     H_    0.352489 0.825969 0.676147 0.141504
C155  C     C_R   0.732369 0.219843 0.312222 0.119685
C156  C     C_R   0.775379 0.240187 0.249866 -0.131102
C157  C     C_R   0.769007 0.228890 0.156340 -0.139937
C158  C     C_R   0.719433 0.197561 0.124023 -0.112316
C159  C     C_R   0.676034 0.177784 0.185191 -0.139938
C160  C     C_R   0.682246 0.189022 0.278820 -0.149869
H100  H     H_    0.813938 0.264816 0.273728 0.133072
H101  H     H_    0.802459 0.244547 0.108896 0.123288
H102  H     H_    0.714477 0.188911 0.051579 0.120013
H103  H     H_    0.637316 0.154014 0.159985 0.127583
H104  H     H_    0.647323 0.174302 0.323918 0.141427
C161  C     C_R   0.231954 0.279864 0.312231 0.119609
C162  C     C_R   0.275061 0.259890 0.249746 -0.131412
C163  C     C_R   0.268398 0.271010 0.156217 -0.139914
C164  C     C_R   0.218412 0.301742 0.124023 -0.112074
C165  C     C_R   0.174887 0.321080 0.185318 -0.139886
C166  C     C_R   0.181404 0.310044 0.278952 -0.149280
H105  H     H_    0.313912 0.235674 0.273499 0.133259
H106  H     H_    0.301936 0.255663 0.108673 0.123233
H107  H     H_    0.213224 0.310245 0.051576 0.119920
H108  H     H_    0.135828 0.344330 0.160204 0.127345
H109  H     H_    0.146371 0.324370 0.324164 0.141067
C167  C     C_R   0.768034 0.720134 0.687777 0.119632
C168  C     C_R   0.724938 0.740136 0.750259 -0.131385
C169  C     C_R   0.731590 0.729013 0.843788 -0.139937
C170  C     C_R   0.781554 0.698248 0.875985 -0.112017
C171  C     C_R   0.825067 0.678878 0.814693 -0.139869
C172  C     C_R   0.818561 0.689919 0.721058 -0.149385
H110  H     H_    0.686102 0.764375 0.726502 0.133252
H111  H     H_    0.698061 0.744382 0.891329 0.123228
H112  H     H_    0.786734 0.689741 0.948432 0.119910
H113  H     H_    0.864109 0.655600 0.839809 0.127389
H114  H     H_    0.853585 0.675565 0.675848 0.141081
C173  C     C_R   0.767422 0.280323 0.687905 0.119710
C174  C     C_R   0.724522 0.259708 0.750230 -0.130826
C175  C     C_R   0.730757 0.271095 0.843750 -0.139771
C176  C     C_R   0.780069 0.302820 0.876091 -0.112552
C177  C     C_R   0.823340 0.322913 0.814950 -0.140006
C178  C     C_R   0.817273 0.311568 0.721330 -0.150233
H115  H     H_    0.686144 0.234810 0.726340 0.132930
H116  H     H_    0.697393 0.255220 0.891166 0.123155
H117  H     H_    0.784914 0.311551 0.948529 0.120048
H118  H     H_    0.861837 0.347033 0.840172 0.127729
H119  H     H_    0.852084 0.326578 0.676260 0.141654
C179  C     C_R   0.232598 0.719682 0.312090 0.119727
C180  C     C_R   0.275485 0.740335 0.249773 -0.130798
C181  C     C_R   0.269268 0.728945 0.156252 -0.139803
C182  C     C_R   0.219986 0.697177 0.123900 -0.112484
C183  C     C_R   0.176729 0.677043 0.185032 -0.139971
C184  C     C_R   0.182778 0.688391 0.278655 -0.150343
H120  H     H_    0.313842 0.765262 0.273673 0.132923
H121  H     H_    0.302622 0.744850 0.108843 0.123154
H122  H     H_    0.215155 0.688443 0.051461 0.120026
H123  H     H_    0.138257 0.652887 0.159803 0.127779
H124  H     H_    0.147981 0.673343 0.323719 0.141676

loop_
_geom_bond_atom_site_label_1
_geom_bond_atom_site_label_2
_geom_bond_distance
_ccdc_geom_bond_type
C99   H53   1.082476 S    
C7    C38   1.417720 S    
C137  C142  1.405783 A    
C89   C90   1.405904 A    
C125  C126  1.405920 A    
C26   C82   1.525237 S    
C9    C57   1.547329 S    
C86   H36   1.109749 S    
C175  H116  1.082391 S    
C139  H86   1.082377 S    
C140  C141  1.396756 A    
C159  C160  1.398797 A    
C134  H82   1.082332 S    
C51   C67   1.451218 S    
C27   C48   1.547490 S    
C79   H16   1.110316 S    
N4    C76   1.169759 T    
C16   H6    1.110313 S    
C153  C154  1.398805 A    
C47   C179  1.512732 S    
C172  H114  1.077646 S    
C32   C56   1.542393 S    
C108  H60   1.083124 S    
C163  C164  1.396410 A    
C181  C182  1.396401 A    
C105  H58   1.082473 S    
C96   H50   1.083129 S    
O3    C3    1.278037 A    
C183  C184  1.398827 A    
C64   C76   1.500327 S    
C137  C138  1.406089 A    
C164  H107  1.082442 S    
C45   C53   1.547122 S    
O9    Cu2   1.933208 S    
C84   H32   1.109285 S    
C57   C78   1.519993 S    
C43   C155  1.512668 S    
C114  C115  1.397608 A    
C108  C109  1.397606 A    
C85   H35   1.109169 S    
C14   H8    1.110315 S    
C176  C177  1.396768 A    
C168  C169  1.397921 A    
O7    Cu4   1.931852 S    
C20   C48   1.550877 S    
C105  C106  1.398627 A    
C48   C173  1.512730 S    
C149  C154  1.405852 A    
O15   Cu3   1.933204 S    
C170  C171  1.396758 A    
C11   C58   1.547328 S    
O12   C4    1.278913 A    
O13   C5    1.278902 A    
O2    Cu2   1.931818 S    
C88   H44   1.109303 S    
C16   C59   1.547501 S    
C95   C96   1.405903 A    
C32   C88   1.525246 S    
C90   C91   1.397610 A    
C87   H41   1.109167 S    
C31   C55   1.542385 S    
C86   H38   1.109310 S    
C167  C168  1.406091 A    
C21   C41   1.550896 S    
C158  H102  1.082449 S    
C23   C43   1.550854 S    
C160  H104  1.077538 S    
C125  C130  1.405738 A    
O3    Cu2   1.931852 S    
C17   C50   1.546925 S    
C127  H76   1.082211 S    
C19   C52   1.546939 S    
C13   C59   1.547465 S    
Cu1   Cu2   2.638754 S    
C12   H2    1.110156 S    
C148  H94   1.077551 S    
C13   H7    1.110315 S    
C11   C61   1.548266 S    
C126  H75   1.083122 S    
O10   C2    1.278896 A    
C21   C54   1.546896 S    
C24   C44   1.550846 S    
C80   H19   1.109915 S    
C42   C137  1.512632 S    
O4    C4    1.278036 A    
N3    C75   1.169759 T    
C119  C120  1.405900 A    
C110  C111  1.396371 A    
C81   H22   1.109332 S    
C21   C25   1.547858 S    
C77   H9    1.109666 S    
C23   C27   1.547884 S    
C89   C94   1.405730 A    
C24   C28   1.547883 S    
C78   H13   1.109732 S    
C167  C172  1.405783 A    
C19   C31   1.547862 S    
C107  C108  1.405917 A    
C132  H80   1.083119 S    
C41   C49   1.547188 S    
C24   C55   1.546950 S    
C43   C51   1.547175 S    
O4    Cu1   1.931852 S    
C53   C69   1.451273 S    
C141  C142  1.398789 A    
C55   C71   1.451169 S    
C151  H96   1.082418 S    
C87   H40   1.109298 S    
C9    C62   1.548267 S    
C97   C98   1.396349 A    
O11   Cu1   1.933204 S    
C22   C42   1.550893 S    
C133  C134  1.396333 A    
C144  C145  1.397907 A    
C17   C89   1.512201 S    
C165  H108  1.082502 S    
O5    Cu3   1.931821 S    
O6    Cu4   1.931818 S    
C179  C184  1.405843 A    
C8    C37   1.417716 S    
C49   C65   1.451229 S    
C19   C47   1.550875 S    
C159  H103  1.082532 S    
C134  C135  1.396366 A    
N2    C74   1.169760 T    
C22   C53   1.546894 S    
C138  H85   1.083019 S    
C153  H98   1.082572 S    
C157  C158  1.396379 A    
C140  H87   1.082442 S    
C181  H121  1.082396 S    
C135  H83   1.082467 S    
C174  H115  1.083050 S    
O12   Cu2   1.933204 S    
C25   C46   1.547352 S    
C133  H81   1.082209 S    
C46   C161  1.512562 S    
C23   C125  1.512275 S    
C165  C166  1.398768 A    
C156  C157  1.397916 A    
Cu4   N3    1.982868 S    
C161  C162  1.406083 A    
C54   C70   1.451276 S    
C20   C51   1.546928 S    
O5    C5    1.278028 A    
C1    C36   1.417677 S    
C130  H79   1.077220 S    
C2    C35   1.417674 S    
C107  C112  1.405742 A    
C3    C34   1.417685 S    
C155  C160  1.405793 A    
C56   C72   1.451179 S    
C13   C64   1.548418 S    
C22   C119  1.512181 S    
O10   Cu1   1.933205 S    
C83   H28   1.109286 S    
C101  C106  1.405744 A    
C18   C46   1.550865 S    
C176  H117  1.082455 S    
C138  C139  1.397906 A    
C152  H97   1.082452 S    
C90   H45   1.083128 S    
C147  C148  1.398792 A    
C19   C101  1.512271 S    
C149  C150  1.406134 A    
C170  H112  1.082440 S    
C37   C69   1.195806 T    
C98   H52   1.082330 S    
O1    C1    1.278045 A    
C113  C114  1.405897 A    
C114  H65   1.083125 S    
C120  H70   1.083128 S    
C39   C71   1.195778 T    
O14   C6    1.278904 A    
C145  C146  1.396372 A    
C166  H109  1.077645 S    
C44   C52   1.547192 S    
C79   H15   1.110133 S    
C100  H54   1.077247 S    
Cu2   N1    1.982868 S    
O7    C7    1.278063 A    
O8    C8    1.278061 A    
C179  C180  1.406115 A    
C14   C16   1.558535 S    
C57   C61   1.538439 S    
C59   C63   1.538608 S    
C177  C178  1.398823 A    
C116  C117  1.396382 A    
C128  C129  1.396369 A    
C59   C80   1.520178 S    
C35   C67   1.195791 T    
C155  C156  1.406095 A    
C25   C49   1.542412 S    
C58   C77   1.519992 S    
C143  C148  1.405772 A    
C26   C45   1.547355 S    
C41   C143  1.512629 S    
C9    H3    1.110156 S    
C10   H4    1.110157 S    
C11   H1    1.110157 S    
C10   C58   1.547330 S    
C126  C127  1.397606 A    
C48   C56   1.547237 S    
C93   C94   1.398629 A    
C103  C104  1.396338 A    
C18   C95   1.512198 S    
C84   H31   1.109167 S    
O11   C3    1.278912 A    
C82   H24   1.109751 S    
C85   H34   1.109313 S    
O2    C2    1.278049 A    
C119  C124  1.405728 A    
C15   H5    1.110313 S    
C110  H62   1.082329 S    
O6    C6    1.278020 A    
C109  H61   1.082211 S    
C162  C163  1.397924 A    
C22   C26   1.547858 S    
C29   C53   1.542431 S    
C123  H73   1.082476 S    
C29   C85   1.525256 S    
C116  H67   1.082334 S    
C132  C133  1.397610 A    
O13   Cu4   1.933208 S    
C38   C70   1.195809 T    
C27   C51   1.542410 S    
O14   Cu3   1.933205 S    
C88   H43   1.109164 S    
C82   H26   1.109332 S    
C15   C60   1.547499 S    
C111  C112  1.398626 A    
C141  H88   1.082525 S    
C151  C152  1.396429 A    
C27   C83   1.525265 S    
C46   C54   1.547122 S    
C86   H37   1.109168 S    
C58   C62   1.538440 S    
C97   H51   1.082211 S    
C171  H113  1.082500 S    
C144  H90   1.083012 S    
C14   C63   1.548391 S    
C5    C40   1.417649 S    
C146  H92   1.082445 S    
C79   H17   1.110384 S    
C6    C39   1.417641 S    
C26   C50   1.542413 S    
C169  H111  1.082391 S    
C180  C181  1.397906 A    
C17   C29   1.547889 S    
C91   C92   1.396348 A    
C120  C121  1.397609 A    
C103  H56   1.082213 S    
C177  H118  1.082592 S    
C182  H122  1.082454 S    
C92   H47   1.082331 S    
C80   H18   1.109800 S    
C63   C75   1.500326 S    
C178  H119  1.077480 S    
C29   C42   1.547423 S    
C81   H21   1.109750 S    
C131  C132  1.405920 A    
C21   C113  1.512179 S    
C102  C103  1.397608 A    
C30   C54   1.542434 S    
C78   H12   1.109666 S    
C115  H66   1.082212 S    
C124  H74   1.077250 S    
C135  C136  1.398630 A    
C4    C33   1.417685 S    
C18   C49   1.546925 S    
C15   C63   1.548452 S    
C161  C166  1.405784 A    
C77   H10   1.109724 S    
C163  H106  1.082384 S    
C32   C43   1.547429 S    
C87   H39   1.109748 S    
C109  C110  1.396343 A    
C13   C15   1.558487 S    
C47   C55   1.547236 S    
C175  C176  1.396392 A    
C168  H110  1.083017 S    
C113  C118  1.405720 A    
C182  C183  1.396776 A    
C14   C60   1.547464 S    
C101  C102  1.405920 A    
C150  C151  1.397914 A    
C31   C87   1.525255 S    
O8    Cu3   1.931852 S    
C152  C153  1.396797 A    
C147  H93   1.082516 S    
C104  C105  1.396372 A    
O16   Cu4   1.933204 S    
C12   C62   1.548268 S    
C98   C99   1.396383 A    
C154  H99   1.077559 S    
C42   C50   1.547194 S    
C96   C97   1.397608 A    
C145  H91   1.082370 S    
C60   C64   1.538605 S    
C122  C123  1.396383 A    
C117  C118  1.398629 A    
C174  C175  1.397906 A    
C28   C84   1.525264 S    
C117  H68   1.082474 S    
C164  C165  1.396753 A    
C30   C41   1.547420 S    
C10   C61   1.548267 S    
C121  H71   1.082210 S    
C184  H124  1.077480 S    
C128  H77   1.082330 S    
C180  H120  1.083056 S    
C80   H20   1.109962 S    
C61   C73   1.500327 S    
C118  H69   1.077250 S    
C129  C130  1.398628 A    
C25   C81   1.525236 S    
C150  H95   1.083068 S    
C50   C66   1.451230 S    
C83   H29   1.109166 S    
C136  H84   1.077216 S    
C93   H48   1.082475 S    
C104  H57   1.082330 S    
C78   H14   1.109722 S    
O15   C7    1.278903 A    
C129  H78   1.082467 S    
O16   C8    1.278904 A    
C173  C178  1.405834 A    
C52   C68   1.451213 S    
C45   C167  1.512565 S    
O1    Cu1   1.931821 S    
C23   C56   1.546952 S    
C28   C47   1.547494 S    
N1    C73   1.169757 T    
C95   C100  1.405731 A    
C162  H105  1.083018 S    
C123  C124  1.398628 A    
C77   H11   1.109722 S    
C121  C122  1.396351 A    
C173  C174  1.406109 A    
C33   C65   1.195795 T    
C158  C159  1.396750 A    
C20   C32   1.547861 S    
C44   C149  1.512676 S    
C60   C79   1.520182 S    
C24   C131  1.512287 S    
C81   H23   1.109170 S    
C16   C64   1.548427 S    
C111  H63   1.082474 S    
C143  C144  1.406079 A    
C156  H100  1.083024 S    
C127  C128  1.396334 A    
O9    C1    1.278899 A    
C171  C172  1.398767 A    
C122  H72   1.082331 S    
C12   C57   1.547331 S    
C36   C68   1.195795 T    
C146  C147  1.396744 A    
C183  H123  1.082601 S    
C99   C100  1.398629 A    
C30   C86   1.525252 S    
C112  H64   1.077222 S    
C142  H89   1.077558 S    
C17   C45   1.550867 S    
C169  C170  1.396407 A    
C62   C74   1.500329 S    
C91   H46   1.082213 S    
C157  H101  1.082389 S    
C139  C140  1.396381 A    
C18   C30   1.547887 S    
C84   H30   1.109746 S    
C92   C93   1.396382 A    
C28   C52   1.542416 S    
C9    C11   1.558339 S    
C40   C72   1.195781 T    
C85   H33   1.109748 S    
C10   C12   1.558339 S    
C83   H27   1.109746 S    
Cu1   N2    1.982867 S    
C131  C136  1.405739 A    
Cu3   N4    1.982867 S    
C102  H55   1.083123 S    
C94   H49   1.077249 S    
C20   C107  1.512257 S    
C31   C44   1.547448 S    
Cu3   Cu4   2.638754 S    
C106  H59   1.077220 S    
C34   C66   1.195795 T    
C115  C116  1.396347 A    
C88   H42   1.109747 S    
C82   H25   1.109169 S    
