data_mof_unit_47011.cif
_audit_creation_date              2012-12-10T17:42:40-0500
_audit_creation_method            fapswitch 2.2
_symmetry_space_group_name_H-M    P1
_symmetry_Int_Tables_number       1
_space_group_crystal_system       triclinic
_cell_length_a                    9.934879
_cell_length_b                    10.623887
_cell_length_c                    13.120961
_cell_angle_alpha                 91.353067
_cell_angle_beta                  69.87496
_cell_angle_gamma                 89.978329
_cell_volume                      1299.90740392

loop_
_atom_site_label
_atom_site_type_symbol
_atom_type_description
_atom_site_fract_x
_atom_site_fract_y
_atom_site_fract_z
_atom_type_partial_charge
C1    C     C_R   0.501184 0.739247 0.497236 0.857078
C2    C     C_R   0.368352 0.486506 0.821913 -0.115776
C3    C     C_R   0.463234 0.863606 0.313989 -0.177039
C4    C     C_R   0.420173 0.494113 0.703887 0.840954
C5    C     C_R   0.444250 0.926881 0.227924 -0.142505
C6    C     C_R   0.445289 0.057876 0.227582 -0.134426
C7    C     C_R   0.465008 0.126021 0.313421 -0.186795
C8    C     C_R   0.482718 0.063256 0.402014 0.092345
C9    C     C_R   0.482113 0.931303 0.402221 0.101033
C10   C     C_R   0.504719 0.871388 0.489902 -0.090470
C11   C     C_R   0.532780 0.937856 0.572832 -0.215235
C12   C     C_R   0.432252 0.478999 0.984151 0.081177
C13   C     C_R   0.532945 0.066453 0.572765 -0.203269
C14   C     C_R   0.505265 0.128129 0.489691 -0.095908
C15   C     C_R   0.797241 0.665961 0.642141 -0.134712
C16   C     C_R   0.501444 0.260635 0.497026 0.861255
C17   C     C_R   0.835639 0.744369 0.713875 -0.190162
C18   C     C_R   0.974162 0.741205 0.715485 -0.194057
C19   C     C_R   0.075495 0.660375 0.644693 -0.162086
C20   C     C_R   0.040458 0.579641 0.571039 0.163137
C21   C     C_R   0.896326 0.580891 0.570356 0.175152
C22   C     C_R   0.959382 0.423212 0.432296 -0.126275
C23   C     C_R   0.460106 0.442116 0.875037 0.088706
C24   C     C_R   0.102430 0.423503 0.432097 -0.111286
C25   C     C_R   0.579918 0.499217 0.295932 0.841088
C26   C     C_R   0.771832 0.367085 0.017174 -0.197605
C27   C     C_R   0.628311 0.481855 0.178946 -0.057889
C28   C     C_R   0.234999 0.540366 0.882297 -0.203277
C29   C     C_R   0.197335 0.558699 0.993748 -0.147050
C30   C     C_R   0.295977 0.531812 0.044293 -0.205306
C31   C     C_R   0.541678 0.460990 0.028606 0.077553
C32   C     C_R   0.666167 0.388971 0.970776 0.173210
C33   C     C_R   0.681657 0.337730 0.868725 -0.254478
C34   C     C_R   0.579852 0.363660 0.821377 -0.201696
C35   C     C_R   0.531396 0.514368 0.128746 -0.266197
C36   C     C_R   0.751437 0.411290 0.122371 -0.206247
H1    H     H_    0.827218 0.385059 0.161139 0.153761
H2    H     H_    0.003684 0.802291 0.771457 0.147318
H3    H     H_    0.180101 0.663556 0.649807 0.201492
H4    H     H_    0.773519 0.279030 0.824755 0.150632
H5    H     H_    0.181213 0.360868 0.376552 0.149287
H6    H     H_    0.866605 0.311325 0.974089 0.141404
H7    H     H_    0.444479 0.577616 0.172172 0.144503
H8    H     H_    0.161913 0.572114 0.842966 0.155709
H9    H     H_    0.261343 0.550043 0.130754 0.135565
H10   H     H_    0.093721 0.599086 0.040463 0.149777
H11   H     H_    0.595041 0.320214 0.742777 0.168592
H12   H     H_    0.465141 0.761926 0.309693 0.142505
H13   H     H_    0.551514 0.889900 0.638876 0.136135
H14   H     H_    0.430159 0.874045 0.160790 0.135501
H15   H     H_    0.432155 0.106874 0.160143 0.140231
H16   H     H_    0.468384 0.227495 0.308688 0.145189
H17   H     H_    0.551708 0.118242 0.638782 0.139770
H18   H     H_    0.930984 0.360406 0.376951 0.144422
H19   H     H_    0.689350 0.675832 0.645399 0.197476
H20   H     H_    0.757243 0.808278 0.768401 0.143763
N1    N     N_R   0.856860 0.501200 0.500990 -0.118782
N2    N     N_R   0.142450 0.501280 0.501020 -0.119001
O1    O     O_R   0.385310 0.683220 0.500000 -0.633122
O2    O     O_R   0.614640 0.683250 0.500010 -0.625939
O3    O     O_R   0.328400 0.499950 0.653610 -0.627180
O4    O     O_R   0.557730 0.499970 0.653620 -0.629924
O5    O     O_R   0.385360 0.316750 0.499990 -0.610434
O6    O     O_R   0.614690 0.316780 0.500000 -0.615783
O7    O     O_R   0.442270 0.500030 0.346380 -0.622957
O8    O     O_R   0.671600 0.500050 0.346390 -0.608795
Zn1   Zn    Zn3+2 0.346880 0.499980 0.499990 0.926254
Zn2   Zn    Zn3+2 0.653120 0.500020 0.500010 0.929685

loop_
_geom_bond_atom_site_label_1
_geom_bond_atom_site_label_2
_ccdc_geom_bond_type
O8    Zn2   S    
C21   N1    A    
C6    C7    A    
C3    C9    A    
C16   O5    A    
C6    H15   S    
C25   C27   S    
C35   H7    S    
C9    C10   A    
O3    Zn1   S    
C30   H9    S    
C2    C4    S    
C19   C20   A    
C12   C23   A    
O4    Zn2   S    
C29   H10   S    
C3    C5    A    
C23   C34   A    
C27   C35   A    
C32   C33   A    
C22   N1    A    
C33   C34   A    
C18   H2    S    
C7    C8    A    
C22   H18   S    
N2    Zn1   S    
C13   C14   A    
C26   C32   A    
C24   H5    S    
C11   C13   A    
C17   H20   S    
O2    Zn2   S    
C29   C30   A    
C19   H3    S    
C11   H13   S    
O6    Zn2   S    
C31   C35   A    
C26   C36   A    
C28   C29   A    
C7    H16   S    
C17   C18   A    
C13   H17   S    
C1    O1    A    
C12   C31   A    
C5    C6    A    
C27   C36   A    
O5    Zn1   S    
C5    H14   S    
C1    O2    A    
C33   H4    S    
C2    C28   A    
C10   C11   A    
C1    C10   S    
N1    Zn2   S    
C20   N2    A    
C4    O4    A    
C3    H12   S    
C15   C21   A    
C25   O7    A    
C20   C21   A    
C26   H6    S    
C24   N2    A    
C18   C19   A    
C22   C24   A    
C2    C23   A    
C15   C17   A    
C36   H1    S    
C8    C14   A    
C34   H11   S    
C16   O6    A    
O1    Zn1   S    
C14   C16   S    
C12   C30   A    
C4    O3    A    
C28   H8    S    
C25   O8    A    
C31   C32   A    
C8    C9    A    
O7    Zn1   S    
C15   H19   S    
