data_mof_unit_29060.cif
_audit_creation_date              2012-12-10T17:33:46-0500
_audit_creation_method            fapswitch 2.2
_symmetry_space_group_name_H-M    P1
_symmetry_Int_Tables_number       1
_space_group_crystal_system       triclinic
_cell_length_a                    11.695432
_cell_length_b                    12.367524
_cell_length_c                    13.153191
_cell_angle_alpha                 116.706659
_cell_angle_beta                  77.9102
_cell_angle_gamma                 101.315937
_cell_volume                      1650.47674062

loop_
_atom_site_label
_atom_site_type_symbol
_atom_type_description
_atom_site_fract_x
_atom_site_fract_y
_atom_site_fract_z
_atom_type_partial_charge
C1    C     C_R   0.511713 0.854909 0.286355 0.841304
C2    C     C_R   0.465022 0.226442 0.835784 -0.054866
C3    C     C_R   0.609067 0.811659 0.089856 -0.199249
C4    C     C_R   0.647413 0.729163 0.979812 -0.136491
C5    C     C_R   0.606151 0.606143 0.942767 -0.102163
C6    C     C_R   0.518656 0.563516 0.013160 0.040049
C7    C     C_R   0.469326 0.650744 0.120668 -0.006738
C8    C     C_R   0.476358 0.437711 0.979049 0.066767
C9    C     C_R   0.383844 0.401947 0.050751 0.086605
C10   C     C_R   0.329076 0.489747 0.149484 -0.254942
C11   C     C_R   0.366139 0.612810 0.180916 0.366863
C12   C     C_R   0.715714 0.999750 0.499817 0.803267
C13   C     C_R   0.519151 0.346277 0.873402 -0.225689
C14   C     C_R   0.379443 0.191345 0.910385 -0.183189
C15   C     C_R   0.524250 0.772987 0.162943 -0.072964
C16   C     C_R   0.697299 0.356540 0.344690 -0.288886
C17   C     C_R   0.339205 0.761112 0.641998 0.080081
C18   C     C_R   0.303498 0.669236 0.678226 -0.289789
C19   C     C_R   0.365136 0.567518 0.632553 0.013159
C20   C     C_R   0.461292 0.553741 0.541371 -0.084350
C21   C     C_R   0.495024 0.653647 0.509266 0.282457
C22   C     C_R   0.526455 0.448596 0.480532 -0.028435
C23   C     C_R   0.485212 0.144832 0.713551 0.783349
C24   C     C_R   0.628008 0.453080 0.400569 0.171506
C25   C     C_R   0.659018 0.552366 0.373992 -0.267859
C26   C     C_R   0.592249 0.648489 0.424707 -0.164639
C27   C     C_R   0.495133 0.336837 0.491003 0.073618
C28   C     C_R   0.666030 0.254260 0.366483 0.074012
C29   C     C_R   0.284227 0.000749 0.500901 0.868656
C30   C     C_1   0.837434 0.999669 0.500026 -0.168890
C31   C     C_1   0.939997 0.999986 0.500277 0.014103
C32   C     C_1   0.059919 0.000575 0.500615 0.032498
C33   C     C_1   0.162487 0.000926 0.500847 -0.117558
C34   C     C_R   0.339919 0.278691 0.018066 -0.157405
Cu1   Cu    Cu3+1 0.526510 0.098270 0.475420 0.959545
Cu2   Cu    Cu3+1 0.473490 0.901730 0.524580 0.965293
H1    H     H_    0.337590 0.098292 0.882704 0.146182
H2    H     H_    0.734779 0.554776 0.310997 0.160181
H3    H     H_    0.775529 0.360447 0.284780 0.145106
H4    H     H_    0.413396 0.317121 0.537482 0.148295
H5    H     H_    0.292387 0.840586 0.681034 0.134341
H6    H     H_    0.230246 0.680689 0.746757 0.168464
H7    H     H_    0.620715 0.717965 0.395182 0.198523
H8    H     H_    0.251664 0.462814 0.198501 0.179284
H9    H     H_    0.269648 0.250947 0.072798 0.137651
H10   H     H_    0.588881 0.366263 0.814352 0.158392
H11   H     H_    0.650541 0.904968 0.119792 0.151122
H12   H     H_    0.643905 0.547678 0.857910 0.145083
H13   H     H_    0.713933 0.759879 0.924586 0.145609
H14   H     H_    0.720306 0.180374 0.325441 0.126074
N1    N     N_R   0.566700 0.246290 0.438210 -0.190600
N2    N     N_R   0.434010 0.754320 0.561170 -0.198560
O1    O     O_R   0.533340 0.972510 0.318140 -0.586663
O2    O     O_R   0.488570 0.806530 0.359650 -0.569620
O3    O     O_R   0.685190 0.083000 0.479260 -0.578012
O4    O     O_R   0.640410 0.917020 0.520770 -0.594380
O5    O     O_R   0.511430 0.193470 0.640350 -0.568433
O6    O     O_R   0.466660 0.027490 0.681860 -0.593793
O7    O     O_R   0.359590 0.082980 0.479230 -0.585569
O8    O     O_R   0.314810 0.917000 0.520740 -0.547186
C35   C     C_2   0.331446 0.489166 0.694059 0.801723
O9    O     O_2   0.228754 0.446121 0.706323 -0.592683
O10   O     O_R   0.415557 0.469004 0.742820 -0.768583
H15   H     H_    0.379779 0.415296 0.783743 0.340620
Cl1   Cl    Cl    0.264574 0.712918 0.279170 -0.631603

loop_
_geom_bond_atom_site_label_1
_geom_bond_atom_site_label_2
_ccdc_geom_bond_type
C16   C28   A    
C23   O6    A    
C1    O2    A    
C14   C34   A    
C6    C7    A    
Cu2   O4    S    
C25   H2    S    
Cu1   O1    S    
C9    C10   A    
C27   H4    S    
C19   C20   A    
Cu2   N2    S    
C29   O8    A    
C4    H13   S    
Cu1   O5    S    
C9    C34   A    
C32   C33   T    
C7    C15   A    
C17   C18   A    
C16   C24   A    
C34   H9    S    
C31   C32   S    
C24   C25   A    
C14   H1    S    
C7    C11   A    
C30   C31   T    
C12   O4    A    
C28   H14   S    
C19   C35   S    
Cu2   O8    S    
C1    C15   S    
C5    C6    A    
C17   N2    A    
C3    H11   S    
C5    H12   S    
C21   C26   A    
C27   N1    A    
C26   H7    S    
Cu2   O6    S    
C22   C27   A    
C18   H6    S    
Cu1   N1    S    
C35   O9    D    
C2    C14   A    
C28   N1    A    
C22   C24   A    
C17   H5    S    
Cu2   O2    S    
C10   C11   A    
C16   H3    S    
C10   H8    S    
C3    C4    A    
C12   O3    A    
C8    C13   A    
C29   C33   S    
C3    C15   A    
C20   C21   A    
Cu1   O7    S    
C18   C19   A    
C2    C23   S    
C23   O5    A    
C2    C13   A    
C1    O1    A    
C13   H10   S    
C8    C9    A    
C6    C8    A    
Cu1   Cu2   S    
C12   C30   S    
C25   C26   A    
O10   H15   S    
Cu1   O3    S    
C21   N2    A    
C11   Cl1   S    
C20   C22   A    
C4    C5    A    
C35   O10   S    
C29   O7    A    
