data_mof_unit_58074.cif
_audit_creation_date              2012-12-11T16:53:49-0500
_audit_creation_method            fapswitch 2.2
_symmetry_space_group_name_H-M    P1
_symmetry_Int_Tables_number       1
_space_group_crystal_system       triclinic
_cell_length_a                    15.032003
_cell_length_b                    14.838034
_cell_length_c                    16.898579
_cell_angle_alpha                 109.172518
_cell_angle_beta                  105.446546
_cell_angle_gamma                 109.062078
_cell_volume                      3056.06142513

loop_
_atom_site_label
_atom_site_type_symbol
_atom_type_description
_atom_site_fract_x
_atom_site_fract_y
_atom_site_fract_z
_atom_type_partial_charge
C1    C     C_R   0.094011 0.278126 0.024797 -0.207369
C2    C     C_R   0.062855 0.481021 0.253793 -0.075789
C3    C     C_R   0.218611 0.797905 0.190714 0.461640
C4    C     C_R   0.938199 0.447330 0.735517 -0.049669
C5    C     C_R   0.741206 0.468645 0.051743 0.559021
C6    C     C_R   0.241269 0.805192 0.279228 -0.133463
C7    C     C_R   0.716127 0.546444 0.037965 -0.136369
C8    C     C_R   0.972727 0.416254 0.254198 -0.110399
C9    C     C_R   0.999520 0.804125 0.944232 -0.113468
C10   C     C_R   0.489195 0.595610 0.993593 0.206947
C11   C     C_R   0.463095 0.588888 0.065298 -0.030147
C12   C     C_R   0.029743 0.458414 0.726142 0.078516
C13   C     C_R   0.536058 0.597115 0.142742 -0.129031
C14   C     C_R   0.628118 0.595592 0.140492 -0.214131
C15   C     C_R   0.642996 0.581652 0.059421 0.063341
C16   C     C_R   0.714934 0.220894 0.828330 0.270436
C17   C     C_R   0.577499 0.591421 0.990671 0.114373
C18   C     C_3   0.526452 0.521013 0.888576 -0.592677
C19   C     C_3   0.428368 0.525748 0.891452 0.302238
C20   C     C_R   0.963764 0.379766 0.324462 -0.012884
C21   C     C_R   0.039028 0.410676 0.638885 0.036311
C22   C     C_R   0.140718 0.428185 0.549036 0.567641
C23   C     C_R   0.662444 0.216599 0.745530 -0.075040
C24   C     C_R   0.134926 0.448942 0.634313 -0.412607
C25   C     C_R   0.949823 0.340095 0.556749 0.500174
C26   C     C_R   0.951000 0.344280 0.475252 -0.221565
C27   C     C_R   0.047606 0.380397 0.468813 -0.176392
C28   C     C_R   0.300289 0.598826 0.004327 0.212836
C29   C     C_R   0.048718 0.380539 0.385523 0.559854
C30   C     C_R   0.871304 0.353936 0.335956 -0.311063
C31   C     C_R   0.861868 0.329419 0.406743 0.268137
C32   C     C_R   0.555388 0.132911 0.678808 0.020804
C33   C     C_R   0.278841 0.900312 0.368686 0.036539
C34   C     C_R   0.357726 0.563075 0.051263 -0.023405
C35   C     C_R   0.371839 0.094466 0.466790 0.542885
C36   C     C_R   0.318451 0.005774 0.378780 -0.441194
C37   C     C_R   0.285814 0.887029 0.448414 0.555374
C38   C     C_R   0.365776 0.970438 0.532442 -0.159466
C39   C     C_R   0.404289 0.075869 0.543269 0.029887
C40   C     C_R   0.725139 0.311888 0.747988 0.169159
C41   C     C_R   0.487611 0.157613 0.625262 -0.094112
C42   C     C_R   0.522269 0.023933 0.660733 0.261312
C43   C     C_R   0.422503 0.946824 0.595762 -0.159398
C44   C     C_R   0.096499 0.099410 0.871521 0.012771
C45   C     C_R   0.227279 0.703312 0.266658 0.500237
C46   C     C_R   0.020317 0.083938 0.905668 0.020136
C47   C     C_R   0.947611 0.976665 0.874985 0.271574
C48   C     C_R   0.942041 0.892485 0.800317 -0.268949
C49   C     C_R   0.009569 0.913109 0.757808 0.114494
C50   C     C_R   0.091475 0.015732 0.799604 -0.035524
C51   C     C_3   0.132911 0.086954 0.759146 0.697819
C52   C     C_R   0.295634 0.499093 0.077951 -0.187075
C53   C     C_3   0.138823 0.179204 0.838718 -0.638715
C54   C     C_R   0.109864 0.531075 0.812482 -0.115219
C55   C     C_R   0.923075 0.192013 0.948600 0.508782
C56   C     C_R   0.753904 0.567602 0.976897 -0.155802
C57   C     C_R   0.011990 0.178058 0.962301 0.018036
C58   C     C_R   0.892832 0.388760 0.172992 0.583741
C59   C     C_R   0.083290 0.793707 0.991342 0.632694
C60   C     C_R   0.914034 0.713375 0.922886 -0.169026
H1    H     H_    0.175261 0.298133 0.048149 0.152910
H2    H     H_    0.363536 0.447729 0.872063 0.075508
H3    H     H_    0.806471 0.356867 0.291729 0.204498
H4    H     H_    0.205150 0.499914 0.696818 0.166389
H5    H     H_    0.504496 0.238647 0.640346 0.201092
H6    H     H_    0.399203 0.864394 0.583232 0.182349
H7    H     H_    0.315058 0.021668 0.320700 0.210096
H8    H     H_    0.882317 0.811552 0.772680 0.180137
H9    H     H_    0.219240 0.241093 0.888084 0.206064
H10   H     H_    0.084958 0.211982 0.817515 0.212368
H11   H     H_    0.320573 0.469962 0.126297 0.129370
H12   H     H_    0.746137 0.621899 0.949133 0.158529
H13   H     H_    0.191334 0.556108 0.831022 0.153319
H14   H     H_    0.803652 0.249053 0.155626 0.321756
H15   H     H_    0.184504 0.905439 0.982893 0.321366
H16   H     H_    0.176788 0.906691 0.197087 0.296129
H17   H     H_    0.650679 0.424409 0.108453 0.320382
H18   H     H_    0.374161 0.535574 0.779721 0.321991
H19   H     H_    0.159457 0.341321 0.387915 0.354906
H20   H     H_    0.291904 0.500657 0.607788 0.329209
H21   H     H_    0.825940 0.205236 0.496171 0.346687
H22   H     H_    0.379084 0.196251 0.416784 0.337976
H23   H     H_    0.836539 0.687153 0.874213 0.168949
H24   H     H_    0.225085 0.802346 0.504036 0.330204
H25   H     H_    0.994391 0.052351 0.674947 0.326145
H26   H     H_    0.784907 0.118315 0.925486 0.355047
H27   H     H_    0.281431 0.614621 0.300352 0.306273
H28   H     H_    0.140242 0.505731 0.300391 0.218997
H29   H     H_    0.518804 0.596800 0.200935 0.149675
H30   H     H_    0.681972 0.595528 0.197615 0.153807
H31   H     H_    0.559132 0.561765 0.850916 0.241484
H32   H     H_    0.861627 0.395990 0.682281 0.202350
H33   H     H_    0.520917 0.439503 0.869649 0.199227
I1    I     I_    0.718046 0.304554 0.417007 -0.271471
I2    I     I_    0.628624 0.176648 0.903103 -0.241138
I3    I     I_    0.620581 0.957898 0.704005 -0.239013
I4    I     I_    0.845135 0.934754 0.937240 -0.335230
I5    I     I_    0.280520 0.103394 0.760892 -0.335911
I6    I     I_    0.360775 0.748040 0.001187 -0.207831
I7    I     I_    0.680912 0.401866 0.683160 -0.360693
N1    N     N_R   0.055640 0.348550 0.045600 -0.071388
N2    N     N_R   0.811290 0.303400 0.871650 -0.088783
N3    N     N_R   0.205180 0.552990 0.997660 -0.077703
N4    N     N_R   0.814810 0.361830 0.823710 -0.089067
N5    N     N_R   0.201660 0.494570 0.045600 -0.056034
N6    N     N_R   0.068420 0.560530 0.871650 -0.047534
N7    N     N_R   0.948050 0.295860 0.997660 -0.103491
N8    N     N_R   0.185190 0.638170 0.176290 -0.154600
N9    N     N_R   0.798340 0.505430 0.954400 -0.073293
N10   N     N_R   0.931580 0.439470 0.128350 -0.092052
N11   N     N_R   0.051950 0.704140 0.002340 -0.083316
N12   N     N_R   0.944360 0.651450 0.954400 -0.082638
N13   N     N_R   0.039170 0.492150 0.176290 -0.106082
N14   N     N_R   0.188710 0.696600 0.128350 -0.100190
N15   N     N_R   0.794820 0.447010 0.002340 -0.076257
N16   N     N_R   0.960830 0.507850 0.823710 -0.059013
Ni1   Ni    Ni4+2 0.119330 0.493420 0.109950 0.186222
Ni2   Ni    Ni4+2 0.880670 0.506580 0.890050 0.222357
Ni3   Ni    Ni4+2 0.872590 0.372590 0.000000 0.286401
Ni4   Ni    Ni4+2 0.127410 0.627410 0.000000 0.298242
O1    O     O_3   0.800024 0.296613 0.126597 -0.689234
O2    O     O_3   0.221036 0.791415 0.441816 -0.702035
O3    O     O_3   0.061432 0.060348 0.671784 -0.714067
O4    O     O_3   0.825830 0.113398 0.888789 -0.716523
O5    O     O_3   0.276099 0.680352 0.333017 -0.691512
O6    O     O_3   0.182637 0.848482 0.001854 -0.674772
O7    O     O_3   0.217027 0.877637 0.167980 -0.705601
O8    O     O_3   0.706421 0.410627 0.095372 -0.700086
O9    O     O_3   0.399501 0.582464 0.846433 -0.704239
O10   O     O_3   0.130846 0.382652 0.363061 -0.736026
O11   O     O_3   0.235679 0.469921 0.545756 -0.712500
O12   O     O_3   0.865104 0.268259 0.557987 -0.745213
O13   O     O_3   0.408642 0.198103 0.477564 -0.711631

loop_
_geom_bond_atom_site_label_1
_geom_bond_atom_site_label_2
_ccdc_geom_bond_type
C19   O9    S    
N1    N7    A    
C6    C45   A    
C22   O11   S    
C27   C29   A    
C51   O3    S    
N11   N12   A    
C3    C6    A    
C53   H9    S    
C35   O13   S    
C36   H7    S    
C39   C41   A    
C20   C30   A    
C59   O6    S    
C26   C27   A    
C8    C20   S    
C42   I3    S    
C18   H31   S    
H18   O9    S    
C30   C31   A    
C60   H23   S    
C3    O7    S    
C10   C17   A    
H24   O2    S    
C23   C40   A    
C11   C13   A    
C33   C36   A    
C18   C19   S    
N8    N14   A    
C14   H30   S    
C8    C58   A    
C55   O4    S    
C44   C53   S    
C47   C48   A    
C45   O5    S    
C56   H12   S    
C59   N11   A    
C32   C41   A    
C2    H28   S    
H16   O7    S    
C4    C12   A    
C45   N8    A    
C13   H29   S    
C51   I5    S    
C7    C15   S    
C28   C34   A    
C26   C31   A    
C24   H4    S    
H20   O11   S    
C13   C14   A    
C5    N15   A    
N5    Ni1   S    
C7    C56   A    
C53   H10   S    
N7    Ni3   S    
C44   C46   A    
N9    Ni2   S    
C50   C51   S    
N4    Ni2   S    
C20   C29   A    
C54   N6    A    
C5    C7    A    
H21   O12   S    
C41   H5    S    
C25   C26   A    
H19   O10   S    
C12   C21   S    
C33   C37   A    
C55   N7    A    
N11   Ni4   S    
C9    C59   A    
C35   C36   A    
C35   C39   A    
C37   C38   A    
C60   N12   A    
C1    C57   A    
C40   N4    A    
C54   H13   S    
C29   O10   S    
C10   C19   S    
C17   C18   S    
N3    N5    A    
C48   H8    S    
N2    N4    A    
N10   N13   A    
H17   O8    S    
N13   Ni1   S    
C28   I6    S    
C16   N2    A    
C48   C49   A    
C52   N5    A    
C16   C23   A    
N15   Ni3   S    
C22   C27   A    
C55   C57   A    
C46   C57   S    
H26   O4    S    
C22   C24   A    
C42   C43   A    
C1    N1    A    
C56   N9    A    
H27   O5    S    
C44   C50   A    
C15   C17   A    
C21   C25   A    
C46   C47   A    
C58   O1    S    
N6    Ni4   S    
C58   N10   A    
N8    Ni1   S    
C4    N16   A    
C11   C34   S    
C2    C8    A    
C3    N14   A    
C1    H1    S    
N10   Ni3   S    
C40   I7    S    
C31   I1    S    
C34   C52   A    
C47   I4    S    
C6    C33   S    
C9    C60   A    
N1    Ni1   S    
C23   C32   S    
H15   O6    S    
H22   O13   S    
C38   C43   A    
C52   H11   S    
N12   Ni2   S    
C16   I2    S    
C28   N3    A    
C38   C39   A    
C43   H6    S    
C5    O8    S    
C2    N13   A    
N3    Ni4   S    
N16   Ni2   S    
H25   O3    S    
C12   C54   A    
C10   C11   A    
N9    N15   A    
C37   O2    S    
H14   O1    S    
C49   C50   A    
C21   C24   A    
N6    N16   A    
C18   H33   S    
C32   C42   A    
C14   C15   A    
C19   H2    S    
C51   C53   S    
C30   H3    S    
C25   O12   S    
N14   Ni4   S    
N2    Ni3   S    
C4    H32   S    
