data_mof_unit_30491.cif
_audit_creation_date              2012-12-10T20:25:46-0500
_audit_creation_method            fapswitch 2.2
_symmetry_space_group_name_H-M    P1
_symmetry_Int_Tables_number       1
_space_group_crystal_system       triclinic
_cell_length_a                    8.689309
_cell_length_b                    10.734039
_cell_length_c                    9.919343
_cell_angle_alpha                 87.906898
_cell_angle_beta                  98.145704
_cell_angle_gamma                 93.589675
_cell_volume                      913.701548962

loop_
_atom_site_label
_atom_site_type_symbol
_atom_type_description
_atom_site_fract_x
_atom_site_fract_y
_atom_site_fract_z
_atom_type_partial_charge
C1    C     C_R   0.515626 0.261412 0.503285 0.894272
C2    C     C_R   0.462015 0.393678 0.929602 0.159228
C3    C     C_3   0.319478 0.305248 0.915496 -0.214997
C4    C     C_R   0.203148 0.509791 0.464207 0.926771
C5    C     C_3   0.343917 0.289432 0.070712 -0.259390
C6    C     C_R   0.498214 0.740571 0.497424 0.869247
C7    C     C_R   0.798034 0.512079 0.534007 0.902093
C8    C     C_2   0.040591 0.526564 0.441419 -0.227373
C9    C     C_2   0.962885 0.539407 0.548505 -0.150963
C10   C     C_R   0.558016 0.060019 0.626613 0.127105
C11   C     C_R   0.555067 0.132474 0.507526 -0.179244
C12   C     C_R   0.528260 0.946955 0.375551 -0.054702
C13   C     C_R   0.574146 0.073222 0.386771 -0.080129
C14   C     C_1   0.970673 0.527402 0.298818 0.278539
C15   C     C_1   0.208232 0.306820 0.138656 0.330094
C16   C     C_1   0.644248 0.137849 0.277684 0.210671
C17   C     C_1   0.457842 0.903976 0.242923 0.216905
C18   C     C_1   0.659861 0.694544 0.150449 0.250936
C19   C     C_R   0.518217 0.874541 0.496271 -0.173594
C20   C     C_R   0.548594 0.932167 0.621886 0.115410
C21   C     C_3   0.453462 0.919463 0.736540 -0.437167
C22   C     C_3   0.460169 0.060068 0.737615 -0.490183
C23   C     C_R   0.468701 0.392068 0.071121 0.154308
C24   C     C_R   0.566196 0.598285 0.075423 0.029101
C25   C     C_R   0.563662 0.598772 0.931271 -0.151827
H1    H     H_    0.616880 0.677132 0.879780 0.145577
H2    H     H_    0.008822 0.683758 0.674958 0.181072
H3    H     H_    0.993919 0.544978 0.755281 0.204116
H4    H     H_    0.330316 0.217585 0.866158 0.168021
H5    H     H_    0.393157 0.198470 0.102916 0.141208
H6    H     H_    0.334123 0.876917 0.705814 0.207665
H7    H     H_    0.517923 0.877463 0.830162 0.205038
H8    H     H_    0.344937 0.097462 0.700314 0.199780
H9    H     H_    0.526365 0.098503 0.832713 0.211327
H10   H     H_    0.185015 0.458196 0.891083 0.213274
H11   H     H_    0.161080 0.361676 0.756673 0.232253
N1    N     N_R   0.498950 0.499140 0.142680 -0.134984
N2    N     N_R   0.498950 0.499180 0.857030 -0.110978
N3    N     N_1   0.918078 0.527647 0.184929 -0.195117
N4    N     N_3   0.175618 0.364873 0.862668 -0.427065
N5    N     N_1   0.099218 0.313642 0.191694 -0.197529
N6    N     N_3   0.039493 0.591192 0.674059 -0.432726
N7    N     N_1   0.702557 0.188547 0.191399 -0.203588
N8    N     N_1   0.399121 0.871604 0.136867 -0.224740
N9    N     N_1   0.739017 0.770928 0.209642 -0.217591
O1    O     O_R   0.500020 0.316790 0.614690 -0.616198
O2    O     O_R   0.500000 0.316760 0.385350 -0.620978
O3    O     O_R   0.271760 0.500010 0.587850 -0.598362
O4    O     O_R   0.271740 0.499970 0.358500 -0.623346
O5    O     O_R   0.500000 0.683240 0.614650 -0.623903
O6    O     O_R   0.499980 0.683210 0.385310 -0.617198
O7    O     O_R   0.728260 0.500030 0.641500 -0.622332
O8    O     O_R   0.728240 0.499990 0.412150 -0.617844
Zn1   Zn    Zn3+2 0.500010 0.500020 0.653130 0.951497
Zn2   Zn    Zn3+2 0.499990 0.499980 0.346870 0.978543

loop_
_geom_bond_atom_site_label_1
_geom_bond_atom_site_label_2
_ccdc_geom_bond_type
C12   C17   S    
C7    O7    A    
C8    C14   S    
C25   N2    A    
C11   C13   A    
C2    N2    A    
C16   N7    T    
C19   C20   A    
N2    Zn1   S    
C4    O4    A    
C4    C8    S    
C20   C21   S    
O1    Zn1   S    
C24   N1    A    
C14   N3    T    
C17   N8    T    
O4    Zn2   S    
C21   C22   S    
C6    O5    A    
C22   H9    S    
O3    Zn1   S    
C6    C19   S    
C21   H6    S    
H2    N6    S    
C9    N6    S    
O5    Zn1   S    
C18   C24   S    
C12   C19   A    
H3    N6    S    
O7    Zn1   S    
C3    N4    S    
H10   N4    S    
O6    Zn2   S    
O8    Zn2   S    
C6    O6    A    
C21   H7    S    
C1    O1    A    
C5    C15   S    
C10   C11   A    
C7    O8    A    
N1    Zn2   S    
C18   N9    T    
C7    C9    S    
H11   N4    S    
C24   C25   A    
C15   N5    T    
O2    Zn2   S    
C5    H5    S    
C4    O3    A    
C13   C16   S    
C2    C23   A    
C3    H4    S    
C22   H8    S    
C1    O2    A    
C2    C3    S    
C12   C13   A    
C25   H1    S    
C23   N1    A    
C5    C23   S    
C10   C22   S    
C10   C20   A    
C8    C9    D    
C3    C5    S    
C1    C11   S    
