data_mof_unit_28317.cif
_audit_creation_date              2012-12-10T17:31:19-0500
_audit_creation_method            fapswitch 2.2
_symmetry_space_group_name_H-M    P1
_symmetry_Int_Tables_number       1
_space_group_crystal_system       triclinic
_cell_length_a                    19.047368
_cell_length_b                    18.406724
_cell_length_c                    12.337157
_cell_angle_alpha                 89.999763
_cell_angle_beta                  129.001063
_cell_angle_gamma                 90.001341
_cell_volume                      3361.4188707

loop_
_atom_site_label
_atom_site_type_symbol
_atom_type_description
_atom_site_fract_x
_atom_site_fract_y
_atom_site_fract_z
_atom_type_partial_charge
C1    C     C_R   0.610508 0.896889 0.650787 0.793074
C2    C     C_R   0.610546 0.103086 0.650833 0.792986
C3    C     C_R   0.110494 0.396879 0.650772 0.793120
C4    C     C_R   0.110537 0.603092 0.650823 0.793032
C5    C     C_R   0.236361 0.782567 0.028254 0.047142
C6    C     C_R   0.236319 0.217448 0.028278 0.047169
C7    C     C_R   0.736364 0.282573 0.028245 0.047134
C8    C     C_R   0.736361 0.717472 0.028321 0.047179
C9    C     C_R   0.660492 0.273371 0.024180 0.118183
C10   C     C_R   0.660656 0.726895 0.024618 0.118241
C11   C     C_R   0.160527 0.773315 0.024270 0.118206
C12   C     C_R   0.160671 0.226947 0.024695 0.118262
C13   C     C_R   0.584168 0.237430 0.910856 -0.207232
C14   C     C_R   0.584340 0.762893 0.911416 -0.207343
C15   C     C_R   0.084203 0.737362 0.910971 -0.207267
C16   C     C_R   0.084356 0.262964 0.911530 -0.207385
C17   C     C_R   0.584872 0.205967 0.809520 -0.204950
C18   C     C_R   0.584908 0.794200 0.809842 -0.204921
C19   C     C_R   0.084878 0.705933 0.809582 -0.204944
C20   C     C_R   0.084888 0.294236 0.809895 -0.204922
C21   C     C_R   0.311889 0.819475 0.141646 -0.244770
C22   C     C_R   0.311833 0.180463 0.141536 -0.244725
C23   C     C_R   0.811899 0.319460 0.141671 -0.244782
C24   C     C_R   0.811871 0.680494 0.141604 -0.244754
C25   C     C_R   0.237370 0.840977 0.240455 -0.204480
C26   C     C_R   0.237628 0.159346 0.240954 -0.204495
C27   C     C_R   0.737312 0.341048 0.240346 -0.204480
C28   C     C_R   0.737561 0.659254 0.240823 -0.204477
C29   C     C_R   0.670619 0.165142 0.731229 -0.108403
C30   C     C_R   0.670463 0.834753 0.731046 -0.108503
C31   C     C_R   0.170587 0.665164 0.731189 -0.108435
C32   C     C_R   0.170403 0.334707 0.730974 -0.108545
C33   C     C_R   0.684019 0.999950 0.285604 -0.276444
C34   C     C_R   0.184019 0.499951 0.285604 -0.276375
C35   C     C_R   0.343901 0.000017 0.627864 0.073078
C36   C     C_R   0.843901 0.500016 0.627863 0.073093
C37   C     C_R   0.309738 0.000031 0.699910 -0.238460
C38   C     C_R   0.809738 0.500027 0.699910 -0.238433
C39   C     C_R   0.384363 0.098976 0.342592 0.812617
C40   C     C_R   0.384349 0.901037 0.342572 0.812619
C41   C     C_R   0.884360 0.598971 0.342589 0.812608
C42   C     C_R   0.884344 0.401041 0.342566 0.812600
C43   C     C_R   0.368357 0.000024 0.845385 -0.200551
C44   C     C_R   0.868357 0.500020 0.845385 -0.200483
C45   C     C_R   0.462659 0.000003 0.921428 -0.003760
C46   C     C_R   0.962659 0.500002 0.921428 -0.003765
C47   C     C_R   0.494614 0.999994 0.842714 0.279261
C48   C     C_R   0.994614 0.499993 0.842714 0.279220
C49   C     C_R   0.526339 0.999994 0.071980 -0.027759
C50   C     C_R   0.026339 0.499993 0.071980 -0.027741
C51   C     C_R   0.620021 0.999966 0.139601 0.176668
C52   C     C_R   0.120021 0.499966 0.139601 0.176676
C53   C     C_R   0.649655 0.999960 0.061472 -0.257890
C54   C     C_R   0.149654 0.499960 0.061472 -0.257840
C55   C     C_R   0.588600 0.999981 0.916922 -0.168212
C56   C     C_R   0.088600 0.499981 0.916922 -0.168211
C57   C     C_R   0.501868 0.000011 0.159738 0.036032
C58   C     C_R   0.001868 0.500010 0.159738 0.036107
C59   C     C_R   0.655592 0.999968 0.365314 0.085614
C60   C     C_R   0.155592 0.499968 0.365314 0.085665
C61   C     C_R   0.662427 0.301608 0.132630 0.151582
C62   C     C_R   0.662738 0.698811 0.133295 0.151553
C63   C     C_R   0.162496 0.801516 0.132773 0.151560
C64   C     C_R   0.162812 0.198924 0.133463 0.151547
C65   C     C_R   0.311190 0.851255 0.243280 -0.092764
C66   C     C_R   0.311257 0.148817 0.243387 -0.092778
C67   C     C_R   0.811172 0.351271 0.243256 -0.092752
C68   C     C_R   0.811248 0.648801 0.243373 -0.092762
C69   C     C_R   0.741078 0.179392 0.726550 -0.171914
C70   C     C_R   0.740731 0.820298 0.726016 -0.171675
C71   C     C_R   0.241009 0.679456 0.726440 -0.171827
C72   C     C_R   0.240618 0.320185 0.725839 -0.171551
C73   C     C_R   0.305238 0.731987 0.812010 -0.110176
C74   C     C_R   0.304710 0.267529 0.811193 -0.110001
C75   C     C_R   0.805328 0.231905 0.812153 -0.110239
C76   C     C_R   0.804887 0.767703 0.811474 -0.110057
C77   C     C_R   0.303946 0.767571 0.910059 -0.152830
C78   C     C_R   0.303526 0.232064 0.909447 -0.152774
C79   C     C_R   0.804015 0.267511 0.910163 -0.152855
C80   C     C_R   0.803693 0.732222 0.909704 -0.152751
C81   C     C_R   0.735574 0.252885 0.921081 0.089423
C82   C     C_R   0.735437 0.747039 0.920952 0.089473
C83   C     C_R   0.235543 0.752905 0.921046 0.089435
C84   C     C_R   0.235347 0.246967 0.920833 0.089495
C85   C     C_R   0.663059 0.207200 0.820019 0.081783
C86   C     C_R   0.662972 0.792797 0.820019 0.081766
C87   C     C_R   0.163039 0.707203 0.820013 0.081774
C88   C     C_R   0.162915 0.292769 0.819970 0.081770
Cu1   Cu    Cu3+1 0.526340 0.000000 0.421010 0.951535
Cu2   Cu    Cu3+1 0.026340 0.500000 0.421010 0.951578
Cu3   Cu    Cu3+1 0.473640 0.000000 0.578990 0.919573
Cu4   Cu    Cu3+1 0.973640 0.500000 0.578990 0.919566
H1    H     H_    0.236825 0.865008 0.320063 0.175656
H2    H     H_    0.237199 0.135453 0.320769 0.175708
H3    H     H_    0.736741 0.365111 0.319908 0.175637
H4    H     H_    0.737086 0.635307 0.320556 0.175694
H5    H     H_    0.721320 0.999943 0.112814 0.160044
H6    H     H_    0.221320 0.499944 0.112814 0.160059
H7    H     H_    0.755780 0.999924 0.337865 0.141238
H8    H     H_    0.255780 0.499925 0.337865 0.141247
H9    H     H_    0.432182 0.000031 0.117143 0.119408
H10   H     H_    0.932182 0.500030 0.117143 0.119418
H11   H     H_    0.297710 0.000024 0.515044 0.133242
H12   H     H_    0.797710 0.500022 0.515044 0.133231
H13   H     H_    0.338149 0.000035 0.895559 0.138173
H14   H     H_    0.838149 0.500029 0.895559 0.138190
H15   H     H_    0.237415 0.000047 0.642666 0.157685
H16   H     H_    0.737416 0.500042 0.642666 0.157690
H17   H     H_    0.618681 0.999989 0.867785 0.211329
H18   H     H_    0.118681 0.499989 0.867785 0.211345
H19   H     H_    0.523104 0.232955 0.899067 0.169893
H20   H     H_    0.523383 0.767516 0.899897 0.169857
H21   H     H_    0.023162 0.732855 0.899240 0.169874
H22   H     H_    0.023433 0.267635 0.900096 0.169854
H23   H     H_    0.372873 0.824221 0.153866 0.171512
H24   H     H_    0.372707 0.175558 0.153475 0.171446
H25   H     H_    0.872910 0.324166 0.153957 0.171538
H26   H     H_    0.872779 0.675624 0.153633 0.171444
H27   H     H_    0.747291 0.149321 0.657483 0.159667
H28   H     H_    0.746862 0.850266 0.656769 0.159825
H29   H     H_    0.247208 0.649402 0.657343 0.159705
H30   H     H_    0.246747 0.350138 0.656574 0.159863
H31   H     H_    0.356119 0.807559 0.973130 0.145354
H32   H     H_    0.355592 0.191980 0.972359 0.145029
H33   H     H_    0.856200 0.307487 0.973258 0.145420
H34   H     H_    0.855817 0.692191 0.972708 0.145144
H35   H     H_    0.358126 0.743643 0.805331 0.150401
H36   H     H_    0.357419 0.255682 0.804191 0.150311
H37   H     H_    0.858246 0.243530 0.805529 0.150404
H38   H     H_    0.857652 0.755917 0.804572 0.150354
H39   H     H_    0.522002 0.182618 0.721064 0.179781
H40   H     H_    0.522019 0.817555 0.721460 0.179906
H41   H     H_    0.022003 0.682582 0.721143 0.179808
H42   H     H_    0.021998 0.317611 0.721552 0.179945
H43   H     H_    0.704821 0.999953 0.477960 0.120110
H44   H     H_    0.204821 0.499954 0.477960 0.120138
N1    N     N_R   0.566260 0.000000 0.302220 -0.177978
N2    N     N_R   0.066260 0.500000 0.302220 -0.177983
N3    N     N_R   0.434410 1.000000 0.697680 -0.211588
N4    N     N_R   0.934410 0.500000 0.697680 -0.211600
O1    O     O_R   0.608610 0.924520 0.551740 -0.575719
O2    O     O_R   0.608610 0.075480 0.551740 -0.575724
O3    O     O_R   0.108610 0.424520 0.551740 -0.575700
O4    O     O_R   0.108610 0.575480 0.551740 -0.575719
O5    O     O_R   0.564110 0.924510 0.685150 -0.605627
O6    O     O_R   0.564110 0.075490 0.685150 -0.605553
O7    O     O_R   0.064110 0.424510 0.685150 -0.605643
O8    O     O_R   0.064110 0.575490 0.685150 -0.605560
O9    O     O_R   0.435880 0.075470 0.314850 -0.583490
O10   O     O_R   0.435880 0.924530 0.314850 -0.583390
O11   O     O_R   0.935880 0.575470 0.314850 -0.583488
O12   O     O_R   0.935880 0.424530 0.314850 -0.583373
O13   O     O_R   0.391380 0.075460 0.448260 -0.595740
O14   O     O_R   0.391380 0.924540 0.448260 -0.595710
O15   O     O_R   0.891380 0.575460 0.448260 -0.595745
O16   O     O_R   0.891380 0.424540 0.448260 -0.595720
I1    I     I_    0.556064 0.288014 0.143416 -0.458171
I2    I     I_    0.556754 0.712876 0.144817 -0.458666
I3    I     I_    0.056212 0.787827 0.143713 -0.458431
I4    I     I_    0.056948 0.213149 0.145221 -0.458820

loop_
_geom_bond_atom_site_label_1
_geom_bond_atom_site_label_2
_ccdc_geom_bond_type
C26   H2    S    
C83   C87   A    
C3    O7    A    
C2    O6    A    
C17   H39   S    
Cu3   O5    S    
C14   C18   A    
C27   H3    S    
C63   I3    S    
C21   H23   S    
C21   C65   A    
C32   C72   A    
C42   O16   A    
C14   H20   S    
C4    O4    A    
C18   C86   A    
C39   O13   A    
C2    C29   S    
C17   C85   A    
C1    O1    A    
C28   C68   A    
C37   H15   S    
C35   H11   S    
C6    C12   A    
C12   C64   A    
Cu1   O1    S    
Cu4   O8    S    
C59   N1    A    
Cu1   O2    S    
C6    C22   A    
C49   C57   A    
C48   C56   A    
C43   H13   S    
C45   C47   A    
C23   C67   A    
C29   C69   A    
C26   C64   A    
C25   C63   A    
C9    C13   A    
C27   C61   A    
C30   C70   A    
Cu3   O13   S    
C11   C15   A    
C3    O3    A    
C22   C66   A    
C12   C16   A    
C70   H28   S    
C22   H24   S    
C49   C51   A    
C18   H40   S    
C34   H8    S    
C15   H21   S    
C58   H10   S    
C30   C86   A    
C78   H32   S    
C60   H44   S    
C29   C85   A    
Cu2   O3    S    
C35   N3    A    
C58   N2    A    
C31   C71   A    
C79   H33   S    
C33   C59   A    
C55   H17   S    
Cu4   O7    S    
C34   C60   A    
C40   O14   A    
C10   C62   A    
C76   H38   S    
C56   H18   S    
Cu2   N2    S    
C52   C54   A    
C41   C68   S    
C46   C48   A    
C53   C55   A    
Cu2   Cu4   S    
C54   C56   A    
Cu1   O9    S    
C31   C87   A    
C28   C62   A    
C48   N4    A    
C57   N1    A    
C26   C66   A    
C76   C80   A    
C6    C84   A    
Cu3   O14   S    
C72   C74   A    
C10   C14   A    
C79   C81   A    
C44   C46   A    
C53   H5    S    
C73   H35   S    
C69   H27   S    
C33   H7    S    
C50   C58   A    
C37   C43   A    
C15   C19   A    
C38   C44   A    
C77   H31   S    
C61   I1    S    
C43   C45   A    
C50   C52   A    
C45   C49   A    
C25   H1    S    
C16   C20   A    
C64   I4    S    
C62   I2    S    
C40   O10   A    
Cu4   O16   S    
C36   N4    A    
Cu3   N3    S    
Cu2   O12   S    
Cu1   O10   S    
C7    C81   A    
Cu1   N1    S    
C40   C65   S    
C70   C76   A    
C42   C67   S    
C2    O2    A    
C39   C66   S    
C9    C61   A    
C32   C88   A    
C19   H41   S    
C1    O5    A    
C47   N3    A    
Cu4   N4    S    
C74   H36   S    
C42   O12   A    
C35   C37   A    
C47   C55   A    
C7    C9    A    
C46   C50   A    
C73   C77   A    
C72   H30   S    
C24   H26   S    
C71   H29   S    
C84   C88   A    
Cu2   O11   S    
C16   H22   S    
C23   H25   S    
C5    C83   A    
C5    C11   A    
C41   O11   A    
C44   H14   S    
C33   C51   A    
C57   H9    S    
C39   O9    A    
C34   C52   A    
C13   C17   A    
C28   H4    S    
C20   H42   S    
C36   C38   A    
C19   C87   A    
C13   H19   S    
C82   C86   A    
C36   H12   S    
C80   H34   S    
C7    C23   A    
C20   C88   A    
C59   H43   S    
C1    C30   S    
C8    C24   A    
C80   C82   A    
C69   C75   A    
Cu4   O15   S    
C38   H16   S    
C3    C32   S    
C81   C85   A    
C4    C31   S    
C27   C67   A    
C24   C68   A    
C78   C84   A    
C8    C82   A    
C5    C21   A    
C8    C10   A    
Cu1   Cu3   S    
C74   C78   A    
C71   C73   A    
C25   C65   A    
C77   C83   A    
C54   H6    S    
C51   C53   A    
C11   C63   A    
C75   C79   A    
Cu3   O6    S    
Cu2   O4    S    
C75   H37   S    
C60   N2    A    
C41   O15   A    
C4    O8    A    
