data_mof_unit_18414.cif
_audit_creation_date              2012-12-10T18:32:45-0500
_audit_creation_method            fapswitch 2.2
_symmetry_space_group_name_H-M    P1
_symmetry_Int_Tables_number       1
_space_group_crystal_system       triclinic
_cell_length_a                    14.99913
_cell_length_b                    15.469942
_cell_length_c                    15.749711
_cell_angle_alpha                 90.073467
_cell_angle_beta                  104.699299
_cell_angle_gamma                 81.508005
_cell_volume                      3493.62927058

loop_
_atom_site_label
_atom_site_type_symbol
_atom_type_description
_atom_site_fract_x
_atom_site_fract_y
_atom_site_fract_z
_atom_type_partial_charge
C1    C     C_R   0.441191 0.662052 0.484798 0.905256
C2    C     C_3   0.404672 0.474679 0.023122 0.053560
C3    C     C_3   0.499321 0.495201 0.082977 0.147276
C4    C     C_3   0.583691 0.428059 0.069438 -0.024927
C5    C     C_3   0.578878 0.423047 0.969489 0.161841
C6    C     C_1   0.497754 0.496157 0.174185 0.017624
C7    C     C_1   0.504102 0.499477 0.826407 0.077744
C8    C     C_1   0.503727 0.499988 0.751035 -0.160365
C9    C     C_R   0.405639 0.754251 0.460466 -0.137472
C10   C     C_R   0.596884 0.246480 0.533441 -0.086074
C11   C     C_R   0.312431 0.869153 0.355487 0.384659
C12   C     C_R   0.501197 0.500086 0.661582 0.891886
C13   C     C_R   0.328664 0.781257 0.388502 0.081174
C14   C     C_R   0.462350 0.813515 0.500621 -0.307789
C15   C     C_R   0.455796 0.896274 0.462493 0.041193
C16   C     C_R   0.378339 0.924934 0.390591 0.085433
C17   C     C_R   0.524007 0.951279 0.495030 0.074105
C18   C     C_R   0.508648 0.038583 0.461381 0.085777
C19   C     C_R   0.431593 0.064753 0.388505 -0.253387
C20   C     C_R   0.368327 0.008988 0.353946 -0.155917
C21   C     C_R   0.607530 0.921258 0.559609 -0.291836
C22   C     C_R   0.666386 0.978519 0.601756 0.195390
C23   C     C_R   0.558853 0.338389 0.515543 0.892660
C24   C     C_R   0.645066 0.067677 0.577087 0.094979
C25   C     C_R   0.568691 0.097422 0.504045 0.054283
C26   C     C_R   0.696539 0.128206 0.626358 -0.250089
C27   C     C_R   0.669871 0.217859 0.607852 0.184949
C28   C     C_R   0.550276 0.186815 0.480705 -0.291585
C29   C     C_R   0.847935 0.614646 0.654118 0.123353
C30   C     C_R   0.755296 0.601502 0.620173 -0.025833
C31   C     C_R   0.794690 0.512755 0.508471 -0.061965
C32   C     C_R   0.890188 0.517354 0.541728 -0.019139
C33   C     C_R   0.915380 0.574579 0.611684 0.078413
C34   C     C_R   0.499070 0.499336 0.338520 0.889493
C35   C     C_R   0.960274 0.470655 0.505083 0.053580
C36   C     C_R   0.051007 0.495981 0.526374 0.084565
C37   C     C_R   0.072232 0.556389 0.593030 -0.206831
C38   C     C_R   0.006805 0.592708 0.636159 -0.215459
C39   C     C_R   0.944331 0.398712 0.449530 0.126376
C40   C     C_R   0.009402 0.365626 0.404212 -0.184771
C41   C     C_R   0.095305 0.394807 0.418603 0.047559
C42   C     C_R   0.118080 0.459141 0.481262 -0.085946
C43   C     C_R   0.160016 0.356824 0.373454 0.310183
C44   C     C_R   0.246664 0.386992 0.388877 0.243704
C45   C     C_3   0.405019 0.482925 0.925078 -0.515939
C46   C     C_R   0.207632 0.483699 0.495984 -0.116103
C47   C     C_3   0.521460 0.590112 0.957760 0.604595
C48   C     C_3   0.515576 0.587542 0.055881 -0.602738
C49   C     C_1   0.497404 0.497563 0.249347 -0.201103
C50   C     C_3   0.502945 0.498760 0.917742 0.078257
H1    H     H_    0.384487 0.423308 0.890820 0.176184
H2    H     H_    0.398158 0.406091 0.036685 0.163625
H3    H     H_    0.646997 0.458395 0.098676 0.088216
H4    H     H_    0.310775 0.032795 0.298203 0.203353
H5    H     H_    0.495302 0.213765 0.425042 0.147442
H6    H     H_    0.514363 0.791088 0.560324 0.165862
H7    H     H_    0.350139 0.536184 0.889869 0.200484
H8    H     H_    0.417795 0.127838 0.355273 0.136633
H9    H     H_    0.629117 0.853270 0.579928 0.149411
H10   H     H_    0.753428 0.107033 0.683425 0.179209
H11   H     H_    0.028183 0.638439 0.686593 0.152273
H12   H     H_    0.231703 0.531631 0.542211 0.153665
H13   H     H_    0.993209 0.313098 0.360024 0.208581
H14   H     H_    0.700979 0.627654 0.650957 0.156047
H15   H     H_    0.767760 0.479434 0.449762 0.165059
H16   H     H_    0.139914 0.576098 0.615369 0.139217
H17   H     H_    0.460477 0.639075 0.067502 0.190338
H18   H     H_    0.581030 0.603787 0.100342 0.175563
H19   H     H_    0.647922 0.432870 0.960681 0.124206
N1    N     N_R   0.731690 0.552720 0.548990 -0.127198
N2    N     N_R   0.268300 0.447240 0.450950 -0.124168
O1    O     O_R   0.383120 0.605620 0.475300 -0.585812
O2    O     O_R   0.531890 0.639510 0.506740 -0.622538
O3    O     O_R   0.425580 0.483050 0.607130 -0.616860
O4    O     O_R   0.574360 0.516930 0.638570 -0.613127
O5    O     O_R   0.468110 0.360490 0.493260 -0.605960
O6    O     O_R   0.616880 0.394380 0.524700 -0.595070
O7    O     O_R   0.425640 0.483070 0.361430 -0.577766
O8    O     O_R   0.574420 0.516950 0.392870 -0.617075
Zn1   Zn    Zn3+2 0.400660 0.477370 0.479010 0.968932
Zn2   Zn    Zn3+2 0.599340 0.522630 0.520990 0.947492
N3    N     N_2   0.325032 0.531046 0.041136 -0.291477
H20   H     H_    0.318762 0.596243 0.023659 0.230783
C51   C     C_3   0.237046 0.497837 0.017701 -0.820406
H21   H     H_    0.183686 0.542989 0.040239 0.244274
H22   H     H_    0.244027 0.432588 0.050129 0.247680
H23   H     H_    0.213275 0.492867 0.945326 0.243043
N4    N     N_2   0.705734 0.277995 0.671429 -0.297949
H24   H     H_    0.708085 0.258433 0.734674 0.233983
C52   C     C_3   0.792967 0.303434 0.665817 -0.744325
H25   H     H_    0.814621 0.350463 0.717575 0.236340
H26   H     H_    0.848224 0.245290 0.675607 0.223039
H27   H     H_    0.784725 0.336548 0.601399 0.282687
N5    N     N_2   0.745527 0.945949 0.671307 -0.312906
H28   H     H_    0.780838 0.887015 0.658437 0.241395
C53   C     C_3   0.726189 0.944233 0.756726 -0.802439
H29   H     H_    0.676360 0.898085 0.758242 0.240520
H30   H     H_    0.696199 0.010421 0.772616 0.253520
H31   H     H_    0.792001 0.922512 0.807706 0.245327
O9    O     O_3   0.237002 0.901322 0.286556 -0.790276
H32   H     H_    0.192045 0.859502 0.273409 0.338873
N6    N     N_2   0.272745 0.718631 0.347016 -0.291250
H33   H     H_    0.202408 0.734800 0.342088 0.215031
C54   C     C_3   0.294101 0.684428 0.267718 -0.726224
H34   H     H_    0.274041 0.735949 0.214424 0.234404
H35   H     H_    0.254896 0.629428 0.245945 0.234642
H36   H     H_    0.369779 0.659670 0.280119 0.234858
N7    N     N_2   0.312146 0.356379 0.340280 -0.258255
H37   H     H_    0.335986 0.290188 0.348371 0.187387
C55   C     C_3   0.286494 0.387912 0.249430 -0.746919
H38   H     H_    0.225682 0.359607 0.210678 0.232392
H39   H     H_    0.346003 0.368725 0.220032 0.227178
H40   H     H_    0.269163 0.460387 0.245055 0.258165
N8    N     N_2   0.874882 0.664302 0.731056 -0.306964
H41   H     H_    0.934852 0.636083 0.776048 0.226677
C56   C     C_3   0.804627 0.707014 0.771892 -0.831225
H42   H     H_    0.837381 0.747973 0.825364 0.247833
H43   H     H_    0.773050 0.657491 0.800735 0.246062
H44   H     H_    0.749924 0.750419 0.723212 0.244069
N9    N     N_2   0.614317 0.606734 0.954229 -0.302594
H45   H     H_    0.669289 0.566551 0.995131 0.168062
C57   C     C_3   0.630453 0.696959 0.956595 -0.675673
H46   H     H_    0.704126 0.699461 0.956724 0.204902
H47   H     H_    0.616739 0.727585 0.016768 0.229344
H48   H     H_    0.585426 0.734706 0.897355 0.277043
N10   N     N_2   0.868594 0.351951 0.445636 -0.326091
H49   H     H_    0.829457 0.346743 0.382215 0.225891
C58   C     C_3   0.894735 0.267908 0.492576 -0.786071
H50   H     H_    0.831011 0.239317 0.492444 0.248255
H51   H     H_    0.933578 0.275541 0.561620 0.253754
H52   H     H_    0.939017 0.221963 0.460351 0.244843
O10   O     O_3   0.136290 0.291596 0.315440 -0.788197
H53   H     H_    0.192987 0.258064 0.303697 0.334864
O11   O     O_3   0.454240 0.657351 0.907554 -0.757644
H54   H     H_    0.395844 0.662828 0.926903 0.319514
O12   O     O_3   0.565803 0.340083 0.935856 -0.745262
H55   H     H_    0.505900 0.326366 0.942948 0.349414
N11   N     N_2   0.603395 0.342432 0.115967 -0.273184
H56   H     H_    0.662537 0.303616 0.107781 0.255800
C59   C     C_3   0.532149 0.293220 0.128196 -0.757074
H57   H     H_    0.566151 0.234232 0.170775 0.233015
H58   H     H_    0.492615 0.270496 0.065174 0.227088
H59   H     H_    0.484511 0.331246 0.162541 0.229633

loop_
_geom_bond_atom_site_label_1
_geom_bond_atom_site_label_2
_ccdc_geom_bond_type
C10   C27   A    
C5    O12   S    
C14   H6    S    
C29   N8    S    
N10   H49   S    
C12   O3    A    
C4    H3    S    
C41   C43   A    
C41   C42   A    
C36   C42   A    
C35   C36   A    
C59   H59   S    
C23   O5    A    
C9    C14   A    
C3    C6    S    
C58   H50   S    
C54   H35   S    
N8    H41   S    
C7    C8    T    
C56   H42   S    
C25   C28   A    
C45   H7    S    
C26   C27   A    
C29   C30   A    
C40   H13   S    
C46   H12   S    
C36   C37   A    
C24   C26   A    
C21   H9    S    
C30   H14   S    
O7    Zn1   S    
C45   H1    S    
C15   C16   A    
C53   H31   S    
C29   C33   A    
C3    C48   S    
N7    H37   S    
C44   N2    A    
C31   H15   S    
C18   C19   A    
C42   C46   A    
N1    Zn2   S    
C9    C13   A    
C55   H38   S    
C54   H34   S    
C5    H19   S    
C51   H21   S    
C31   N1    A    
C31   C32   A    
N7    C55   S    
O10   H53   S    
C53   H30   S    
C51   H23   S    
C8    C12   S    
N5    C53   S    
C38   H11   S    
C23   O6    A    
C2    C45   S    
C39   N10   S    
O3    Zn1   S    
C21   C22   A    
C53   H29   S    
C22   N5    S    
N6    H33   S    
C18   C25   A    
O2    Zn2   S    
N2    Zn1   S    
C30   N1    A    
C28   H5    S    
N9    C57   S    
C47   C50   S    
C44   N7    S    
C19   H8    S    
C1    O1    A    
C32   C35   A    
C1    C9    S    
C24   C25   A    
C20   H4    S    
C39   C40   A    
O8    Zn2   S    
O4    Zn2   S    
C48   H18   S    
C11   O9    S    
C35   C39   A    
C43   C44   A    
C37   C38   A    
C34   O8    A    
C11   C16   A    
C52   H26   S    
C47   C48   S    
O6    Zn2   S    
C16   C20   A    
C37   H16   S    
C17   C18   A    
N5    H28   S    
C59   H57   S    
N6    C54   S    
C55   H40   S    
C46   N2    A    
C2    H2    S    
C40   C41   A    
N4    C52   S    
N3    C51   S    
C47   O11   S    
C22   C24   A    
C5    C50   S    
C2    N3    S    
C57   H47   S    
C3    C4    S    
C58   H52   S    
N9    H45   S    
C52   H27   S    
C10   C28   A    
C15   C17   A    
C47   N9    S    
C34   C49   S    
N10   C58   S    
O5    Zn1   S    
C7    C50   S    
C51   H22   S    
C4    C5    S    
C58   H51   S    
N8    C56   S    
O11   H54   S    
N11   C59   S    
C10   C23   S    
C33   C38   A    
C56   H44   S    
C1    O2    A    
C32   C33   A    
C19   C20   A    
C2    C3    S    
C13   N6    S    
O1    Zn1   S    
C34   O7    A    
C11   C13   A    
C52   H25   S    
C45   C50   S    
C57   H48   S    
O9    H32   S    
C56   H43   S    
C43   O10   S    
C48   H17   S    
C27   N4    S    
C55   H39   S    
N11   H56   S    
C4    N11   S    
N4    H24   S    
N3    H20   S    
C12   O4    A    
C14   C15   A    
O12   H55   S    
C59   H58   S    
C57   H46   S    
C26   H10   S    
C54   H36   S    
C6    C49   T    
C17   C21   A    
