data_mof_unit_43447.cif
_audit_creation_date              2013-03-05T16:47:42-0500
_audit_creation_method            fapswitch 2.2
_symmetry_space_group_name_H-M    P1
_symmetry_Int_Tables_number       1
_space_group_crystal_system       triclinic
_cell_length_a                    10.978008
_cell_length_b                    13.014556
_cell_length_c                    11.744509
_cell_angle_alpha                 100.938554
_cell_angle_beta                  94.755194
_cell_angle_gamma                 92.251203
_cell_volume                      1639.22927165

loop_
_atom_site_label
_atom_site_type_symbol
_atom_site_description
_atom_site_fract_x
_atom_site_fract_y
_atom_site_fract_z
_atom_type_partial_charge
O1    O     O_R   0.506570 0.354460 0.582000 -0.621112
O2    O     O_R   0.493430 0.645540 0.418000 -0.621114
O3    O     O_R   0.490940 0.341410 0.386200 -0.519052
O4    O     O_R   0.509060 0.658590 0.613800 -0.519050
C1    C     C_R   0.500209 0.299492 0.477793 0.908899
C2    C     C_R   0.499791 0.700508 0.522207 0.908906
O5    O     O_R   0.327460 0.506540 0.597900 -0.513417
O6    O     O_R   0.672540 0.493460 0.402100 -0.513403
O7    O     O_R   0.311830 0.493480 0.402100 -0.582620
O8    O     O_R   0.688170 0.506520 0.597900 -0.582619
C3    C     C_R   0.262023 0.498258 0.498949 0.901380
C4    C     C_R   0.737978 0.501738 0.501050 0.901382
Cu1   Cu    Cu3+1 0.509250 0.507730 0.615930 1.068690
Cu2   Cu    Cu3+1 0.490750 0.492270 0.384070 1.068696
H1    H     H_    0.245255 0.581848 0.010977 0.196356
H2    H     H_    0.754687 0.418263 0.989024 0.196342
C5    C     C_R   0.217195 0.649362 0.188483 0.168299
C6    C     C_R   0.782795 0.350692 0.811549 0.168301
C7    C     C_R   0.165735 0.632864 0.288995 -0.090658
C8    C     C_R   0.834274 0.367155 0.711033 -0.090666
H3    H     H_    0.174853 0.694644 0.365829 0.176549
H4    H     H_    0.825168 0.305354 0.634220 0.176555
C9    C     C_R   0.105139 0.536596 0.292098 0.064519
C10   C     C_R   0.894867 0.463416 0.707901 0.064514
C11   C     C_R   0.091959 0.456284 0.190790 0.260116
C12   C     C_R   0.908031 0.543756 0.809181 0.259943
C13   C     C_R   0.143308 0.473171 0.089727 0.125728
C14   C     C_R   0.856656 0.526909 0.910247 0.125754
C15   C     C_R   0.205434 0.569445 0.088899 -0.277036
C16   C     C_R   0.794529 0.430640 0.911105 -0.276892
C17   C     C_R   0.928186 0.526337 0.405997 0.327564
C18   C     C_R   0.071815 0.473642 0.593992 0.327554
C19   C     C_R   0.872150 0.502515 0.502517 -0.195702
C20   C     C_R   0.127851 0.497472 0.497476 -0.195710
C21   C     C_R   0.945490 0.478452 0.598221 -0.144330
C22   C     C_R   0.054512 0.521533 0.401770 -0.144359
C23   C     C_R   0.491784 0.813506 0.534822 -0.171852
C24   C     C_R   0.508216 0.186494 0.465178 -0.171846
C25   C     C_R   0.612273 0.029514 0.395391 0.071155
C26   C     C_R   0.387729 0.970487 0.604612 0.071156
C27   C     C_R   0.594312 0.135562 0.396897 0.266578
C28   C     C_R   0.405690 0.864439 0.603106 0.266585
C29   C     C_R   0.435454 0.132825 0.529645 0.068783
C30   C     C_R   0.564545 0.867175 0.470354 0.068779
C31   C     C_R   0.454808 0.026171 0.534074 0.012909
C32   C     C_R   0.545192 0.973829 0.465927 0.012911
N1    N     N_R   0.523180 0.519350 0.790130 -0.239361
N2    N     N_R   0.476820 0.480650 0.209870 -0.239354
C33   C     C_R   0.433174 0.373327 0.015234 -0.338465
C34   C     C_R   0.566838 0.626669 0.984768 -0.338293
C35   C     C_R   0.430440 0.388053 0.137162 0.561016
C36   C     C_R   0.569560 0.611947 0.862838 0.561022
C37   C     C_R   0.523059 0.559004 0.159682 0.033247
C38   C     C_R   0.476946 0.440995 0.840319 0.033205
C39   C     C_R   0.522376 0.547019 0.036497 -0.026558
C40   C     C_R   0.477632 0.452978 0.963504 -0.026582
H5    H     H_    0.437908 0.369371 0.785129 0.156786
H6    H     H_    0.562098 0.630626 0.214872 0.156780
H7    H     H_    0.396942 0.299985 0.960704 0.188049
H8    H     H_    0.603074 0.700009 0.039299 0.188063
N3    N     N_R   0.622535 0.696892 0.818424 0.142687
O9    O     O_R   0.597649 0.792708 0.861187 -0.317290
O10   O     O_R   0.713473 0.681883 0.754388 -0.336281
N4    N     N_R   0.377454 0.303113 0.181577 0.142669
O11   O     O_R   0.402340 0.207295 0.138823 -0.317286
O12   O     O_R   0.286509 0.318129 0.245604 -0.336316
N5    N     N_3   0.281442 0.747702 0.189208 -0.543276
H9    H     H_    0.313992 0.748165 0.108092 0.245432
H10   H     H_    0.358519 0.754133 0.249267 0.217297
N6    N     N_3   0.718552 0.252357 0.810857 -0.543242
H11   H     H_    0.685987 0.251921 0.891971 0.245437
H12   H     H_    0.641486 0.245901 0.750782 0.217289
N7    N     N_3   0.032342 0.355230 0.188949 -0.469212
H13   H     H_    0.007984 0.346598 0.270718 0.253227
H14   H     H_    0.951764 0.348142 0.133363 0.254891
N8    N     N_3   0.967654 0.644802 0.810988 -0.469278
H15   H     H_    0.991998 0.653416 0.729210 0.253239
H16   H     H_    0.048240 0.651895 0.866558 0.254811
N9    N     N_3   0.135024 0.389849 0.989548 -0.512355
H17   H     H_    0.197155 0.405109 0.931544 0.278297
H18   H     H_    0.047493 0.388036 0.946857 0.245360
N10   N     N_3   0.864898 0.610270 0.010389 -0.512421
H19   H     H_    0.803011 0.594888 0.068556 0.278359
H20   H     H_    0.952550 0.612330 0.052912 0.245317
N11   N     N_R   0.857737 0.558792 0.311963 0.116471
O13   O     O_R   0.856808 0.657667 0.306681 -0.390214
O14   O     O_R   0.807664 0.488906 0.224804 -0.409373
N12   N     N_R   0.142262 0.441180 0.688023 0.116492
O15   O     O_R   0.143183 0.342302 0.693297 -0.390161
O16   O     O_R   0.192316 0.511058 0.775198 -0.409385
N13   N     N_3   0.659023 0.810247 0.412911 -0.530470
H21   H     H_    0.744676 0.847910 0.443029 0.282568
H22   H     H_    0.641013 0.800741 0.322682 0.259097
N14   N     N_3   0.340975 0.189752 0.587087 -0.530462
H23   H     H_    0.255323 0.152087 0.556972 0.282574
H24   H     H_    0.358987 0.199260 0.677317 0.259100
N15   N     N_R   0.329682 0.806706 0.665655 0.125863
O17   O     O_R   0.340218 0.825823 0.778922 -0.302013
O18   O     O_R   0.245414 0.738657 0.609205 -0.413826
N16   N     N_R   0.670322 0.193296 0.334351 0.125862
O19   O     O_R   0.659782 0.174186 0.221084 -0.301993
O20   O     O_R   0.754596 0.261337 0.390804 -0.413805
N17   N     N_3   0.701349 0.980279 0.323612 -0.584536
H25   H     H_    0.673992 0.981642 0.236562 0.283201
H26   H     H_    0.786055 0.021703 0.347374 0.267979
N18   N     N_3   0.298654 0.019723 0.676392 -0.584532
H27   H     H_    0.213948 0.978298 0.652634 0.267980
H28   H     H_    0.326015 0.018363 0.763443 0.283203

loop_
_geom_bond_atom_site_label_1
_geom_bond_atom_site_label_2
_geom_bond_distance
_ccdc_geom_bond_type
C6    N6    1.435095 S    
C39   C40   1.399597 A    
C17   N11   1.434324 S    
C13   C15   1.404910 A    
C5    C15   1.403245 A    
N7    H13   1.042858 S    
N15   O17   1.300584 A    
C25   C27   1.398831 A    
N11   O13   1.300405 A    
O5    C3    1.298534 A    
O1    C1    1.290003 A    
C7    H3    1.083565 S    
C11   N7    1.441432 S    
N8    H16   1.045044 S    
C13   N9    1.434849 S    
C36   N3    1.432174 S    
N18   H27   1.045822 S    
H2    C16   1.082352 S    
C18   N12   1.434329 S    
C23   C28   1.396053 A    
C29   N14   1.437531 S    
O4    Cu1   1.968358 S    
N3    O10   1.297869 A    
C5    C7    1.398562 A    
Cu1   N1    2.015150 S    
N2    C35   1.389197 A    
C8    C10   1.403360 A    
C33   C35   1.411263 A    
C12   N8    1.441438 S    
C17   C19   1.411935 A    
N6    H11   1.045814 S    
C6    C16   1.403247 A    
C20   C22   1.418813 A    
N11   O14   1.300518 A    
C1    C24   1.456713 S    
N7    H14   1.045072 S    
O2    C2    1.290004 A    
N15   O18   1.300299 A    
C30   C32   1.422421 A    
H1    C15   1.082355 S    
C37   C39   1.424760 A    
C26   C31   1.428579 A    
C38   C40   1.424764 A    
C2    C23   1.456713 S    
C10   C21   1.487366 S    
C5    N5    1.435093 S    
C14   N10   1.434873 S    
N5    H9    1.045815 S    
C18   C21   1.395229 A    
N8    H15   1.042830 S    
C24   C27   1.396048 A    
O4    C2    1.293857 A    
C28   N15   1.436083 S    
N13   H21   1.045177 S    
N9    H18   1.043621 S    
Cu2   N2    2.015149 S    
C31   C32   1.437704 A    
N5    H10   1.045748 S    
C18   C20   1.411934 A    
C7    C9    1.403366 A    
O7    Cu2   1.993296 S    
N13   H22   1.044486 S    
O7    C3    1.294432 A    
C34   C36   1.411266 A    
O6    C4    1.298530 A    
N16   O20   1.300299 A    
C27   N16   1.436080 S    
N14   H23   1.045180 S    
N17   H26   1.045821 S    
N14   H24   1.044488 S    
C29   C31   1.422420 A    
O3    Cu2   1.968357 S    
O8    C4    1.294443 A    
C25   C32   1.428579 A    
N12   O16   1.300514 A    
N10   H19   1.042355 S    
N10   H20   1.043672 S    
N1    C38   1.371869 A    
O1    Cu1   1.957147 S    
C8    H4    1.083568 S    
C26   N18   1.434715 S    
O6    Cu2   1.988499 S    
C3    C20   1.471213 S    
C35   N4    1.432172 S    
C10   C12   1.420091 A    
O3    C1    1.293858 A    
O8    Cu1   1.993296 S    
C37   H6    1.079793 S    
C25   N17   1.434712 S    
N1    C36   1.389202 A    
N2    C37   1.371867 A    
C11   C13   1.405368 A    
C33   C40   1.389357 A    
C12   C14   1.405382 A    
C34   C39   1.389352 A    
C33   H7    1.084161 S    
C34   H8    1.084161 S    
N4    O11   1.301429 A    
C23   C30   1.398692 A    
C14   C16   1.404929 A    
C24   C29   1.398690 A    
N18   H28   1.045053 S    
C26   C28   1.398832 A    
N16   O19   1.300583 A    
C19   C21   1.418804 A    
C6    C8    1.398559 A    
C9    C11   1.420102 A    
N3    O9    1.301428 A    
O2    Cu2   1.957148 S    
C30   N13   1.437529 S    
N9    H17   1.042341 S    
O5    Cu1   1.988499 S    
N12   O15   1.300413 A    
C9    C22   1.487394 S    
N17   H25   1.045052 S    
C17   C22   1.395235 A    
N6    H12   1.045748 S    
C4    C19   1.471232 S    
Cu1   Cu2   2.682175 S    
N4    O12   1.297868 A    
C38   H5    1.079793 S    
