data_mof_unit_35763.cif
_audit_creation_date              2013-03-05T15:52:28-0500
_audit_creation_method            fapswitch 2.2
_symmetry_space_group_name_H-M    P1
_symmetry_Int_Tables_number       1
_space_group_crystal_system       triclinic
_cell_length_a                    27.811945
_cell_length_b                    10.852748
_cell_length_c                    9.568503
_cell_angle_alpha                 90.606156
_cell_angle_beta                  90.028162
_cell_angle_gamma                 92.633986
_cell_volume                      2884.90479089

loop_
_atom_site_label
_atom_site_type_symbol
_atom_site_description
_atom_site_fract_x
_atom_site_fract_y
_atom_site_fract_z
_atom_type_partial_charge
O1    O     O_R   0.500000 0.319640 0.618810 -0.586580
O2    O     O_R   0.500000 0.319660 0.381240 -0.578950
C1    C     C_R   0.504098 0.263269 0.499968 0.810519
O3    O     O_R   0.430260 0.500010 0.618770 -0.581536
O4    O     O_R   0.430270 0.500030 0.381200 -0.579284
C2    C     C_R   0.407489 0.499855 0.499942 0.811833
Cu1   Cu    Cu3+1 0.500000 0.499990 0.640660 0.925761
Cu2   Cu    Cu3+1 0.500000 0.500010 0.359340 0.938311
O5    O     O_R   0.500000 0.680340 0.618760 -0.613858
O6    O     O_R   0.500000 0.680360 0.381190 -0.596181
O7    O     O_R   0.569730 0.499970 0.618800 -0.603766
O8    O     O_R   0.569740 0.499990 0.381230 -0.595625
C3    C     C_R   0.497760 0.737814 0.501878 0.784645
C4    C     C_R   0.592506 0.501214 0.500131 0.787131
C5    C     C_R   0.175586 0.401807 0.481545 0.541276
O9    O     O_2   0.197756 0.294382 0.466343 -0.510686
N1    N     N_R   0.202327 0.509325 0.498559 -0.476602
C6    C     C_R   0.181360 0.620067 0.514699 0.563311
C7    C     C_R   0.279118 0.515958 0.625421 -0.094377
C8    C     C_R   0.329205 0.513255 0.625969 -0.209929
C9    C     C_R   0.328813 0.490873 0.373323 -0.207332
C10   C     C_R   0.278722 0.493065 0.373187 -0.096709
C11   C     C_R   0.253788 0.505930 0.499102 0.355309
C12   C     C_R   0.102347 0.515008 0.496934 -0.078443
C13   C     C_R   0.125289 0.402454 0.480588 -0.012191
C14   C     C_R   0.097744 0.292426 0.464737 -0.123689
C15   C     C_R   0.130617 0.626406 0.513370 -0.081869
C16   C     C_R   0.354542 0.501046 0.499790 -0.043732
H1    H     H_    0.347325 0.481150 0.274545 0.157589
H2    H     H_    0.259229 0.485352 0.275261 0.140188
H3    H     H_    0.114626 0.204847 0.454202 0.207219
C17   C     C_R   0.645473 0.504690 0.500704 -0.065978
C18   C     C_R   0.972484 0.405458 0.467101 0.057933
C19   C     C_R   0.976913 0.626918 0.526929 0.023512
C20   C     C_R   0.949344 0.516769 0.497107 0.070409
C21   C     C_R   0.943642 0.299669 0.429182 -0.205140
C22   C     C_R   0.893855 0.301576 0.427694 -0.143319
C23   C     C_R   0.870710 0.408866 0.463424 -0.000619
C24   C     C_R   0.898166 0.517541 0.497630 -0.093268
C25   C     C_R   0.874373 0.626304 0.532409 -0.059800
C26   C     C_R   0.823422 0.621633 0.534037 0.582368
N2    N     N_R   0.797983 0.514600 0.500712 -0.466279
C27   C     C_R   0.820390 0.409633 0.465085 0.566772
C28   C     C_R   0.720956 0.497150 0.628117 0.193994
C29   C     C_R   0.670733 0.493937 0.626952 -0.256501
C30   C     C_R   0.671264 0.519591 0.375371 -0.212481
C31   C     C_R   0.721404 0.523539 0.376383 -0.137281
C32   C     C_R   0.746424 0.512338 0.502235 0.320861
O10   O     O_2   0.793898 0.305959 0.432370 -0.527392
C33   C     C_R   0.023488 0.403453 0.474761 0.048744
C34   C     C_R   0.051139 0.515451 0.496678 0.070702
C35   C     C_R   0.028033 0.627629 0.518196 0.021833
C36   C     C_R   0.047943 0.292556 0.462347 -0.204057
H4    H     H_    0.651587 0.482212 0.724793 0.178821
H5    H     H_    0.873496 0.217831 0.398160 0.178212
H6    H     H_    0.958373 0.213896 0.396822 0.135747
H7    H     H_    0.029678 0.203145 0.453778 0.142620
O11   O     O_2   0.209949 0.722544 0.531869 -0.484849
C37   C     C_R   0.106943 0.738687 0.526229 0.211873
H8    H     H_    0.348037 0.521438 0.724960 0.158810
H9    H     H_    0.259927 0.525821 0.723046 0.141026
C38   C     C_R   0.952379 0.732956 0.566180 -0.265085
C39   C     C_R   0.902209 0.734539 0.566967 0.269371
O12   O     O_2   0.799186 0.722192 0.569274 -0.497176
C40   C     C_R   0.056880 0.737766 0.527862 -0.237226
H10   H     H_    0.971163 0.817145 0.599590 0.143465
H11   H     H_    0.652776 0.528599 0.276618 0.172921
H12   H     H_    0.740947 0.535028 0.279174 0.160025
H13   H     H_    0.041439 0.826814 0.532605 0.155239
H14   H     H_    0.495452 0.108454 0.279377 0.162530
C41   C     C_R   0.536265 0.125809 0.749902 -0.147727
H15   H     H_    0.555278 0.214822 0.745560 0.164098
C42   C     C_R   0.532857 0.069218 0.879645 -0.127803
H16   H     H_    0.547073 0.116372 0.972089 0.142416
C43   C     C_R   0.509350 0.954206 0.890795 -0.140172
H17   H     H_    0.503973 0.913019 0.992512 0.137963
C44   C     C_R   0.493827 0.890459 0.770548 -0.167840
H18   H     H_    0.473812 0.804494 0.787019 0.174659
C45   C     C_R   0.502009 0.940999 0.635820 0.092607
C46   C     C_R   0.516248 0.066975 0.628831 0.093502
C47   C     C_R   0.509030 0.129765 0.501778 -0.115970
C48   C     C_R   0.499823 0.062661 0.378352 -0.200545
H19   H     H_    0.490991 0.886195 0.282180 0.165227
C49   C     C_R   0.495786 0.935419 0.380675 -0.203291
C50   C     C_R   0.496561 0.872733 0.507869 -0.110714
H20   H     H_    0.445424 0.360512 0.127719 0.137911
C51   C     C_R   0.564461 0.663273 0.146038 -0.235536
H21   H     H_    0.567377 0.671802 0.256213 0.214725
C52   C     C_R   0.596072 0.742744 0.074815 -0.234185
H22   H     H_    0.619918 0.805913 0.133360 0.168222
C53   C     C_R   0.596552 0.742800 0.930135 0.269350
C54   C     C_R   0.564377 0.663176 0.857499 -0.233912
H23   H     H_    0.566423 0.670684 0.747482 0.203780
C55   C     C_R   0.531699 0.580257 0.926132 0.162665
C56   C     C_R   0.531715 0.580215 0.075762 0.217743
N3    N     N_R   0.500460 0.501210 0.147910 -0.190794
C57   C     C_R   0.469990 0.423304 0.073025 -0.069764
H24   H     H_    0.445475 0.360488 0.868597 0.146089
C58   C     C_R   0.470013 0.423317 0.924914 -0.061446
N4    N     N_R   0.500480 0.501290 0.852040 -0.194886
I1    I     I_    0.140628 0.919435 0.541320 -0.263738
N5    N     N_2   0.880418 0.846389 0.604278 -0.369819
H25   H     H_    0.896467 0.891055 0.689126 0.249612
C59   C     C_3   0.874527 0.928968 0.488419 -0.589231
H26   H     H_    0.910239 0.962932 0.448748 0.186915
H27   H     H_    0.854219 0.009259 0.523886 0.239721
H28   H     H_    0.853976 0.881321 0.402386 0.247245
N6    N     N_2   0.627891 0.827192 0.856846 -0.429036
H29   H     H_    0.618355 0.841372 0.754202 0.249849
C60   C     C_3   0.678669 0.807169 0.872781 -0.593850
H30   H     H_    0.699976 0.878496 0.814068 0.245062
H31   H     H_    0.687016 0.714794 0.830632 0.238794
H32   H     H_    0.689498 0.814312 0.984420 0.230391
I2    I     I_    0.756799 0.475841 0.821245 -0.361379

loop_
_geom_bond_atom_site_label_1
_geom_bond_atom_site_label_2
_geom_bond_distance
_ccdc_geom_bond_type
C51   H21   1.060026 S    
C26   N2    1.366738 A    
C56   N3    1.382747 A    
C17   C29   1.405735 A    
C20   C24   1.423766 A    
C7    C8    1.394671 A    
Cu2   N3    2.023291 S    
C12   C15   1.418818 A    
C45   C50   1.428664 A    
C59   H27   1.110244 S    
C47   C48   1.398235 A    
Cu1   Cu2   2.691814 S    
C44   H18   1.077305 S    
Cu1   O7    1.950686 S    
C38   C39   1.396232 A    
C25   C39   1.412950 A    
C21   C22   1.385836 A    
C39   N5    1.423692 S    
C23   C24   1.410704 A    
O7    C4    1.300386 A    
C5    C13   1.399246 A    
C5    O9    1.350230 S    
C19   C38   1.412197 A    
C18   C21   1.414039 A    
N6    H29   1.032155 S    
Cu1   O5    1.970681 S    
C19   C20   1.416580 A    
C42   H16   1.082642 S    
H20   C57   1.081750 S    
O5    C3    1.289183 A    
C60   H30   1.110568 S    
C41   C46   1.417998 A    
C6    O11   1.345665 S    
C2    C16   1.473207 S    
H19   C49   1.083539 S    
C51   C56   1.416060 A    
C1    C47   1.461914 S    
C8    H8    1.082976 S    
C12   C34   1.424424 A    
C28   I2    2.119094 S    
C14   H3    1.083082 S    
C9    C10   1.394427 A    
C42   C43   1.387329 A    
C55   C56   1.431740 A    
O3    Cu1   1.950792 S    
C59   H26   1.111816 S    
C57   C58   1.417207 A    
C33   C34   1.421740 A    
C44   C45   1.420671 A    
C33   C36   1.413329 A    
Cu1   N4    2.022524 S    
C38   H10   1.076902 S    
C34   C35   1.415708 A    
C37   I1    2.138087 S    
C31   C32   1.399702 A    
C12   C13   1.411152 A    
O3    C2    1.301154 A    
C24   C25   1.416204 A    
C41   C42   1.392218 A    
C36   H7    1.076731 S    
C27   O10   1.350150 S    
C8    C16   1.406357 A    
C18   C33   1.421540 A    
C9    H1    1.082996 S    
C30   H11   1.083015 S    
O1    C1    1.293119 A    
C7    C11   1.399425 A    
C43   H17   1.082884 S    
C22   C23   1.395616 A    
C21   H6    1.076723 S    
C58   N4    1.366556 A    
N1    C11   1.433390 S    
C55   N4    1.381712 A    
Cu2   O8    1.950787 S    
N3    C57   1.366444 A    
C54   C55   1.415964 A    
N1    C6    1.367096 A    
N2    C32   1.433127 S    
C49   C50   1.401196 A    
N5    C59   1.446848 S    
C43   C44   1.394306 A    
C60   H32   1.110673 S    
C25   C26   1.415725 A    
C9    C16   1.406291 A    
O8    C4    1.301404 A    
C29   H4    1.083032 S    
C48   C49   1.380755 A    
C51   C52   1.387284 A    
C52   C53   1.384447 A    
N2    C27   1.363648 A    
C14   C36   1.385295 A    
C31   H12   1.082988 S    
C53   C54   1.395063 A    
C28   C29   1.395671 A    
C5    N1    1.362826 A    
C30   C31   1.393188 A    
C10   H2    1.082857 S    
O1    Cu1   1.966227 S    
C17   C30   1.404694 A    
C53   N6    1.425170 S    
O2    Cu2   1.970682 S    
C6    C15   1.416140 A    
C4    C17   1.471879 S    
C46   C47   1.418614 A    
O6    C3    1.309451 A    
O4    Cu2   1.950689 S    
C19   C35   1.423907 A    
O2    C1    1.303508 A    
C13   C14   1.395616 A    
C23   C27   1.400004 A    
C15   C37   1.415698 A    
C37   C40   1.392042 A    
O4    C2    1.301141 A    
C7    H9    1.082846 S    
C40   H13   1.075935 S    
C54   H23   1.058071 S    
C18   C20   1.421363 A    
N6    C60   1.446915 S    
N5    H25   1.031877 S    
H14   C48   1.083537 S    
C60   H31   1.111092 S    
C45   C46   1.408073 A    
C22   H5    1.083340 S    
C41   H15   1.080969 S    
Cu2   O6    1.966227 S    
H24   C58   1.081725 S    
C3    C50   1.466665 S    
C10   C11   1.399332 A    
C26   O12   1.348743 S    
C52   H22   1.083225 S    
C59   H28   1.111349 S    
C35   C40   1.410812 A    
C28   C32   1.404995 A    
