data_mof_unit_65630.cif
_audit_creation_date              2012-12-11T14:37:54-0500
_audit_creation_method            fapswitch 2.2
_symmetry_space_group_name_H-M    P1
_symmetry_Int_Tables_number       1
_space_group_crystal_system       triclinic
_cell_length_a                    14.469347
_cell_length_b                    15.782755
_cell_length_c                    6.958059
_cell_angle_alpha                 90.000963
_cell_angle_beta                  80.885971
_cell_angle_gamma                 90.000065
_cell_volume                      1568.92434977

loop_
_atom_site_label
_atom_site_type_symbol
_atom_type_description
_atom_site_fract_x
_atom_site_fract_y
_atom_site_fract_z
_atom_type_partial_charge
O1    O     O_R   0.337080 0.165770 0.524980 -0.531558
O2    O     O_R   0.662920 0.834230 0.475020 -0.526626
O3    O     O_R   0.662920 0.665770 0.475020 -0.526631
O4    O     O_R   0.337080 0.334230 0.524980 -0.531393
O5    O     O_R   0.348340 0.341430 0.191390 -0.540544
O6    O     O_R   0.651660 0.658570 0.808610 -0.539932
O7    O     O_R   0.651660 0.841430 0.808610 -0.539946
O8    O     O_R   0.348340 0.158570 0.191390 -0.540428
O9    O     O_R   0.165780 0.339950 0.082750 -0.536989
O10   O     O_R   0.834220 0.660050 0.917250 -0.540213
O11   O     O_R   0.834220 0.839950 0.917250 -0.540222
O12   O     O_R   0.165780 0.160050 0.082750 -0.537006
C1    C     C_R   0.370302 0.364800 0.356092 0.586951
C2    C     C_R   0.629697 0.635195 0.643901 0.580389
C3    C     C_R   0.629697 0.864805 0.643903 0.580363
C4    C     C_R   0.370304 0.135202 0.356089 0.585966
H1    H     H_    0.315738 0.460799 0.824702 0.153634
H2    H     H_    0.223885 0.669930 0.432820 0.134220
H3    H     H_    0.221602 0.829640 0.435638 0.134197
H4    H     H_    0.316292 0.039163 0.822934 0.153693
O13   O     O_3   0.191540 0.250000 0.407620 -0.362711
O14   O     O_3   0.808460 0.750000 0.592380 -0.363727
V1    V     V_3+5 0.262540 0.250000 0.108780 1.405730
V2    V     V_3+5 0.737460 0.750000 0.891220 1.419624
O15   O     O_R   0.154530 0.164290 0.756910 -0.543697
O16   O     O_R   0.845470 0.835710 0.243090 -0.539291
O17   O     O_R   0.845470 0.664290 0.243090 -0.539293
O18   O     O_R   0.154530 0.335710 0.756910 -0.543732
C5    C     C_R   0.131979 0.133437 0.931909 0.668865
C6    C     C_R   0.868109 0.866476 0.068057 0.674752
C7    C     C_R   0.868125 0.633536 0.068044 0.674723
C8    C     C_R   0.131977 0.366560 0.931911 0.668344
V3    V     V_3+5 0.240320 0.250000 0.616280 1.377569
V4    V     V_3+5 0.759680 0.750000 0.383720 1.405403
O19   O     O_3   0.311330 0.250000 0.867310 -0.372115
O20   O     O_3   0.688670 0.750000 0.132690 -0.366998
C9    C     C_3   0.082708 0.525305 0.044300 -0.126239
C10   C     C_3   0.917587 0.474967 0.955508 -0.144684
C11   C     C_3   0.917608 0.025011 0.955239 -0.144869
C12   C     C_3   0.082640 0.974745 0.044616 -0.125891
C13   C     C_3   0.030967 0.567485 0.890632 -0.125175
C14   C     C_3   0.969302 0.432825 0.109338 -0.142430
C15   C     C_3   0.969221 0.067243 0.109124 -0.142705
C16   C     C_3   0.031002 0.932477 0.890896 -0.124820
H5    H     H_    0.055970 0.623732 0.801565 0.116788
H6    H     H_    0.944128 0.376785 0.199021 0.096337
H7    H     H_    0.943999 0.123326 0.198609 0.096375
H8    H     H_    0.056033 0.876168 0.802077 0.116764
H9    H     H_    0.151400 0.545747 0.079582 0.134549
H10   H     H_    0.848959 0.454521 0.919416 0.094641
H11   H     H_    0.849016 0.045426 0.918907 0.094694
H12   H     H_    0.151293 0.954336 0.080154 0.134751
C17   C     C_3   0.938795 0.562745 0.035178 -0.017146
C18   C     C_3   0.061496 0.437524 0.964716 -0.009952
C19   C     C_3   0.061485 0.062481 0.964724 -0.009899
C20   C     C_3   0.938764 0.937277 0.035211 -0.017324
C21   C     C_3   0.989743 0.521388 0.189286 -0.117023
C22   C     C_3   0.010592 0.478924 0.810596 -0.113429
C23   C     C_3   0.010682 0.020992 0.810552 -0.112972
C24   C     C_3   0.989608 0.978724 0.189375 -0.117166
C25   C     C_2   0.205285 0.603266 0.439806 -0.230639
C26   C     C_2   0.334453 0.527460 0.817067 -0.221777
C27   C     C_2   0.333898 0.972253 0.817136 -0.222237
C28   C     C_2   0.204142 0.896554 0.440725 -0.230723
H13   H     H_    0.981142 0.539280 0.345393 0.113377
H14   H     H_    0.019504 0.461156 0.654393 0.107719
H15   H     H_    0.019691 0.038679 0.654296 0.107822
H16   H     H_    0.980911 0.960910 0.345535 0.113454
C29   C     C_2   0.238301 0.550331 0.561893 -0.120043
C30   C     C_2   0.301708 0.580262 0.694175 -0.151072
C31   C     C_2   0.300496 0.919378 0.695292 -0.150803
C32   C     C_2   0.237845 0.949565 0.561705 -0.119922
H17   H     H_    0.322559 0.646379 0.692862 0.136955
H18   H     H_    0.217234 0.484342 0.563122 0.148167
H19   H     H_    0.217877 0.015807 0.561096 0.148033
H20   H     H_    0.320222 0.853006 0.695854 0.137140

loop_
_geom_bond_atom_site_label_1
_geom_bond_atom_site_label_2
_ccdc_geom_bond_type
C11   H11   S    
C12   C24   S    
C19   C23   S    
O12   C5    A    
O1    V3    S    
O12   V1    S    
V2    O20   S    
C13   C22   S    
C10   C14   S    
C31   H20   S    
O13   V3    S    
C16   C23   S    
O7    V2    S    
O11   V2    S    
O8    V1    S    
C26   C30   D    
C14   H6    S    
O4    C1    A    
O9    C8    A    
C23   H15   S    
C10   C22   S    
O10   C7    A    
C22   H14   S    
O11   C6    A    
O5    C1    A    
O2    V4    S    
O7    C3    A    
C11   C23   S    
O8    C4    A    
C32   H19   S    
C14   C21   S    
C8    C18   S    
O16   V4    S    
O17   V4    S    
O15   C5    A    
O14   V4    S    
O17   C7    A    
O18   C8    A    
C17   C21   S    
O9    V1    S    
C11   C15   S    
C5    C19   S    
O3    V4    S    
O10   V2    S    
C12   H12   S    
C6    C20   S    
C20   C24   S    
H1    C26   S    
O6    C2    A    
C9    H9    S    
C16   C20   S    
C11   C20   S    
O5    V1    S    
H3    C28   S    
C12   C19   S    
O6    V2    S    
C30   H17   S    
C29   H18   S    
O1    C4    A    
C7    C17   S    
O2    C3    A    
C13   C17   S    
O3    C2    A    
C15   C24   S    
C9    C18   S    
C15   C19   S    
C27   C31   D    
O18   V3    S    
O16   C6    A    
V1    O19   S    
O13   V1    S    
O14   V2    S    
C18   C22   S    
C25   C29   D    
O4    V3    S    
C21   H13   S    
H2    C25   S    
C10   H10   S    
H4    C27   S    
C31   C32   S    
C14   C18   S    
C10   C17   S    
V3    O19   S    
V4    O20   S    
C28   C32   D    
C9    C13   S    
C29   C30   S    
C12   C16   S    
C24   H16   S    
C13   H5    S    
C15   H7    S    
C9    C21   S    
C16   H8    S    
O15   V3    S    
