data_mof_unit_51121.cif
_audit_creation_date              2012-12-10T18:14:22-0500
_audit_creation_method            fapswitch 2.2
_symmetry_space_group_name_H-M    P1
_symmetry_Int_Tables_number       1
_space_group_crystal_system       triclinic
_cell_length_a                    12.618858
_cell_length_b                    12.958226
_cell_length_c                    19.211657
_cell_angle_alpha                 91.615338
_cell_angle_beta                  103.572511
_cell_angle_gamma                 80.928705
_cell_volume                      3015.40269521

loop_
_atom_site_label
_atom_site_type_symbol
_atom_type_description
_atom_site_fract_x
_atom_site_fract_y
_atom_site_fract_z
_atom_type_partial_charge
C1    C     C_R   0.437639 0.692323 0.492919 0.901411
C2    C     C_R   0.501723 0.506673 0.711097 -0.128578
C3    C     C_R   0.470864 0.527127 0.066580 0.355624
C4    C     C_R   0.478420 0.529366 0.928000 0.386759
C5    C     C_R   0.385581 0.494244 0.166895 0.417450
C6    C     C_R   0.394691 0.485785 0.240031 -0.186648
C7    C     C_R   0.491225 0.504375 0.288953 -0.097560
C8    C     C_R   0.579236 0.531281 0.264182 -0.141357
C9    C     C_R   0.570529 0.540180 0.191322 -0.168714
C10   C     C_R   0.474338 0.521402 0.142397 -0.026775
C11   C     C_R   0.678018 0.075182 0.626215 -0.145319
C12   C     C_R   0.502087 0.499532 0.634733 0.940477
C13   C     C_R   0.604619 0.197741 0.527683 -0.162358
C14   C     C_R   0.305003 0.839583 0.429953 -0.183073
C15   C     C_R   0.279829 0.945371 0.411900 0.455392
C16   C     C_R   0.351131 0.013347 0.445218 -0.179028
C17   C     C_R   0.445349 0.976542 0.499659 0.076998
C18   C     C_R   0.453474 0.876686 0.529163 -0.066515
C19   C     C_R   0.529068 0.037292 0.527492 0.010247
C20   C     C_R   0.599618 0.011161 0.595946 0.022331
C21   C     C_R   0.589340 0.922944 0.633576 0.345876
C22   C     C_R   0.517587 0.853933 0.599895 -0.235577
C23   C     C_R   0.562710 0.307876 0.509790 0.914987
C24   C     C_R   0.544748 0.123508 0.489518 -0.103104
C25   C     C_R   0.679646 0.169630 0.593884 -0.107564
C26   C     C_R   0.394787 0.804106 0.486706 -0.156031
C27   C     C_R   0.097384 0.329708 0.410759 -0.192780
C28   C     C_R   0.801944 0.622268 0.590847 0.024356
C29   C     C_R   0.911504 0.633786 0.620293 -0.125689
C30   C     C_R   0.993051 0.578955 0.589288 -0.120925
C31   C     C_R   0.965221 0.518800 0.527149 0.009501
C32   C     C_R   0.855477 0.499949 0.505850 0.156686
C33   C     C_R   0.043571 0.469867 0.489360 -0.120724
C34   C     C_R   0.498015 0.500018 0.365557 0.913752
C35   C     C_R   0.016726 0.385889 0.442416 0.016418
C36   C     C_R   0.909324 0.361303 0.427271 0.362710
C37   C     C_R   0.829518 0.420700 0.456735 -0.192976
C38   C     C_R   0.146127 0.503269 0.493515 0.474880
C39   C     C_R   0.201057 0.359006 0.423668 -0.063286
C40   C     C_R   0.398645 0.520007 0.728601 -0.187433
C41   C     C_R   0.389220 0.531024 0.798954 -0.043248
C42   C     C_R   0.486194 0.527274 0.853780 -0.131673
C43   C     C_R   0.591265 0.515038 0.837610 -0.108738
C44   C     C_R   0.599090 0.504344 0.765857 0.403776
H1    H     H_    0.323594 0.524877 0.686700 0.227491
H2    H     H_    0.736691 0.054150 0.676493 0.225173
H3    H     H_    0.256908 0.784975 0.398454 0.200983
H4    H     H_    0.331886 0.094605 0.428703 0.145450
H5    H     H_    0.264682 0.314551 0.400995 0.179186
H6    H     H_    0.081698 0.263323 0.376616 0.237585
H7    H     H_    0.736601 0.661808 0.614027 0.206959
H8    H     H_    0.078041 0.578398 0.616926 0.234788
H9    H     H_    0.748700 0.399915 0.442620 0.236057
H10   H     H_    0.325524 0.465886 0.258411 0.199831
H11   H     H_    0.654535 0.546126 0.300935 0.182491
H12   H     H_    0.639786 0.560210 0.173077 0.185163
N1    N     N_R   0.518979 0.603791 0.972719 -0.116072
N2    N     N_R   0.515575 0.602431 0.041199 -0.139468
N3    N     N_R   0.430545 0.452746 0.021701 -0.069961
N4    N     N_R   0.434100 0.453915 0.953306 -0.102965
N5    N     N_R   0.222200 0.444680 0.463280 -0.128043
N6    N     N_R   0.776960 0.554780 0.536340 -0.129743
O1    O     O_R   0.366740 0.627160 0.482470 -0.545748
O2    O     O_R   0.544830 0.662520 0.505920 -0.620037
O3    O     O_R   0.410920 0.482320 0.590130 -0.604770
O4    O     O_R   0.589010 0.517690 0.613590 -0.561437
O5    O     O_R   0.455170 0.337480 0.494080 -0.608239
O6    O     O_R   0.633260 0.372840 0.517530 -0.599769
O7    O     O_R   0.410990 0.482310 0.386410 -0.605128
O8    O     O_R   0.589080 0.517680 0.409870 -0.645037
Zn1   Zn    Zn3+2 0.381090 0.476390 0.484340 1.024538
Zn2   Zn    Zn3+2 0.618910 0.523610 0.515660 1.003666
Cl1   Cl    Cl    0.659550 0.903732 0.725050 -0.451689
C45   C     C_2   0.517417 0.127697 0.409382 0.927427
O9    O     O_2   0.497249 0.211296 0.377272 -0.622456
O10   O     O_R   0.519986 0.034590 0.370685 -0.761063
H13   H     H_    0.501028 0.046967 0.317007 0.373212
Cl2   Cl    Cl    0.164937 0.991196 0.343024 -0.509449
C46   C     C_2   0.498033 0.767771 0.642824 0.981726
O11   O     O_2   0.576198 0.713042 0.681166 -0.512451
O12   O     O_R   0.391300 0.749638 0.641886 -0.760061
H14   H     H_    0.331455 0.804417 0.613882 0.340030
Cl3   Cl    Cl    0.868719 0.259268 0.369245 -0.518523
C47   C     C_2   0.276233 0.548395 0.812525 0.995804
O13   O     O_2   0.256446 0.601248 0.863046 -0.565055
O14   O     O_R   0.191343 0.505998 0.765972 -0.790412
H15   H     H_    0.118323 0.522981 0.780466 0.375624
Cl4   Cl    Cl    0.171815 0.628505 0.524213 -0.574056
C48   C     C_2   0.941419 0.699563 0.684120 0.971184
O15   O     O_2   0.871942 0.735551 0.716852 -0.514326
O16   O     O_R   0.049442 0.720713 0.707099 -0.765682
H16   H     H_    0.059770 0.765881 0.751402 0.378706
C49   C     C_2   0.693307 0.508872 0.895866 1.016568
O17   O     O_2   0.761634 0.565387 0.894053 -0.496180
O18   O     O_R   0.710694 0.438812 0.952951 -0.777241
H17   H     H_    0.782537 0.442399 0.989394 0.371321
Cl5   Cl    Cl    0.731740 0.480977 0.746761 -0.469704
Cl6   Cl    Cl    0.259685 0.475671 0.108529 -0.491546
C50   C     C_2   0.760301 0.236256 0.631443 0.981788
O19   O     O_2   0.776345 0.246221 0.696395 -0.558970
O20   O     O_R   0.823046 0.282117 0.593542 -0.759662
H18   H     H_    0.875774 0.324865 0.625284 0.358234

loop_
_geom_bond_atom_site_label_1
_geom_bond_atom_site_label_2
_ccdc_geom_bond_type
O20   H18   S    
C41   C42   A    
O18   H17   S    
C18   C26   A    
C2    C12   S    
C16   H4    S    
C29   C48   S    
O12   H14   S    
C7    C8    A    
C49   O17   D    
C45   O10   S    
C36   C37   A    
C47   O14   S    
C22   C46   S    
C30   C31   A    
C28   H7    S    
C15   Cl2   S    
C11   C25   A    
C36   Cl3   S    
C15   C16   A    
C21   Cl1   S    
C13   C23   S    
C23   O5    A    
O7    Zn1   S    
C17   C19   A    
C25   C50   S    
O4    Zn2   S    
C31   C32   A    
C27   C39   A    
C8    C9    A    
C4    N1    A    
C31   C33   A    
C48   O16   S    
C9    C10   A    
C34   O8    A    
C27   H6    S    
C38   N5    A    
C37   H9    S    
N5    Zn1   S    
N3    N4    A    
C49   O18   S    
C21   C22   A    
C13   C25   A    
C6    H10   S    
C1    O1    A    
C8    H11   S    
C40   H1    S    
C39   N5    A    
C11   C20   A    
C45   O9    D    
C47   O13   D    
C2    C44   A    
O16   H16   S    
C46   O12   S    
O14   H15   S    
C16   C17   A    
C27   C35   A    
O3    Zn1   S    
C41   C47   S    
C12   O4    A    
C14   C26   A    
C13   C24   A    
C38   Cl4   S    
C35   C36   A    
C23   O6    A    
C43   C44   A    
C29   C30   A    
C44   Cl5   S    
C50   O19   D    
O6    Zn2   S    
C4    N4    A    
C17   C18   A    
N6    Zn2   S    
C9    H12   S    
C32   C37   A    
O10   H13   S    
C34   O7    A    
C6    C7    A    
C40   C41   A    
C50   O20   S    
O1    Zn1   S    
C1    C26   S    
C7    C34   S    
C42   C43   A    
C1    O2    A    
C30   H8    S    
C28   C29   A    
C39   H5    S    
C20   C21   A    
C18   C22   A    
C14   H3    S    
C12   O3    A    
C33   C38   A    
C43   C49   S    
C19   C20   A    
C19   C24   A    
C32   N6    A    
C5    C10   A    
C3    C10   S    
C24   C45   S    
N1    N2    A    
C5    C6    A    
C4    C42   S    
C33   C35   A    
O5    Zn1   S    
O2    Zn2   S    
C46   O11   D    
C3    N2    A    
C2    C40   A    
C5    Cl6   S    
C14   C15   A    
C11   H2    S    
O8    Zn2   S    
C48   O15   D    
C28   N6    A    
C3    N3    A    
