data_mof_unit_18092.cif
_audit_creation_date              2012-12-11T19:09:31-0500
_audit_creation_method            fapswitch 2.2
_symmetry_space_group_name_H-M    P1
_symmetry_Int_Tables_number       1
_space_group_crystal_system       triclinic
_cell_length_a                    8.195313
_cell_length_b                    15.056003
_cell_length_c                    26.986188
_cell_angle_alpha                 98.565735
_cell_angle_beta                  92.791014
_cell_angle_gamma                 81.19533
_cell_volume                      3252.70430223

loop_
_atom_site_label
_atom_site_type_symbol
_atom_type_description
_atom_site_fract_x
_atom_site_fract_y
_atom_site_fract_z
_atom_type_partial_charge
Ba1   Ba    Ba6+2 0.860050 0.456430 0.522540 1.657967
Ba2   Ba    Ba6+2 0.329780 0.543490 0.477450 1.649460
C1    C     C_3   0.695407 0.135014 0.649472 -0.368397
C2    C     C_3   0.687581 0.226464 0.631299 0.344971
C3    C     C_3   0.483613 0.686086 0.631942 0.299882
C4    C     C_3   0.454471 0.721633 0.687074 -0.370548
C5    C     C_3   0.033536 0.735992 0.344489 0.335183
C6    C     C_3   0.044658 0.759798 0.292071 -0.304415
C7    C     C_3   0.489226 0.786357 0.368222 0.350030
C8    C     C_3   0.436688 0.878643 0.351220 -0.349962
C9    C     C_R   0.027150 0.433570 0.176940 0.620475
C10   C     C_R   0.900183 0.588410 0.179441 0.569790
C11   C     C_2   0.751679 0.556978 0.273070 -0.071552
C12   C     C_3   0.191653 0.255914 0.654982 0.288965
C13   C     C_3   0.731018 0.587192 0.328479 -0.052311
C14   C     C_1   0.983120 0.483124 0.342316 0.042140
C15   C     C_2   0.025459 0.479495 0.294639 -0.056767
C16   C     C_2   0.901683 0.515665 0.256246 0.199120
C17   C     C_R   0.023978 0.507720 0.101778 -0.078843
C18   C     C_R   0.069904 0.430842 0.126216 -0.050548
C19   C     C_R   0.156545 0.352448 0.099259 -0.041103
C20   C     C_R   0.937916 0.586673 0.128732 -0.022742
C21   C     C_2   0.841454 0.527819 0.360131 -0.308087
C22   C     C_2   0.355739 0.479807 0.640776 -0.285180
C23   C     C_3   0.159230 0.238769 0.707421 -0.342087
C24   C     C_R   0.200558 0.426217 0.973206 0.020150
C25   C     C_R   0.046594 0.580596 0.974360 0.020716
C26   C     C_R   0.143518 0.502723 0.948424 0.051070
C27   C     C_R   0.301898 0.351962 0.946113 -0.097800
C28   C     C_R   0.342676 0.352143 0.896540 -0.059398
C29   C     C_R   0.284255 0.426147 0.871326 -0.031136
C30   C     C_R   0.184048 0.501494 0.897155 -0.077687
C31   C     C_R   0.124994 0.575859 0.871789 -0.034082
C32   C     C_R   0.166523 0.574080 0.821263 0.590640
C33   C     C_R   0.324545 0.426233 0.820820 0.578640
C34   C     C_3   0.218280 0.265289 0.413125 0.328471
C35   C     C_2   0.464485 0.482231 0.728943 -0.073249
C36   C     C_3   0.505668 0.487219 0.675178 -0.052430
C37   C     C_1   0.210095 0.519046 0.657346 0.038675
C38   C     C_2   0.171530 0.519455 0.704742 -0.104057
C39   C     C_2   0.305037 0.498868 0.743642 0.199909
C40   C     C_R   0.155748 0.426632 0.023969 0.018180
C41   C     C_R   0.064014 0.505847 0.050396 0.052405
C42   C     C_R   0.011962 0.583408 0.026055 0.019564
C43   C     C_R   0.198815 0.350298 0.049529 -0.094323
C44   C     C_R   0.892022 0.663365 0.104693 -0.053361
C45   C     C_3   0.241609 0.162681 0.398173 -0.342008
C46   C     C_R   0.986720 0.653195 0.947315 -0.098443
C47   C     C_R   0.025327 0.650794 0.897416 -0.060119
C48   C     C_R   0.927850 0.661931 0.054724 -0.100212
C49   C     C_R   0.350606 0.175660 0.533887 -0.008752
C50   C     C_R   0.576245 0.209346 0.488870 0.063569
C51   C     C_R   0.755959 0.770567 0.483388 -0.293353
C52   C     C_R   0.846249 0.829522 0.465726 0.016327
C53   C     C_R   0.787829 0.922649 0.471392 -0.144584
C54   C     C_R   0.637934 0.958455 0.496356 0.010445
C55   C     C_R   0.554099 0.897374 0.517526 -0.015101
C56   C     C_3   0.977560 0.734597 0.585958 0.307403
C57   C     C_R   0.570709 0.052804 0.502372 0.006198
C58   C     C_R   0.421199 0.083338 0.528941 -0.018541
C59   C     C_R   0.345169 0.021377 0.549965 -0.105691
C60   C     C_R   0.411311 0.930864 0.545013 -0.048987
C61   C     C_R   0.644163 0.117682 0.481780 -0.126653
C62   C     C_R   0.432656 0.238095 0.515618 -0.290955
C63   C     C_R   0.615850 0.803783 0.511162 0.025376
C64   C     C_3   0.953860 0.837232 0.600818 -0.385101
C65   C     C_3   0.691901 0.340784 0.370659 0.296978
C66   C     C_3   0.653337 0.325746 0.314341 0.352959
H1    H     H_    0.799144 0.224530 0.609210 0.108656
H2    H     H_    0.329679 0.142464 0.367070 0.143561
H3    H     H_    0.290901 0.128039 0.430358 0.045377
H4    H     H_    0.121223 0.140366 0.385760 0.150610
H5    H     H_    0.858192 0.712741 0.573522 0.004530
H6    H     H_    0.064989 0.716263 0.554785 0.074051
H7    H     H_    0.859897 0.857863 0.630260 0.134534
H8    H     H_    0.912054 0.871859 0.568047 0.062668
H9    H     H_    0.072599 0.859225 0.615417 0.118005
H10   H     H_    0.822987 0.348861 0.377468 0.000870
H11   H     H_    0.612508 0.404227 0.386469 -0.006315
H12   H     H_    0.700013 0.080303 0.616817 0.075189
H13   H     H_    0.661828 0.388641 0.298424 -0.060205
H14   H     H_    0.525108 0.310296 0.307688 0.051410
H15   H     H_    0.575555 0.237201 0.607074 -0.037824
H16   H     H_    0.584396 0.134232 0.671327 0.124994
H17   H     H_    0.365960 0.667162 0.614602 0.029704
H18   H     H_    0.580512 0.625456 0.628737 0.035104
H19   H     H_    0.364188 0.785145 0.690719 0.137983
H20   H     H_    0.403853 0.671035 0.705452 0.076829
H21   H     H_    0.572474 0.735820 0.706387 0.126208
H22   H     H_    0.807868 0.121891 0.673507 0.135343
H23   H     H_    0.211150 0.289122 0.735479 0.130266
H24   H     H_    0.121503 0.673062 0.347789 0.090066
H25   H     H_    0.905827 0.723836 0.349565 -0.053734
H26   H     H_    0.157126 0.790971 0.288826 0.149500
H27   H     H_    0.052067 0.697060 0.264548 0.114884
H28   H     H_    0.934460 0.808268 0.283275 0.129381
H29   H     H_    0.626481 0.773039 0.368644 -0.060151
H30   H     H_    0.445355 0.789749 0.406875 0.078281
H31   H     H_    0.493785 0.931176 0.376606 0.074960
H32   H     H_    0.300481 0.897236 0.352235 0.150773
H33   H     H_    0.138963 0.327344 0.651799 0.075900
H34   H     H_    0.477730 0.877128 0.312447 0.133758
H35   H     H_    0.150462 0.451669 0.283478 0.128763
H36   H     H_    0.192829 0.291786 0.116657 0.139820
H37   H     H_    0.564622 0.471427 0.756243 0.105821
H38   H     H_    0.420984 0.293323 0.877890 0.123426
H39   H     H_    0.354619 0.292571 0.962358 0.073294
H40   H     H_    0.263578 0.286660 0.031936 0.075974
H41   H     H_    0.654722 0.581042 0.247351 0.121742
H42   H     H_    0.827308 0.725669 0.124569 0.130156
H43   H     H_    0.906802 0.713035 0.963298 0.072298
H44   H     H_    0.327073 0.245918 0.649824 -0.011568
H45   H     H_    0.976035 0.708604 0.878851 0.123620
H46   H     H_    0.043600 0.535006 0.715670 0.128439
H47   H     H_    0.889940 0.724757 0.040047 0.075027
H48   H     H_    0.817837 0.537258 0.399928 0.082512
H49   H     H_    0.367491 0.443049 0.602997 0.073428
H50   H     H_    0.379481 0.309032 0.519658 0.069203
H51   H     H_    0.233365 0.041700 0.570888 0.109155
H52   H     H_    0.752322 0.099258 0.459250 0.093026
H53   H     H_    0.802527 0.698666 0.479073 0.064274
H54   H     H_    0.864054 0.964902 0.457184 0.085638
H55   H     H_    0.024157 0.245692 0.712882 0.145998
H56   H     H_    0.345871 0.887682 0.562739 0.102849
H57   H     H_    0.217794 0.169357 0.713124 0.118918
H58   H     H_    0.339166 0.286988 0.423725 -0.017523
H59   H     H_    0.134899 0.283369 0.445412 0.059683
N1    N     N_R   0.943503 0.512125 0.203462 -0.428201
N2    N     N_R   0.264532 0.499476 0.795983 -0.424475
O1    O     O_2   0.906490 0.548660 0.619040 -0.466664
O2    O     O_3   0.660098 0.265696 0.391704 -0.603351
O3    O     O_3   0.116513 0.194968 0.620033 -0.611499
O4    O     O_2   0.283210 0.451320 0.380930 -0.473230
O5    O     O_3   0.051220 0.451340 0.441130 -0.504666
O6    O     O_3   0.503420 0.617610 0.414270 -0.475069
O7    O     O_3   0.151636 0.305859 0.371940 -0.577537
O8    O     O_3   0.617160 0.609950 0.527080 -0.474925
O9    O     O_3   0.088220 0.664410 0.439630 -0.495843
O10   O     O_2   0.186476 0.824736 0.471957 -0.485596
O11   O     O_3   0.074063 0.807974 0.379821 -0.599616
O12   O     O_3   0.138490 0.548590 0.558860 -0.494035
O13   O     O_3   0.572560 0.389970 0.472910 -0.492456
O14   O     O_2   0.345680 0.723560 0.528460 -0.471225
O15   O     O_3   0.536093 0.754412 0.609430 -0.645639
O16   O     O_2   0.403124 0.544277 0.323708 -0.505584
O17   O     O_3   0.419980 0.719132 0.335502 -0.593968
O18   O     O_2   0.062615 0.365433 0.197090 -0.529191
O19   O     O_2   0.412445 0.360651 0.798925 -0.599441
O20   O     O_2   0.829509 0.658841 0.202305 -0.616835
O21   O     O_2   0.117371 0.639839 0.800063 -0.598021
O22   O     O_3   0.686290 0.382320 0.585720 -0.490401
O23   O     O_2   0.849876 0.426797 0.670595 -0.496565
O24   O     O_3   0.037812 0.694145 0.627827 -0.626668
O25   O     O_3   0.680071 0.295572 0.672624 -0.591492
O26   O     O_2   0.844020 0.276410 0.471510 -0.462436
O27   O     O_3   0.101490 0.335510 0.560360 -0.487185
O28   O     O_2   0.009729 0.175268 0.527019 -0.487673
P1    P     P_3+3 0.071960 0.575810 0.612130 0.994939
P2    P     P_3+3 0.664360 0.290070 0.457280 1.004459
P3    P     P_3+3 0.144758 0.218791 0.559821 0.927357
P4    P     P_3+3 0.117760 0.424110 0.387870 1.019111
P5    P     P_3+3 0.049311 0.782238 0.439809 0.948081
P6    P     P_3+3 0.680979 0.399965 0.651199 0.971288
P7    P     P_3+3 0.532053 0.723685 0.544333 0.938000
P8    P     P_3+3 0.513696 0.613130 0.349575 0.946492
S1    S     S_3+6 0.793181 0.235096 0.282213 -0.031747
O29   O     O_2   0.961235 0.263316 0.282270 -0.265039
O30   O     O_2   0.731509 0.214205 0.229032 -0.252941
O31   O     O_3   0.805127 0.141889 0.310451 -0.503420
H60   H     H_    0.894907 0.098146 0.293405 0.356684

loop_
_geom_bond_atom_site_label_1
_geom_bond_atom_site_label_2
_ccdc_geom_bond_type
C25   C46   A    
C2    O25   S    
C53   C54   A    
C38   C39   S    
C7    H30   S    
C59   H51   S    
O31   H60   S    
C7    O17   S    
C47   H45   S    
C17   C18   A    
C6    H28   S    
O13   P2    S    
C60   H56   S    
C32   O21   D    
C4    H20   S    
C55   C60   A    
C12   O3    S    
C51   C52   A    
C12   H44   S    
C26   C30   A    
C24   C40   A    
C22   H49   S    
Ba2   O5    S    
C13   P8    S    
C11   C16   D    
C1    H22   S    
C66   H13   S    
Ba1   P1    S    
C35   C36   S    
C48   H47   S    
C28   C29   A    
C5    H24   S    
O11   P5    S    
C10   C20   A    
C49   P3    S    
C22   C37   D    
C62   H50   S    
C54   C55   A    
C63   P7    S    
C34   C45   S    
Ba1   Ba2   S    
O24   P1    S    
Ba1   O26   S    
C23   H57   S    
C11   H41   S    
Ba1   O13   S    
C16   N1    S    
C21   H48   S    
C19   H36   S    
C25   C42   A    
C56   C64   S    
Ba1   O12   S    
C38   H46   S    
C32   N2    Am   
C14   C15   D    
C22   C36   S    
C51   C63   A    
C7    C8    S    
C33   N2    Am   
C43   H40   S    
C3    H17   S    
C50   P2    S    
C13   C21   S    
C53   H54   S    
C57   C58   A    
C28   H38   S    
S1    O30   D    
Ba2   O14   S    
C59   C60   A    
C6    H27   S    
C1    H12   S    
C34   O7    S    
Ba2   P4    S    
C2    H1    S    
C17   C41   A    
C31   C32   A    
C19   C43   A    
O7    P4    S    
C5    H25   S    
C65   O2    S    
C9    C18   A    
C23   H23   S    
Ba2   O4    S    
O26   P2    D    
C65   C66   S    
Ba2   O9    S    
O25   P6    S    
O27   P3    S    
C17   C20   A    
C65   H11   S    
Ba1   O1    S    
C50   C62   A    
C37   C38   D    
C3    O15   S    
O16   P8    D    
C4    H19   S    
C58   C59   A    
C40   C43   A    
Ba1   O27   S    
O2    P2    S    
C41   C42   A    
C45   H2    S    
C35   H37   S    
C27   C28   A    
C56   O24   S    
O12   P1    S    
C29   C30   A    
Ba1   P2    S    
C64   H8    S    
C15   C16   S    
O6    P8    S    
C6    H26   S    
O9    P5    S    
O3    P3    S    
C52   P5    S    
C8    H32   S    
C23   H55   S    
C45   H3    S    
S1    O31   S    
C3    H18   S    
C36   P6    S    
C20   C44   A    
O17   P8    S    
O28   P3    D    
O22   P6    S    
C11   C13   S    
C37   P1    S    
S1    O29   D    
Ba2   O13   S    
C29   C33   A    
C34   H59   S    
C40   C41   A    
C1    C2    S    
O14   P7    D    
C1    H16   S    
Ba1   O8    S    
C56   H6    S    
C42   C48   A    
C64   H9    S    
C52   C53   A    
C46   C47   A    
C7    H29   S    
Ba2   O8    S    
C24   C26   A    
C10   O20   D    
O10   P5    D    
C34   H58   S    
C49   C62   A    
C55   C63   A    
C12   H33   S    
C50   C61   A    
O4    P4    D    
O8    P7    S    
C54   C57   A    
C10   N1    Am   
C14   P4    S    
C14   C21   D    
C4    H21   S    
C44   C48   A    
C57   C61   A    
Ba2   O6    S    
O5    P4    S    
C65   H10   S    
O1    P1    D    
C66   H14   S    
C30   C31   A    
C44   H42   S    
C9    N1    Am   
C15   H35   S    
C51   H53   S    
C39   N2    S    
C61   H52   S    
C9    O18   D    
C3    C4    S    
C2    H15   S    
C64   H7    S    
C8    H34   S    
Ba1   O22   S    
C33   O19   D    
C12   C23   S    
C35   C39   D    
C8    H31   S    
C45   H4    S    
O23   P6    D    
C5    C6    S    
C5    O11   S    
C46   H43   S    
C18   C19   A    
C24   C27   A    
C25   C26   A    
Ba2   O12   S    
C27   H39   S    
C49   C58   A    
C31   C47   A    
O15   P7    S    
Ba1   O5    S    
C56   H5    S    
C66   S1    S    
