data_mof_unit_39396.cif
_audit_creation_date              2012-12-10T18:46:18-0500
_audit_creation_method            fapswitch 2.2
_symmetry_space_group_name_H-M    P1
_symmetry_Int_Tables_number       1
_space_group_crystal_system       triclinic
_cell_length_a                    9.825625
_cell_length_b                    10.747077
_cell_length_c                    13.066749
_cell_angle_alpha                 90.521562
_cell_angle_beta                  69.53285
_cell_angle_gamma                 90.719018
_cell_volume                      1292.5847776

loop_
_atom_site_label
_atom_site_type_symbol
_atom_type_description
_atom_site_fract_x
_atom_site_fract_y
_atom_site_fract_z
_atom_type_partial_charge
C1    C     C_R   0.504500 0.739463 0.490590 0.913240
C2    C     C_R   0.360633 0.518873 0.825668 -0.159723
C3    C     C_R   0.620423 0.936669 0.498598 -0.239710
C4    C     C_R   0.417920 0.505994 0.705442 0.919762
C5    C     C_R   0.616903 0.063668 0.504437 -0.296168
C6    C     C_R   0.500366 0.126220 0.491838 -0.165600
C7    C     C_R   0.389993 0.061530 0.467105 0.504815
C8    C     C_R   0.403701 0.934322 0.446054 -0.008460
C9    C     C_R   0.510862 0.871366 0.475255 -0.139357
C10   C     C_R   0.957297 0.422026 0.432350 -0.222991
C11   C     C_R   0.104117 0.421026 0.431127 0.617172
C12   C     C_R   0.434867 0.520553 0.984193 0.030079
C13   C     C_R   0.042012 0.578695 0.566742 -0.247330
C14   C     C_R   0.898545 0.578868 0.566421 -0.085271
C15   C     C_R   0.499075 0.259359 0.499588 0.892467
C16   C     C_R   0.581382 0.500822 0.295013 0.880178
C17   C     C_R   0.773687 0.640912 0.019021 -0.309363
C18   C     C_R   0.633890 0.520266 0.177418 -0.175568
C19   C     C_R   0.219526 0.475162 0.891071 0.078005
C20   C     C_R   0.190414 0.453664 0.002026 -0.143071
C21   C     C_R   0.297788 0.470845 0.046920 -0.211924
C22   C     C_3   0.845909 0.753268 0.201729 -0.294493
C23   C     C_R   0.456493 0.561787 0.877874 -0.054454
C24   C     C_3   0.152692 0.105003 0.558002 -0.329068
C25   C     C_3   0.306136 0.871965 0.390732 -0.385317
C26   C     C_3   0.394893 0.816366 0.279157 -0.345841
C27   C     C_3   0.295874 0.754877 0.225368 -0.835771
C28   C     C_3   0.163983 0.256248 0.302685 -0.321372
C29   C     C_3   0.093891 0.457398 0.850354 -0.389952
C30   C     C_3   0.083746 0.323366 0.812998 -0.338665
C31   C     C_3   0.949430 0.304752 0.781047 -0.882127
C32   C     C_3   0.472357 0.820959 0.783675 -0.371856
C33   C     C_R   0.547410 0.538129 0.026663 0.071823
C34   C     C_R   0.668233 0.615304 0.971710 0.032381
C35   C     C_R   0.677298 0.671518 0.873770 -0.329652
C36   C     C_R   0.569740 0.649275 0.828686 0.530041
C37   C     C_R   0.540381 0.483014 0.124306 -0.309717
C38   C     C_R   0.754491 0.597402 0.124260 0.515220
H1    H     H_    0.702597 0.112286 0.523319 0.184301
H2    H     H_    0.706310 0.889680 0.516645 0.192622
H3    H     H_    0.914405 0.771406 0.252213 0.191659
H4    H     H_    0.732950 0.780214 0.251542 0.138819
H5    H     H_    0.888519 0.812533 0.127837 0.148060
H6    H     H_    0.063922 0.168043 0.558635 0.194602
H7    H     H_    0.181849 0.127180 0.631106 0.154544
H8    H     H_    0.110092 0.008064 0.563750 0.139510
H9    H     H_    0.212892 0.821322 0.220161 0.241709
H10   H     H_    0.361461 0.725367 0.141281 0.257074
H11   H     H_    0.240696 0.671909 0.272677 0.273282
H12   H     H_    0.921244 0.362476 0.379713 0.143490
H13   H     H_    0.459230 0.891528 0.225099 0.211431
H14   H     H_    0.471601 0.746123 0.287695 0.219128
H15   H     H_    0.231643 0.802206 0.444387 0.221029
H16   H     H_    0.232161 0.940167 0.374754 0.224020
H17   H     H_    0.257413 0.197731 0.255406 0.208613
H18   H     H_    0.080653 0.193573 0.358794 0.171142
H19   H     H_    0.122580 0.300153 0.242909 0.125538
H20   H     H_    0.849802 0.332648 0.849263 0.268110
H21   H     H_    0.959425 0.360782 0.707793 0.270268
H22   H     H_    0.938020 0.205111 0.762281 0.231462
H23   H     H_    0.072602 0.641811 0.620131 0.148803
H24   H     H_    0.182576 0.300594 0.742299 0.229947
H25   H     H_    0.076428 0.258456 0.880547 0.208814
H26   H     H_    0.991106 0.478670 0.918080 0.204837
H27   H     H_    0.098019 0.525446 0.786137 0.216103
H28   H     H_    0.505834 0.879519 0.841719 0.168025
H29   H     H_    0.358852 0.786582 0.823504 0.161549
H30   H     H_    0.473409 0.881308 0.715234 0.199741
H31   H     H_    0.820899 0.642686 0.619061 0.189179
H32   H     H_    0.764596 0.736690 0.834137 0.154328
H33   H     H_    0.867482 0.698411 0.976390 0.146237
H34   H     H_    0.456882 0.415447 0.164445 0.194556
H35   H     H_    0.267118 0.453871 0.133153 0.163134
H36   H     H_    0.084101 0.421151 0.054216 0.158472
N1    N     N_R   0.142790 0.500030 0.500030 -0.109392
N2    N     N_R   0.857180 0.499940 0.500010 -0.087424
O1    O     O_R   0.385370 0.683250 0.500010 -0.636511
O2    O     O_3   0.271270 0.123546 0.459952 -0.580623
O3    O     O_3   0.213330 0.346577 0.361111 -0.554441
O4    O     O_3   0.569521 0.721931 0.741937 -0.611153
O5    O     O_R   0.614700 0.683220 0.500010 -0.589599
O6    O     O_R   0.328400 0.499990 0.653620 -0.635360
O7    O     O_R   0.557730 0.499960 0.653620 -0.576715
O8    O     O_R   0.385300 0.316780 0.499990 -0.526917
O9    O     O_R   0.614630 0.316750 0.499990 -0.641901
O10   O     O_R   0.442270 0.500040 0.346380 -0.574924
O11   O     O_R   0.671600 0.500010 0.346380 -0.576036
O12   O     O_3   0.854859 0.625817 0.173700 -0.602275
Zn1   Zn    Zn3+2 0.346870 0.500020 0.500000 0.980885
Zn2   Zn    Zn3+2 0.653130 0.499980 0.500000 0.975886

loop_
_geom_bond_atom_site_label_1
_geom_bond_atom_site_label_2
_ccdc_geom_bond_type
C27   H10   S    
C1    O1    A    
C35   C36   A    
C28   H18   S    
C7    C8    A    
C28   H19   S    
C12   C23   A    
O1    Zn1   S    
C26   C27   S    
O6    Zn1   S    
C5    C6    A    
C24   H7    S    
C31   H20   S    
C18   C37   A    
C25   H15   S    
C30   C31   S    
C22   H3    S    
C1    O5    A    
C21   H35   S    
C34   C35   A    
C31   H21   S    
C28   O3    S    
C6    C15   S    
C10   N2    A    
C13   N1    A    
C35   H32   S    
C8    C9    A    
C16   O11   A    
C22   O12   S    
C32   H30   S    
C29   H26   S    
C30   H25   S    
C16   O10   A    
C8    C25   S    
C13   H23   S    
C28   H17   S    
C1    C9    S    
C25   H16   S    
C36   O4    S    
C25   C26   S    
C12   C21   A    
C33   C37   A    
C38   O12   S    
C14   N2    A    
C31   H22   S    
C2    C4    S    
C29   C30   S    
C3    C9    A    
C26   H14   S    
C32   O4    S    
C22   H5    S    
C33   C34   A    
C20   H36   S    
C6    C7    A    
C11   O3    S    
C32   H29   S    
C29   H27   S    
O5    Zn2   S    
C24   O2    S    
C3    H2    S    
C17   H33   S    
C30   H24   S    
C24   H6    S    
C14   H31   S    
O11   Zn2   S    
C17   C34   A    
C19   C29   S    
C32   H28   S    
C27   H9    S    
O7    Zn2   S    
C2    C19   A    
C3    C5    A    
O10   Zn1   S    
O9    Zn2   S    
C15   O8    A    
C15   O9    A    
C24   H8    S    
C19   C20   A    
C5    H1    S    
C18   C38   A    
C11   N1    A    
C26   H13   S    
C22   H4    S    
C4    O7    A    
C17   C38   A    
C10   C11   A    
N1    Zn1   S    
C7    O2    S    
C4    O6    A    
C20   C21   A    
C16   C18   S    
C23   C36   A    
O8    Zn1   S    
C37   H34   S    
C2    C23   A    
C12   C33   A    
C13   C14   A    
C27   H11   S    
N2    Zn2   S    
C10   H12   S    
