data_mof_unit_55078.cif
_audit_creation_date              2012-10-26T17:12:28-0400
_audit_creation_method            fapswitch 2.2
_symmetry_space_group_name_H-M    P1
_symmetry_Int_Tables_number       1
_space_group_crystal_system       triclinic
_cell_length_a                    16.817607
_cell_length_b                    16.87292
_cell_length_c                    16.855333
_cell_angle_alpha                 67.691374
_cell_angle_beta                  67.558521
_cell_angle_gamma                 67.505514
_cell_volume                      3928.63942364

loop_
_atom_site_label
_atom_site_type_symbol
_atom_type_description
_atom_site_fract_x
_atom_site_fract_y
_atom_site_fract_z
_atom_type_partial_charge
C1    C     C_R   0.017191 0.830418 0.568432 0.525150
C2    C     C_R   0.026779 0.565058 0.828659 0.533430
C3    C     C_R   0.171912 0.971661 0.435247 0.540789
C4    C     C_R   0.831764 0.013439 0.569388 0.531830
C5    C     C_R   0.492229 0.943222 0.744917 -0.078316
C6    C     C_R   0.551755 0.920519 0.293498 -0.072263
C7    C     C_R   0.979274 0.726021 0.481412 -0.069303
C8    C     C_R   0.945167 0.292656 0.542930 -0.066543
C9    C     C_R   0.701476 0.454371 0.076162 -0.068230
C10   C     C_R   0.297459 0.541725 0.936152 -0.068941
C11   C     C_R   0.293464 0.925292 0.548768 -0.068590
C12   C     C_R   0.973546 0.171220 0.434806 0.544219
C13   C     C_R   0.749319 0.931639 0.499415 -0.074039
C14   C     C_R   0.490318 0.263321 0.062300 -0.067023
C15   C     C_R   0.507278 0.729565 0.948970 -0.063273
C16   C     C_R   0.044627 0.505239 0.266108 -0.066851
C17   C     C_R   0.063707 0.454430 0.706456 -0.069891
C18   C     C_R   0.566974 0.947013 0.565987 -0.090210
C19   C     C_R   0.471385 0.929331 0.469705 -0.088359
C20   C     C_R   0.018286 0.541972 0.546563 -0.096073
C21   C     C_R   0.003025 0.445399 0.451335 -0.093368
C22   C     C_R   0.547082 0.543810 0.017063 -0.088800
C23   C     C_R   0.828385 0.564067 0.029766 0.541669
C24   C     C_R   0.449694 0.449481 0.999231 -0.088590
C25   C     C_R   0.612803 0.929898 0.481783 0.037606
C26   C     C_R   0.429909 0.932677 0.559713 0.030785
C27   C     C_R   0.020595 0.451147 0.585939 0.038417
C28   C     C_R   0.018659 0.529738 0.407391 0.039437
C29   C     C_R   0.476049 0.590716 0.976424 0.029390
C30   C     C_R   0.520923 0.401784 0.040001 0.034792
C31   C     C_R   0.563693 0.926018 0.430859 0.034535
C32   C     C_R   0.479826 0.936784 0.609019 0.030698
C33   C     C_R   0.423474 0.543943 0.972850 0.030598
C34   C     C_R   0.171619 0.435205 0.971980 0.523212
C35   C     C_R   0.573261 0.449092 0.044438 0.033786
C36   C     C_R   0.997441 0.408262 0.543218 0.038719
C37   C     C_R   0.009665 0.583098 0.459096 0.033598
C38   C     C_R   0.449960 0.923028 0.702013 0.461679
C39   C     C_R   0.601406 0.924254 0.340755 0.440200
C40   C     C_R   0.984322 0.676284 0.429653 0.456689
C41   C     C_R   0.962756 0.334253 0.589317 0.441955
C42   C     C_R   0.654580 0.406061 0.069054 0.439569
C43   C     C_R   0.342563 0.588216 0.947954 0.447151
C44   C     C_R   0.338365 0.935998 0.595617 0.442796
C45   C     C_R   0.568998 0.014625 0.831309 0.537899
C46   C     C_R   0.707086 0.910034 0.456836 0.447618
C47   C     C_R   0.531555 0.309232 0.080779 0.445490
C48   C     C_R   0.466417 0.682210 0.932646 0.454615
C49   C     C_R   0.046579 0.555533 0.313787 0.444921
C50   C     C_R   0.049992 0.406683 0.663364 0.443291
C51   C     C_R   0.568899 0.974491 0.698934 -0.042897
C52   C     C_R   0.458309 0.934758 0.326227 -0.037953
C53   C     C_R   0.007849 0.685656 0.560091 -0.041895
C54   C     C_R   0.967667 0.318666 0.448711 -0.036670
C55   C     C_R   0.675876 0.547956 0.050465 -0.038678
C56   C     C_R   0.435600 0.971220 0.171777 0.531877
C57   C     C_R   0.322721 0.448297 0.960194 -0.041555
C58   C     C_R   0.327133 0.936142 0.456375 -0.040284
C59   C     C_R   0.700797 0.970010 0.571244 -0.037176
C60   C     C_R   0.429546 0.308375 0.010475 -0.041703
C61   C     C_R   0.567855 0.686665 0.000523 -0.040492
C62   C     C_R   0.007299 0.432451 0.309611 -0.038800
C63   C     C_R   0.041311 0.548631 0.678748 -0.036369
C64   C     C_R   0.609728 0.003860 0.739606 -0.015847
C65   C     C_R   0.402900 0.951683 0.271291 -0.016352
C66   C     C_R   0.018491 0.734771 0.606661 -0.017691
C67   C     C_R   0.430414 0.168640 0.985177 0.544368
C68   C     C_R   0.966119 0.268023 0.398376 -0.018340
C69   C     C_R   0.729891 0.599226 0.044142 -0.019478
C70   C     C_R   0.269606 0.398731 0.961637 -0.020718
C71   C     C_R   0.271875 0.952196 0.401894 -0.017941
C72   C     C_R   0.740428 0.001726 0.610789 -0.014448
C73   C     C_R   0.389729 0.262938 0.986767 -0.018182
C74   C     C_R   0.608854 0.734522 0.019583 -0.018958
C75   C     C_R   0.987444 0.390293 0.263205 -0.016511
C76   C     C_R   0.036779 0.600664 0.731060 -0.018626
C77   C     C_R   0.692893 0.020259 0.692882 -0.145383
C78   C     C_R   0.569076 0.830448 0.016979 0.525936
C79   C     C_R   0.311452 0.958751 0.310852 -0.140368
C80   C     C_R   0.030377 0.691570 0.692126 -0.144898
C81   C     C_R   0.970294 0.307233 0.307877 -0.143832
C82   C     C_R   0.691356 0.690103 0.038296 -0.141600
C83   C     C_R   0.308146 0.308316 0.966199 -0.141809
C84   C     C_R   0.611334 0.966558 0.611026 -0.003148
C85   C     C_R   0.418913 0.933426 0.417257 -0.000312
C86   C     C_R   0.023259 0.592128 0.594972 -0.001507
C87   C     C_R   0.992256 0.398867 0.403207 -0.001181
C88   C     C_R   0.595979 0.592531 0.024592 -0.001868
C89   C     C_R   0.984814 0.430752 0.168851 0.536484
C90   C     C_R   0.401309 0.402227 0.988815 -0.001961
Cu1   Cu    Cu3+1 0.995180 0.995180 0.424630 1.034310
Cu2   Cu    Cu3+1 0.004820 0.004820 0.575370 1.042769
Cu3   Cu    Cu3+1 0.995180 0.424630 0.995180 1.036082
Cu4   Cu    Cu3+1 0.004820 0.575370 0.004820 1.042937
Cu5   Cu    Cu3+1 0.424630 0.995180 0.995180 1.031127
Cu6   Cu    Cu3+1 0.575370 0.004820 0.004820 1.035583
F1    F     F_    0.387891 0.878390 0.754931 -0.481728
F2    F     F_    0.428855 0.723895 0.864040 -0.512025
F3    F     F_    0.084452 0.623955 0.268100 -0.553106
F4    F     F_    0.074981 0.316283 0.692482 -0.547841
F5    F     F_    0.683496 0.935897 0.292464 -0.525431
F6    F     F_    0.953246 0.720181 0.356467 -0.511900
F7    F     F_    0.935914 0.307803 0.679846 -0.552315
F8    F     F_    0.697167 0.318508 0.075369 -0.538122
F9    F     F_    0.299318 0.675219 0.944973 -0.522792
F10   F     F_    0.286499 0.960486 0.671403 -0.530748
F11   F     F_    0.760519 0.857393 0.401679 -0.522356
F12   F     F_    0.571240 0.263923 0.147870 -0.544394
H1    H     H_    0.465293 0.926730 0.815707 0.176557
H2    H     H_    0.498090 0.798673 0.912890 0.149118
H3    H     H_    0.076080 0.523073 0.195348 0.179201
H4    H     H_    0.094659 0.415609 0.759999 0.172219
H5    H     H_    0.722825 0.044330 0.722678 0.162462
H6    H     H_    0.269326 0.973519 0.269043 0.165197
H7    H     H_    0.031811 0.730049 0.730182 0.166227
H8    H     H_    0.962946 0.271234 0.270989 0.166404
H9    H     H_    0.728416 0.727790 0.042751 0.167517
H10   H     H_    0.272157 0.271883 0.958124 0.166049
H11   H     H_    0.590068 0.906873 0.230251 0.185077
H12   H     H_    0.948054 0.795813 0.459194 0.178143
H13   H     H_    0.910449 0.242168 0.582754 0.173525
H14   H     H_    0.758711 0.416248 0.102058 0.175065
H15   H     H_    0.242307 0.581383 0.907519 0.178307
H16   H     H_    0.230699 0.911085 0.588164 0.185665
H17   H     H_    0.821161 0.910207 0.479272 0.161773
H18   H     H_    0.500481 0.192975 0.096159 0.173334
O1    O     O_R   0.124540 0.978640 0.385460 -0.498395
O2    O     O_R   0.124540 0.385460 0.978640 -0.509362
O3    O     O_R   0.021360 0.875460 0.614540 -0.509444
O4    O     O_R   0.978640 0.124540 0.385460 -0.498109
O5    O     O_R   0.013780 0.867370 0.487190 -0.529025
O6    O     O_R   0.986220 0.132630 0.512810 -0.507421
O7    O     O_R   0.867370 0.487190 0.013780 -0.506030
O8    O     O_R   0.132630 0.512810 0.986220 -0.521606
O9    O     O_R   0.487190 0.013780 0.867370 -0.522540
O10   O     O_R   0.512810 0.986220 0.132630 -0.522836
O11   O     O_R   0.512810 0.132630 0.986220 -0.503513
O12   O     O_R   0.875460 0.021360 0.614540 -0.508706
O13   O     O_R   0.487190 0.867370 0.013780 -0.515433
O14   O     O_R   0.986220 0.512810 0.132630 -0.510425
O15   O     O_R   0.013780 0.487190 0.867370 -0.510123
O16   O     O_R   0.132630 0.986220 0.512810 -0.509225
O17   O     O_R   0.867370 0.013780 0.487190 -0.517292
O18   O     O_R   0.978640 0.385460 0.124540 -0.508802
O19   O     O_R   0.021360 0.614540 0.875460 -0.505346
O20   O     O_R   0.385460 0.124540 0.978640 -0.500277
O21   O     O_R   0.614540 0.875460 0.021360 -0.510794
O22   O     O_R   0.614540 0.021360 0.875460 -0.499172
O23   O     O_R   0.385460 0.978640 0.124540 -0.501571
O24   O     O_R   0.875460 0.614540 0.021360 -0.497533

loop_
_geom_bond_atom_site_label_1
_geom_bond_atom_site_label_2
_ccdc_geom_bond_type
C25   C31   A    
C21   C87   A    
C26   C32   A    
Cu3   Cu4   S    
C65   C79   A    
C22   C29   A    
C45   O22   A    
Cu4   O14   S    
C64   C77   A    
C23   C69   S    
Cu5   Cu6   S    
C3    O16   A    
Cu2   O12   S    
C78   O13   A    
C4    O17   A    
C71   C79   A    
Cu3   O15   S    
Cu6   O10   S    
Cu1   O4    S    
C2    O19   A    
C22   C35   A    
C12   C68   S    
C9    C42   A    
Cu1   O1    S    
C30   C35   A    
C68   C81   A    
C83   H10   S    
C52   C85   A    
Cu2   O6    S    
C37   C40   A    
C1    O3    A    
C54   C87   A    
C3    O1    A    
C8    H13   S    
Cu1   O5    S    
C63   C76   A    
C34   O8    A    
C56   C65   S    
C29   C33   A    
C60   C73   A    
C43   F9    S    
C55   C88   A    
C35   C42   A    
C19   C26   A    
C69   C82   A    
C14   C47   A    
C11   H16   S    
C20   C86   A    
C18   C84   A    
C7    C40   A    
C53   C86   A    
C9    C55   A    
C32   C38   A    
C57   C70   A    
C11   C58   A    
Cu2   O16   S    
C34   C70   S    
C27   C50   A    
C59   C72   A    
C13   H17   S    
Cu4   O19   S    
C19   C31   A    
C5    C38   A    
C15   H2    S    
C9    H14   S    
C36   C41   A    
C18   C25   A    
C16   C62   A    
C15   C48   A    
C74   C82   A    
C38   F1    S    
C77   H5    S    
C56   O10   A    
C24   C33   A    
C39   F5    S    
Cu1   O17   S    
Cu6   O22   S    
C45   O9    A    
C57   C90   A    
C23   O7    A    
C29   C48   A    
C26   C44   A    
C33   C43   A    
C30   C47   A    
C10   C57   A    
C16   C49   A    
C10   H15   S    
C60   C90   A    
C8    C54   A    
Cu1   Cu2   S    
C21   C36   A    
C75   C81   A    
C1    O5    A    
C4    O12   A    
C41   F7    S    
C42   F8    S    
C3    C71   S    
C72   C77   A    
C70   C83   A    
C61   C88   A    
C49   F3    S    
C28   C49   A    
C80   H7    S    
C89   O14   A    
C46   F11   S    
C67   O20   A    
Cu5   O9    S    
C1    C66   S    
C15   C61   A    
C11   C44   A    
C8    C41   A    
C53   C66   A    
C55   C69   A    
Cu3   O18   S    
C12   O4    A    
C78   O21   A    
C67   C73   S    
C21   C28   A    
C23   O24   A    
C22   C88   A    
C63   C86   A    
C61   C74   A    
C62   C75   A    
C18   C32   A    
C7    C53   A    
C17   H4    S    
C58   C85   A    
C6    H11   S    
C4    C72   S    
C2    C76   S    
C14   C60   A    
Cu6   O21   S    
C12   O6    A    
C10   C43   A    
Cu5   O13   S    
C7    H12   S    
Cu6   O11   S    
C51   C64   A    
C76   C80   A    
C19   C85   A    
C24   C90   A    
C17   C50   A    
Cu5   O23   S    
C13   C59   A    
C20   C27   A    
C44   F10   S    
C27   C36   A    
Cu4   O24   S    
C89   O18   A    
C66   C80   A    
C62   C87   A    
C45   C64   S    
Cu3   O7    S    
C59   C84   A    
C14   H18   S    
Cu2   O3    S    
Cu3   O2    S    
C17   C63   A    
C20   C37   A    
C13   C46   A    
C5    H1    S    
C28   C37   A    
C51   C84   A    
C81   H8    S    
Cu4   O8    S    
C31   C39   A    
C48   F2    S    
C58   C71   A    
C24   C30   A    
C50   F4    S    
C75   C89   S    
C40   F6    S    
C54   C68   A    
C34   O2    A    
C47   F12   S    
C74   C78   S    
C79   H6    S    
C2    O15   A    
Cu5   O20   S    
C6    C39   A    
C5    C51   A    
C82   H9    S    
C6    C52   A    
C56   O23   A    
C67   O11   A    
C25   C46   A    
C73   C83   A    
C52   C65   A    
C16   H3    S    
