data_mof_unit_25108.cif
_audit_creation_date              2012-12-10T16:58:30-0500
_audit_creation_method            fapswitch 2.2
_symmetry_space_group_name_H-M    P1
_symmetry_Int_Tables_number       1
_space_group_crystal_system       triclinic
_cell_length_a                    7.764369
_cell_length_b                    8.627492
_cell_length_c                    23.507549
_cell_angle_alpha                 91.757009
_cell_angle_beta                  85.315285
_cell_angle_gamma                 93.978204
_cell_volume                      1565.16383567

loop_
_atom_site_label
_atom_site_type_symbol
_atom_type_description
_atom_site_fract_x
_atom_site_fract_y
_atom_site_fract_z
_atom_type_partial_charge
C1    C     C_R   0.545609 0.794407 0.498550 0.841616
C2    C     C_R   0.349268 0.442969 0.298531 -0.120441
C3    C     C_R   0.640057 0.560350 0.761100 0.679269
C4    C     C_R   0.359952 0.440173 0.238876 0.679229
C5    C     C_R   0.484735 0.516262 0.792611 0.035758
C6    C     C_R   0.515303 0.484266 0.207384 0.035828
C7    C     C_2   0.569855 0.957012 0.497886 0.303576
C8    C     C_2   0.430145 0.042988 0.502115 0.303578
C9    C     C_R   0.501598 0.501282 0.610695 0.922475
C10   C     C_R   0.498404 0.498742 0.389304 0.922504
C11   C     C_R   0.483451 0.352477 0.116562 0.713956
C12   C     C_R   0.454392 0.205593 0.501450 0.841687
C13   C     C_R   0.516677 0.648057 0.883429 0.713963
C14   C     C_R   0.542428 0.628162 0.120572 0.626855
C15   C     C_R   0.457718 0.372368 0.879419 0.626828
C16   C     C_R   0.545292 0.635166 0.061178 -0.226266
C17   C     C_R   0.454885 0.365361 0.938811 -0.226273
C18   C     C_R   0.503668 0.497681 0.029741 -0.170520
C19   C     C_R   0.496514 0.502845 0.970247 -0.170523
C20   C     C_R   0.468670 0.355149 0.057693 -0.236204
C21   C     C_R   0.531504 0.645379 0.942296 -0.236225
C22   C     C_R   0.588547 0.775026 0.032543 0.646107
C23   C     C_R   0.335492 0.469159 0.764836 -0.023716
C24   C     C_R   0.411647 0.225498 0.967444 0.646102
C25   C     C_R   0.581882 0.780060 0.973703 0.639803
C26   C     C_R   0.418310 0.220464 0.026284 0.639804
C27   C     C_3   0.162665 0.430700 0.797081 -0.556357
C28   C     C_3   0.837381 0.569788 0.202948 -0.556296
C29   C     C_3   0.818528 0.615022 0.669431 -0.521749
C30   C     C_3   0.181413 0.385356 0.330513 -0.521817
C31   C     C_R   0.664541 0.531268 0.235176 -0.023775
C32   C     C_R   0.346721 0.458760 0.705448 0.598479
C33   C     C_R   0.653305 0.541485 0.294565 0.598381
C34   C     C_R   0.502273 0.503984 0.673202 -0.282145
C35   C     C_R   0.497743 0.496197 0.326795 -0.282127
C36   C     C_R   0.650723 0.557393 0.701444 -0.120519
F1    F     F_    0.643185 0.906531 0.060899 -0.529182
F2    F     F_    0.262764 0.982061 0.506950 -0.560610
F3    F     F_    0.022710 0.335957 0.458694 -0.527631
F4    F     F_    0.977301 0.664060 0.541296 -0.527684
F5    F     F_    0.357018 0.093989 0.939089 -0.529173
F6    F     F_    0.631004 0.916083 0.947608 -0.537023
F7    F     F_    0.369196 0.084438 0.052378 -0.537018
F8    F     F_    0.204128 0.403637 0.679242 -0.635945
F9    F     F_    0.795908 0.596491 0.320790 -0.636010
F10   F     F_    0.780926 0.606681 0.789478 -0.658473
F11   F     F_    0.219102 0.393919 0.210476 -0.658528
F12   F     F_    0.737236 0.017939 0.493052 -0.560612
H1    H     H_    0.127357 0.304187 0.792866 0.271971
H2    H     H_    0.206381 0.292525 0.359864 0.249440
H3    H     H_    0.121934 0.483108 0.354772 0.275708
H4    H     H_    0.084644 0.334792 0.301764 0.266607
H5    H     H_    0.161085 0.464401 0.843001 0.211232
H6    H     H_    0.062722 0.495106 0.778785 0.284896
H7    H     H_    0.839003 0.536144 0.157021 0.211259
H8    H     H_    0.872659 0.696301 0.207189 0.271940
H9    H     H_    0.937324 0.505372 0.221239 0.284901
H10   H     H_    0.793400 0.707631 0.640007 0.249433
H11   H     H_    0.915233 0.665899 0.698152 0.266596
H12   H     H_    0.878139 0.517202 0.645242 0.275732
N1    N     N_R   0.516533 0.487954 0.146611 -0.350681
N2    N     N_R   0.483574 0.512580 0.853382 -0.350693
N3    N     N_2   0.950330 0.457950 0.484560 0.271279
N4    N     N_2   0.049670 0.542050 0.515440 0.271262
O1    O     O_R   0.389250 0.738570 0.503790 -0.572666
O2    O     O_2   0.534897 0.784276 0.856110 -0.383428
O3    O     O_2   0.563914 0.759912 0.152417 -0.424749
O4    O     O_2   0.436235 0.240617 0.847575 -0.424741
O5    O     O_R   0.610750 0.261430 0.496210 -0.572665
O6    O     O_R   0.678390 0.711620 0.493890 -0.529741
O7    O     O_R   0.321610 0.288380 0.506110 -0.529724
O8    O     O_R   0.355400 0.513520 0.588790 -0.558646
O9    O     O_R   0.644600 0.486480 0.411210 -0.558616
O10   O     O_R   0.644550 0.486570 0.578900 -0.625275
O11   O     O_R   0.355450 0.513430 0.421100 -0.625262
O12   O     O_2   0.465194 0.216265 0.143883 -0.383486
Zn1   Zn    Zn3+2 0.306930 0.518000 0.506610 1.192582
Zn2   Zn    Zn3+2 0.693070 0.482000 0.493390 1.192581

loop_
_geom_bond_atom_site_label_1
_geom_bond_atom_site_label_2
_ccdc_geom_bond_type
C2    C35   A    
C12   O5    A    
O6    Zn2   S    
C33   F9    S    
N4    Zn1   S    
C9    O8    A    
C30   H3    S    
C28   H8    S    
C27   H6    S    
C7    C8    D    
C28   H9    S    
C29   C36   S    
C6    N1    S    
C19   C21   A    
C24   C26   A    
C11   O12   S    
C10   O9    A    
C14   O3    S    
C18   C19   A    
C21   C25   A    
C33   C35   A    
C13   N2    A    
C29   H11   S    
C22   C25   A    
C1    O1    A    
O9    Zn2   S    
C31   C33   A    
C10   C35   S    
C23   C27   S    
C18   C20   A    
C6    C31   A    
C30   H2    S    
C24   F5    S    
O5    Zn2   S    
C8    F2    S    
C28   H7    S    
C26   F7    S    
C13   O2    S    
C11   C20   A    
C17   C24   A    
O1    Zn1   S    
C4    C6    A    
C3    C5    A    
C14   N1    A    
C32   C34   A    
C2    C4    A    
O8    Zn1   S    
C10   O11   A    
C5    C23   A    
C29   H12   S    
C8    C12   S    
C32   F8    S    
C13   C21   A    
O11   Zn1   S    
C12   O7    A    
C9    C34   S    
C14   C16   A    
C9    O10   A    
O7    Zn1   S    
C15   C17   A    
C30   H4    S    
C16   C22   A    
C1    C7    S    
C28   C31   S    
C11   N1    A    
C25   F6    S    
C27   H5    S    
F3    N3    S    
C3    F10   S    
C1    O6    A    
F4    N4    S    
C2    C30   S    
C23   C32   A    
C7    F12   S    
C22   F1    S    
C20   C26   A    
C3    C36   A    
C15   O4    S    
C17   C19   A    
C15   N2    A    
C5    N2    S    
C34   C36   A    
N3    N4    D    
C29   H10   S    
C16   C18   A    
O10   Zn2   S    
N3    Zn2   S    
C27   H1    S    
C4    F11   S    
