data_mof_unit_51608.cif
_audit_creation_date              2013-03-05T15:39:56-0500
_audit_creation_method            fapswitch 2.2
_symmetry_space_group_name_H-M    P1
_symmetry_Int_Tables_number       1
_space_group_crystal_system       triclinic
_cell_length_a                    27.942517
_cell_length_b                    18.701779
_cell_length_c                    16.817304
_cell_angle_alpha                 90.06118
_cell_angle_beta                  62.84364
_cell_angle_gamma                 90.158457
_cell_volume                      7819.4842565

loop_
_atom_site_label
_atom_site_type_symbol
_atom_site_description
_atom_site_fract_x
_atom_site_fract_y
_atom_site_fract_z
_atom_type_partial_charge
O1    O     O_R   0.255040 0.869590 0.478480 -0.588282
O2    O     O_R   0.744960 0.130410 0.521520 -0.587305
O3    O     O_R   0.744960 0.869590 0.521520 -0.585820
O4    O     O_R   0.255040 0.130410 0.478480 -0.588590
O5    O     O_R   0.755040 0.369590 0.478480 -0.585745
O6    O     O_R   0.244960 0.630410 0.521520 -0.581690
O7    O     O_R   0.244960 0.369590 0.521520 -0.581516
O8    O     O_R   0.755040 0.630410 0.478480 -0.589006
O9    O     O_R   0.182050 0.796550 0.624440 -0.590438
O10   O     O_R   0.817950 0.203450 0.375560 -0.550480
O11   O     O_R   0.817950 0.796550 0.375560 -0.562875
O12   O     O_R   0.182050 0.203450 0.624440 -0.590786
O13   O     O_R   0.682050 0.296550 0.624440 -0.561951
O14   O     O_R   0.317950 0.703450 0.375560 -0.565133
O15   O     O_R   0.317950 0.296550 0.375560 -0.566488
O16   O     O_R   0.682050 0.703450 0.624440 -0.591973
Cu1   Cu    Cu3+1 0.209920 0.785290 0.495070 1.088972
Cu2   Cu    Cu3+1 0.790080 0.214710 0.504930 1.088903
Cu3   Cu    Cu3+1 0.790080 0.785290 0.504930 1.092042
Cu4   Cu    Cu3+1 0.209920 0.214710 0.495070 1.089935
Cu5   Cu    Cu3+1 0.709920 0.285290 0.495070 1.088780
Cu6   Cu    Cu3+1 0.290080 0.714710 0.504930 1.094034
Cu7   Cu    Cu3+1 0.290080 0.285290 0.504930 1.097894
Cu8   Cu    Cu3+1 0.709920 0.714710 0.495070 1.081582
C1    C     C_R   0.296550 0.731912 0.328719 0.894720
C2    C     C_R   0.704178 0.269471 0.671106 0.840575
C3    C     C_R   0.704344 0.730269 0.671149 0.815017
C4    C     C_R   0.296588 0.267986 0.328681 0.885961
C5    C     C_R   0.795712 0.230324 0.328940 0.861262
C6    C     C_R   0.204411 0.769874 0.671097 0.813481
C7    C     C_R   0.204376 0.230212 0.671131 0.813305
C8    C     C_R   0.796592 0.767958 0.328694 0.913386
O17   O     O_R   0.250530 0.763330 0.367210 -0.517524
O18   O     O_R   0.749470 0.236670 0.632790 -0.568575
O19   O     O_R   0.749470 0.763330 0.632790 -0.559628
O20   O     O_R   0.250530 0.236670 0.367210 -0.516471
O21   O     O_R   0.750530 0.263330 0.367210 -0.571228
O22   O     O_R   0.249470 0.736670 0.632790 -0.558143
O23   O     O_R   0.249470 0.263330 0.632790 -0.558789
O24   O     O_R   0.750530 0.736670 0.367210 -0.526083
O25   O     O_R   0.177260 0.690030 0.513710 -0.569008
O26   O     O_R   0.822740 0.309970 0.486290 -0.562444
O27   O     O_R   0.822740 0.690030 0.486290 -0.562497
O28   O     O_R   0.177260 0.309970 0.513710 -0.568155
O29   O     O_R   0.677260 0.190030 0.513710 -0.558873
O30   O     O_R   0.322740 0.809970 0.486290 -0.559416
O31   O     O_R   0.322740 0.190030 0.486290 -0.559321
O32   O     O_R   0.677260 0.809970 0.513710 -0.569633
C9    C     C_R   0.200911 0.631120 0.512050 0.813779
C10   C     C_R   0.803551 0.368198 0.471026 0.819821
C11   C     C_R   0.803560 0.631779 0.471011 0.813557
C12   C     C_R   0.200949 0.368889 0.511933 0.815144
C13   C     C_R   0.696497 0.131632 0.527510 0.826602
C14   C     C_R   0.303838 0.868221 0.470667 0.810882
C15   C     C_R   0.303471 0.131743 0.472020 0.805701
C16   C     C_R   0.700723 0.869236 0.513741 0.838225
C17   C     C_R   0.063595 0.499881 0.451507 0.024511
C18   C     C_R   0.967948 0.500067 0.432155 0.025466
C19   C     C_R   0.554491 0.000383 0.486004 0.033593
C20   C     C_R   0.462732 0.000108 0.455669 0.030225
C21   C     C_R   0.041891 0.565438 0.440721 0.025225
C22   C     C_R   0.993614 0.434451 0.430383 0.022970
C23   C     C_R   0.993738 0.565624 0.430870 0.023024
C24   C     C_R   0.041601 0.434411 0.440759 0.025521
C25   C     C_R   0.523785 0.063060 0.500297 0.018550
C26   C     C_R   0.492026 0.936342 0.444171 0.022232
C27   C     C_R   0.481791 0.064603 0.474985 0.017383
C28   C     C_R   0.540860 0.938325 0.451943 0.021079
C29   C     C_R   0.135246 0.434965 0.468865 -0.013777
C30   C     C_R   0.892386 0.565393 0.428706 -0.020880
C31   C     C_R   0.892351 0.434874 0.428198 -0.021955
C32   C     C_R   0.135488 0.564681 0.468622 -0.014381
C33   C     C_R   0.634024 0.939914 0.479855 -0.025472
C34   C     C_R   0.390418 0.066060 0.443649 -0.018983
C35   C     C_R   0.392177 0.935287 0.435309 -0.020748
C36   C     C_R   0.614216 0.062705 0.536127 -0.025784
C37   C     C_R   0.176528 0.435089 0.497737 -0.086757
C38   C     C_R   0.836716 0.565460 0.449454 -0.076342
C39   C     C_R   0.836692 0.434639 0.449316 -0.077923
C40   C     C_R   0.176573 0.564757 0.497758 -0.085860
C41   C     C_R   0.674917 0.936926 0.508358 -0.082409
C42   C     C_R   0.336717 0.065769 0.453318 -0.079821
C43   C     C_R   0.337329 0.934757 0.450372 -0.075112
C44   C     C_R   0.665354 0.064543 0.537065 -0.069757
C45   C     C_R   0.194714 0.499982 0.514403 -0.251980
C46   C     C_R   0.810115 0.499986 0.460024 -0.245401
C47   C     C_R   0.691597 0.000186 0.532094 -0.242446
C48   C     C_R   0.311298 0.000150 0.457770 -0.246062
H1    H     H_    0.224830 0.500073 0.538167 0.191953
H2    H     H_    0.767445 0.499894 0.479327 0.189149
H3    H     H_    0.726914 0.999884 0.543064 0.195119
H4    H     H_    0.269651 0.999947 0.470435 0.191700
C49   C     C_R   0.110032 0.499829 0.466926 -0.006342
C50   C     C_R   0.917119 0.500118 0.431277 -0.012678
C51   C     C_R   0.600481 0.000738 0.501828 -0.017245
C52   C     C_R   0.414642 0.000318 0.446067 -0.014159
C53   C     C_R   0.626786 0.886224 0.426731 0.345240
C54   C     C_R   0.422038 0.128882 0.430594 0.338340
C55   C     C_R   0.426242 0.874400 0.408736 0.337561
C56   C     C_R   0.576718 0.119989 0.566176 0.338255
C57   C     C_R   0.120913 0.374156 0.434112 0.337164
C58   C     C_R   0.925387 0.627167 0.402659 0.336716
C59   C     C_R   0.925282 0.373260 0.401324 0.334654
C60   C     C_R   0.121688 0.625329 0.433202 0.338450
C61   C     C_R   0.578837 0.882943 0.419808 -0.257328
C62   C     C_R   0.462465 0.129055 0.458046 -0.265152
C63   C     C_R   0.473341 0.874247 0.419155 -0.254865
C64   C     C_R   0.534437 0.121421 0.542779 -0.261190
C65   C     C_R   0.071544 0.371913 0.432117 -0.257801
C66   C     C_R   0.972621 0.628322 0.412018 -0.254980
C67   C     C_R   0.972588 0.371995 0.410427 -0.254941
C68   C     C_R   0.072351 0.627761 0.431247 -0.258160
H5    H     H_    0.575076 0.840544 0.379585 0.192710
H6    H     H_    0.483580 0.178514 0.454306 0.197927
H7    H     H_    0.495510 0.824894 0.404724 0.192491
H8    H     H_    0.507049 0.166282 0.564745 0.195291
H9    H     H_    0.061262 0.321732 0.412707 0.188739
H10   H     H_    0.993828 0.678395 0.397494 0.191988
H11   H     H_    0.993992 0.322192 0.394663 0.192332
H12   H     H_    0.062613 0.677752 0.410855 0.189053
H13   H     H_    0.161836 0.699743 0.053682 0.166919
H14   H     H_    0.838540 0.307496 0.950322 0.159825
H15   H     H_    0.841934 0.689179 0.946148 0.160252
H16   H     H_    0.162603 0.301017 0.052962 0.166661
H17   H     H_    0.660296 0.190640 0.050597 0.165572
H18   H     H_    0.342674 0.810538 0.945692 0.161641
H19   H     H_    0.342289 0.188220 0.945985 0.165367
H20   H     H_    0.661995 0.801346 0.053801 0.166777
C69   C     C_R   0.221987 0.767641 0.953835 0.142605
C70   C     C_R   0.779628 0.235796 0.045980 0.144736
C71   C     C_R   0.782032 0.756874 0.046158 0.132397
C72   C     C_R   0.222222 0.232645 0.953450 0.141540
C73   C     C_R   0.719241 0.262297 0.954890 0.144140
C74   C     C_R   0.282408 0.742852 0.045585 0.131317
C75   C     C_R   0.282536 0.256355 0.045577 0.128861
C76   C     C_R   0.721782 0.733427 0.953838 0.142924
C77   C     C_R   0.272945 0.799175 0.924132 -0.103190
C78   C     C_R   0.729336 0.202807 0.073841 -0.103619
C79   C     C_R   0.731189 0.788350 0.076214 -0.075724
C80   C     C_R   0.272827 0.200505 0.924010 -0.101697
C81   C     C_R   0.769527 0.295283 0.927064 -0.108619
C82   C     C_R   0.231282 0.711825 0.075736 -0.076562
C83   C     C_R   0.231769 0.288014 0.075425 -0.076126
C84   C     C_R   0.772451 0.701450 0.924244 -0.104471
H21   H     H_    0.289148 0.833411 0.865727 0.144762
H22   H     H_    0.713714 0.166697 0.130461 0.148446
H23   H     H_    0.715216 0.822581 0.134626 0.183035
H24   H     H_    0.288753 0.166172 0.865711 0.145108
H25   H     H_    0.785150 0.331424 0.870474 0.142562
H26   H     H_    0.215091 0.677501 0.134070 0.183945
H27   H     H_    0.215857 0.322452 0.133637 0.183609
H28   H     H_    0.788455 0.667318 0.865761 0.143453
C85   C     C_R   0.303185 0.786562 0.969612 -0.075292
C86   C     C_R   0.699132 0.216154 0.028556 -0.062139
C87   C     C_R   0.701150 0.776701 0.030201 -0.072652
C88   C     C_R   0.303034 0.212586 0.969699 -0.072770
C89   C     C_R   0.799719 0.281944 0.972340 -0.066087
C90   C     C_R   0.201172 0.724137 0.030028 -0.073258
C91   C     C_R   0.201698 0.276227 0.029518 -0.072506
C92   C     C_R   0.802620 0.713400 0.970020 -0.075230
C93   C     C_R   0.145694 0.828899 0.945720 0.290779
C94   C     C_R   0.855266 0.172918 0.053950 0.295899
C95   C     C_R   0.856514 0.823811 0.053685 0.295195
C96   C     C_R   0.145651 0.171589 0.945742 0.290403
C97   C     C_R   0.643643 0.325329 0.946913 0.291966
C98   C     C_R   0.356692 0.675972 0.053492 0.296030
C99   C     C_R   0.357164 0.322917 0.053090 0.294767
C100  C     C_R   0.645285 0.672196 0.946042 0.290560
C101  C     C_R   0.118724 0.851578 0.896344 -0.158729
C102  C     C_R   0.881734 0.149104 0.103594 -0.171292
C103  C     C_R   0.882323 0.849690 0.103532 -0.172590
C104  C     C_R   0.118638 0.148736 0.896446 -0.158542
C105  C     C_R   0.617785 0.350166 0.896751 -0.165844
C106  C     C_R   0.382367 0.650174 0.103511 -0.170212
C107  C     C_R   0.382616 0.349281 0.103272 -0.166715
C108  C     C_R   0.618481 0.648979 0.896559 -0.158281
C109  C     C_R   0.137687 0.829166 0.807862 -0.290746
C110  C     C_R   0.862619 0.171096 0.192298 -0.241538
C111  C     C_R   0.863318 0.828102 0.192377 -0.234100
C112  C     C_R   0.137559 0.171085 0.807977 -0.290805
C113  C     C_R   0.637254 0.328749 0.807758 -0.257356
C114  C     C_R   0.363253 0.671746 0.192414 -0.241842
C115  C     C_R   0.363363 0.328033 0.192295 -0.245611
C116  C     C_R   0.637512 0.671136 0.807994 -0.290600
H29   H     H_    0.118796 0.849340 0.768706 0.207508
H30   H     H_    0.881027 0.150053 0.231776 0.219902
H31   H     H_    0.880576 0.851378 0.232530 0.216332
H32   H     H_    0.118576 0.150818 0.768894 0.207611
H33   H     H_    0.619265 0.350489 0.767998 0.215987
H34   H     H_    0.380401 0.648548 0.232651 0.217018
H35   H     H_    0.380452 0.351559 0.232560 0.216394
H36   H     H_    0.618692 0.650596 0.768791 0.207825
C117  C     C_R   0.181735 0.783163 0.768069 -0.111790
C118  C     C_R   0.818926 0.217729 0.231901 -0.093262
C119  C     C_R   0.821060 0.779008 0.231266 -0.062754
C120  C     C_R   0.181731 0.217083 0.768053 -0.112323
C121  C     C_R   0.680763 0.281802 0.768254 -0.101631
C122  C     C_R   0.321061 0.720742 0.231216 -0.069831
C123  C     C_R   0.321078 0.278976 0.231209 -0.077841
C124  C     C_R   0.681593 0.717288 0.768132 -0.110862
C125  C     C_R   0.206075 0.756026 0.819886 0.107685
C126  C     C_R   0.795376 0.246219 0.179725 0.104865
C127  C     C_R   0.799600 0.747001 0.178033 0.157428
C128  C     C_R   0.206265 0.244294 0.819678 0.107861
C129  C     C_R   0.703911 0.252677 0.820691 0.106916
C130  C     C_R   0.299761 0.752600 0.177796 0.160777
C131  C     C_R   0.299669 0.246889 0.177911 0.160731
C132  C     C_R   0.705922 0.744826 0.819909 0.108906
C133  C     C_R   0.189973 0.782911 0.906333 -0.100503
C134  C     C_R   0.811522 0.219732 0.093207 -0.105408
C135  C     C_R   0.814522 0.773939 0.092130 -0.109812
C136  C     C_R   0.190078 0.217539 0.906162 -0.101074
C137  C     C_R   0.687416 0.278546 0.907591 -0.102919
C138  C     C_R   0.314733 0.725675 0.091829 -0.110124
C139  C     C_R   0.314956 0.273381 0.091688 -0.108693
C140  C     C_R   0.689656 0.718252 0.906510 -0.100805
O33   O     O_R   0.051640 0.926880 0.885090 -0.593182
O34   O     O_R   0.948360 0.073120 0.114910 -0.583105
O35   O     O_R   0.948360 0.926880 0.114910 -0.583272
O36   O     O_R   0.051640 0.073120 0.885090 -0.593093
O37   O     O_R   0.551640 0.426880 0.885090 -0.586339
O38   O     O_R   0.448360 0.573120 0.114910 -0.583092
O39   O     O_R   0.448360 0.426880 0.114910 -0.583468
O40   O     O_R   0.551640 0.573120 0.885090 -0.593366
Cu9   Cu    Cu3+1 0.495240 0.500000 0.924150 1.134352
Cu10  Cu    Cu3+1 0.504760 0.500000 0.075850 1.152451
Cu11  Cu    Cu3+1 0.995240 0.000000 0.924150 1.121282
Cu12  Cu    Cu3+1 0.004760 0.000000 0.075850 1.151448
C141  C     C_R   0.926045 0.903170 0.066719 0.812592
C142  C     C_R   0.073984 0.096728 0.933362 0.807018
C143  C     C_R   0.074033 0.903390 0.933282 0.805898
C144  C     C_R   0.926066 0.096754 0.066683 0.811964
C145  C     C_R   0.426168 0.403003 0.066612 0.815226
C146  C     C_R   0.573938 0.596795 0.933399 0.804153
C147  C     C_R   0.573772 0.403009 0.933449 0.808682
C148  C     C_R   0.426058 0.596793 0.066745 0.812468
O41   O     O_R   0.940620 0.926560 0.986760 -0.524029
O42   O     O_R   0.059380 0.073440 0.013240 -0.520297
O43   O     O_R   0.059380 0.926560 0.013240 -0.520288
O44   O     O_R   0.940620 0.073440 0.986760 -0.523853
O45   O     O_R   0.440620 0.426560 0.986760 -0.522409
O46   O     O_R   0.559380 0.573440 0.013240 -0.521298
O47   O     O_R   0.559380 0.426560 0.013240 -0.521985
O48   O     O_R   0.440620 0.573440 0.986760 -0.524673
N1    N     N_R   0.671338 0.844599 0.364953 0.120222
O49   O     O_R   0.718015 0.875217 0.320806 -0.422447
O50   O     O_R   0.662938 0.782723 0.338055 -0.342165
N2    N     N_R   0.421288 0.186444 0.374292 0.150185
O51   O     O_R   0.408833 0.173757 0.309854 -0.360779
O52   O     O_R   0.438625 0.249818 0.380631 -0.327706
N3    N     N_R   0.419060 0.817842 0.356976 0.141135
O53   O     O_R   0.436338 0.753605 0.358845 -0.330702
O54   O     O_R   0.401772 0.832505 0.298897 -0.373980
N4    N     N_R   0.576526 0.171834 0.629717 0.141352
O55   O     O_R   0.590498 0.153237 0.690761 -0.359059
O56   O     O_R   0.556549 0.235275 0.633520 -0.325769
N5    N     N_R   0.161258 0.325302 0.376534 0.136043
O57   O     O_R   0.206814 0.350872 0.316548 -0.407789
O58   O     O_R   0.148437 0.259516 0.369256 -0.328298
N6    N     N_R   0.917036 0.683492 0.352011 0.140170
O59   O     O_R   0.898829 0.668283 0.295213 -0.378544
O60   O     O_R   0.934109 0.748090 0.353407 -0.333173
N7    N     N_R   0.916641 0.317211 0.350435 0.141089
O61   O     O_R   0.933849 0.252670 0.350870 -0.332765
O62   O     O_R   0.897955 0.332666 0.294408 -0.367566
N8    N     N_R   0.162482 0.673615 0.375014 0.134740
O63   O     O_R   0.150153 0.739208 0.366258 -0.329277
O64   O     O_R   0.207909 0.647437 0.315724 -0.410245
N9    N     N_R   0.129426 0.853272 0.035276 0.135760
O65   O     O_R   0.089514 0.822176 0.101810 -0.316240
O66   O     O_R   0.158072 0.900887 0.051009 -0.297100
N10   N     N_R   0.871550 0.149040 0.964224 0.137554
O67   O     O_R   0.842895 0.101691 0.948095 -0.296507
O68   O     O_R   0.911439 0.180417 0.897966 -0.340028
N11   N     N_R   0.871536 0.848817 0.964845 0.138286
O69   O     O_R   0.911130 0.818638 0.897094 -0.341450
O70   O     O_R   0.842058 0.896088 0.951071 -0.294496
N12   N     N_R   0.129298 0.147399 0.035389 0.135629
O71   O     O_R   0.157723 0.099812 0.051284 -0.297116
O72   O     O_R   0.089443 0.178487 0.101811 -0.316034
N13   N     N_R   0.626616 0.347996 0.037314 0.136015
O73   O     O_R   0.585673 0.317069 0.102213 -0.312347
O74   O     O_R   0.655356 0.393828 0.055480 -0.299966
N14   N     N_R   0.371862 0.651115 0.964530 0.138346
O75   O     O_R   0.342187 0.604152 0.950331 -0.293649
O76   O     O_R   0.411751 0.681295 0.897040 -0.339527
N15   N     N_R   0.372838 0.347003 0.963667 0.136944
O77   O     O_R   0.413168 0.316961 0.896957 -0.315311
O78   O     O_R   0.343379 0.393265 0.948261 -0.294085
N16   N     N_R   0.628769 0.648272 0.035840 0.135253
O79   O     O_R   0.657225 0.601022 0.052188 -0.300476
O80   O     O_R   0.588640 0.679211 0.101960 -0.315932
I1    I     I_    0.263477 0.669737 0.777464 -0.219056
I2    I     I_    0.738989 0.333688 0.221999 -0.195549
I3    I     I_    0.749816 0.652827 0.217710 -0.141089
I4    I     I_    0.264230 0.330321 0.776864 -0.213893
I5    I     I_    0.760166 0.165072 0.778196 -0.209678
I6    I     I_    0.249834 0.846297 0.217496 -0.135095
I7    I     I_    0.248904 0.153631 0.218245 -0.136272
I8    I     I_    0.763601 0.831165 0.777155 -0.216379

loop_
_geom_bond_atom_site_label_1
_geom_bond_atom_site_label_2
_geom_bond_distance
_ccdc_geom_bond_type
C100  N16   1.434525 S    
C47   H3    1.083586 S    
C122  C130  1.416868 A    
Cu2   Cu5   2.672586 S    
C103  C111  1.397588 A    
C10   C39   1.490239 S    
C66   H10   1.073791 S    
O39   Cu10  1.957072 S    
C16   C41   1.481762 S    
C111  C119  1.398336 A    
O38   C148  1.305205 A    
C109  C117  1.398450 A    
C102  C110  1.397268 A    
N14   O75   1.300870 A    
C29   C49   1.412354 A    
C53   N1    1.434618 S    
C119  C127  1.416394 A    
Cu6   O22   1.962983 S    
O37   Cu9   1.962178 S    
C117  C125  1.422459 A    
C6    O22   1.284101 A    
N7    O62   1.301707 A    
C125  C133  1.404056 A    
C21   C23   1.428750 A    
C2    C121  1.474691 S    
C22   C24   1.428979 A    
O39   C145  1.304283 A    
N10   O67   1.301018 A    
C57   N5    1.431989 S    
N15   O78   1.300903 A    
O3    Cu3   1.960070 S    
C120  C128  1.422379 A    
C25   C64   1.407452 A    
C112  C120  1.397540 A    
C53   C61   1.398007 A    
C78   C86   1.393862 A    
C83   H27   1.083411 S    
C43   C48   1.400785 A    
C124  C132  1.422343 A    
N1    O49   1.301181 A    
C128  C136  1.403600 A    
C82   C90   1.394112 A    
C56   N4    1.440347 S    
C33   C41   1.427896 A    
C14   C43   1.497844 S    
N2    O52   1.301718 A    
C100  C140  1.401419 A    
C98   C106  1.417329 A    
C72   C91   1.400145 A    
N7    O61   1.301775 A    
C55   N3    1.439833 S    
C46   H2    1.083353 S    
C68   H12   1.073780 S    
C94   C134  1.401595 A    
C3    O19   1.281572 A    
C101  C143  1.477010 S    
O36   Cu11  1.957073 S    
Cu12  O42   1.961874 S    
Cu11  Cu12  2.683060 S    
O12   Cu4   1.959010 S    
O13   Cu5   1.958974 S    
C147  O47   1.289747 A    
C80   C88   1.394439 A    
C81   C89   1.393439 A    
N9    O66   1.300981 A    
C33   C51   1.413465 A    
C69   C133  1.474527 S    
C12   C37   1.486411 S    
C70   C78   1.403498 A    
C8    O24   1.286138 A    
C107  C115  1.397714 A    
C108  C116  1.396421 A    
C104  C142  1.475065 S    
O2    C13   1.311531 A    
H19   C88   1.083022 S    
C17   C21   1.417347 A    
C29   C57   1.415997 A    
C36   C56   1.422211 A    
C54   C62   1.401898 A    
C9    C40   1.484756 S    
C11   C38   1.492274 S    
Cu3   O19   1.962631 S    
C82   H26   1.083400 S    
O10   Cu2   1.958974 S    
Cu11  O44   1.966204 S    
C58   N6    1.440230 S    
O4    Cu4   1.960072 S    
C69   C77   1.404087 A    
C125  I1    2.157113 S    
C127  I3    2.150338 S    
C114  H34   1.083260 S    
Cu9   O45   1.961874 S    
O6    Cu6   1.954933 S    
C29   C37   1.441402 A    
C99   C139  1.402490 A    
C26   C63   1.412179 A    
C35   C43   1.434775 A    
C106  C114  1.397980 A    
C31   C39   1.428545 A    
Cu10  O47   1.966206 S    
C34   C54   1.423702 A    
Cu9   O48   1.966204 S    
C13   C44   1.491334 S    
C61   H5    1.077330 S    
C96   C136  1.401293 A    
O7    C12   1.311278 A    
Cu2   O26   1.958573 S    
Cu10  O46   1.961874 S    
C74   C85   1.400077 A    
C131  I7    2.150482 S    
C67   H11   1.073926 S    
N5    O57   1.300856 A    
C22   C67   1.413324 A    
C20   C27   1.413344 A    
C107  C145  1.476537 S    
C102  C144  1.477097 S    
N4    O56   1.301641 A    
O35   Cu12  1.957072 S    
C93   C101  1.418119 A    
O28   C12   1.277173 A    
O16   C3    1.304137 A    
C75   C83   1.403163 A    
O29   C13   1.285781 A    
C127  C135  1.401870 A    
C101  C109  1.396715 A    
C69   C90   1.400501 A    
Cu4   O28   1.962552 S    
Cu5   O29   1.958573 S    
C56   C64   1.405654 A    
C4    C123  1.474280 S    
Cu7   O31   1.962552 S    
C73   C86   1.399771 A    
Cu8   O32   1.962552 S    
C34   C52   1.414689 A    
C60   C68   1.394766 A    
C76   C87   1.400389 A    
C75   C88   1.399861 A    
C110  H30   1.083347 S    
C54   N2    1.440921 S    
Cu4   Cu7   2.666285 S    
C79   C87   1.393666 A    
C35   C55   1.420929 A    
O5    Cu5   1.954935 S    
O34   C144  1.305642 A    
N8    O64   1.300829 A    
O9    C6    1.305776 A    
O26   C10   1.291792 A    
C97   C137  1.401849 A    
C146  O46   1.288722 A    
O11   C8    1.300001 A    
H13   C90   1.083038 S    
O12   C7    1.304170 A    
C71   C135  1.470497 S    
O13   C2    1.303911 A    
C96   C104  1.417165 A    
C84   C92   1.394349 A    
C28   C61   1.404384 A    
H17   C86   1.083054 S    
C99   C107  1.416371 A    
C145  O45   1.290653 A    
C100  C108  1.417168 A    
C31   C59   1.415574 A    
N6    O59   1.301685 A    
N13   O74   1.300987 A    
O1    Cu1   1.954935 S    
O14   Cu6   1.958974 S    
N14   O76   1.300848 A    
C84   H28   1.083289 S    
C19   C25   1.408775 A    
C130  C138  1.402230 A    
C24   C65   1.407611 A    
C78   H22   1.083337 S    
C42   C48   1.401047 A    
O8    Cu8   1.960072 S    
C128  I4    2.157261 S    
C70   C134  1.470827 S    
C129  C137  1.402533 A    
N10   O68   1.300895 A    
N12   O71   1.301009 A    
C21   C68   1.406944 A    
C1    O17   1.288934 A    
C18   C22   1.416465 A    
C103  C141  1.476599 S    
C121  C129  1.419984 A    
N11   O69   1.300839 A    
O40   Cu9   1.957073 S    
C36   C44   1.436513 A    
C65   H9    1.073908 S    
N3    O53   1.301710 A    
C95   N11   1.433529 S    
C110  C118  1.398985 A    
O11   Cu3   1.959010 S    
C77   H21   1.083271 S    
C30   C38   1.430383 A    
C30   C50   1.414865 A    
C34   C42   1.433622 A    
C111  H31   1.083286 S    
C57   C65   1.395659 A    
C118  C126  1.420135 A    
C126  I2    2.157113 S    
C109  H29   1.083305 S    
C59   C67   1.398632 A    
N16   O79   1.301002 A    
O25   C9    1.280018 A    
O40   C146  1.305403 A    
C1    C122  1.475244 S    
C112  H32   1.083337 S    
C99   N15   1.433675 S    
C113  H33   1.083308 S    
C25   C27   1.419532 A    
C114  C122  1.399215 A    
C116  H36   1.083330 S    
C95   C103  1.416376 A    
C104  C112  1.396378 A    
C113  C121  1.399176 A    
N9    O65   1.301022 A    
O37   C147  1.305583 A    
Cu1   O17   1.962982 S    
O35   C141  1.304307 A    
C8    C119  1.473810 S    
C6    C117  1.476325 S    
Cu3   O27   1.962552 S    
C35   C52   1.415933 A    
C97   N13   1.434175 S    
C129  I5    2.156893 S    
C45   H1    1.083909 S    
C32   C60   1.415458 A    
C93   N9    1.434384 S    
C93   C133  1.402078 A    
C106  C148  1.478403 S    
N4    O55   1.301785 A    
C74   C82   1.403394 A    
N15   O77   1.300877 A    
C94   C102  1.417277 A    
C94   N10   1.433992 S    
O30   C14   1.290455 A    
C131  C139  1.401972 A    
C41   C47   1.393559 A    
O33   Cu11  1.962178 S    
C32   C49   1.411196 A    
C20   C52   1.424728 A    
Cu6   O30   1.958573 S    
C70   C89   1.399526 A    
O4    C15   1.307443 A    
O5    C10   1.303411 A    
C58   C66   1.398821 A    
N2    O51   1.301933 A    
C30   C58   1.415401 A    
C27   C62   1.403726 A    
C83   C91   1.393345 A    
C72   C80   1.403872 A    
C55   C63   1.404714 A    
C73   C81   1.403393 A    
Cu1   Cu6   2.672586 S    
C74   C138  1.472133 S    
O36   C142  1.305431 A    
C64   H8    1.082063 S    
Cu3   Cu8   2.666285 S    
C76   C84   1.403825 A    
O10   C5    1.304109 A    
O27   C11   1.289153 A    
O15   C4    1.300051 A    
H14   C89   1.083065 S    
O14   C1    1.301572 A    
O34   Cu12  1.962175 S    
Cu4   O20   1.962629 S    
H18   C85   1.083003 S    
Cu5   O21   1.962982 S    
C4    O20   1.286302 A    
C32   C40   1.439291 A    
C5    O21   1.284859 A    
C39   C46   1.399982 A    
C105  C147  1.477368 S    
C26   C28   1.429323 A    
O2    Cu2   1.954933 S    
C72   C136  1.472808 S    
C44   C47   1.393572 A    
C98   N14   1.433451 S    
C80   H24   1.083289 S    
C81   H25   1.083333 S    
C20   C26   1.410666 A    
C31   C50   1.413648 A    
C33   C53   1.417466 A    
C79   H23   1.083518 S    
C40   C45   1.391561 A    
C62   H6    1.082056 S    
N11   O70   1.300868 A    
C60   N8    1.431914 S    
C36   C51   1.421701 A    
C7    C120  1.475115 S    
O7    Cu7   1.960070 S    
N3    O54   1.301741 A    
H15   C92   1.083018 S    
O38   Cu10  1.962175 S    
C97   C105  1.417230 A    
C5    C118  1.474181 S    
Cu11  O41   1.961874 S    
H16   C91   1.083059 S    
C143  O43   1.288691 A    
H20   C87   1.083043 S    
C2    O18   1.285398 A    
C75   C139  1.470544 S    
C48   H4    1.083220 S    
C38   C46   1.399383 A    
O15   Cu7   1.959010 S    
O16   Cu8   1.959010 S    
C17   C49   1.434602 A    
C96   N12   1.434511 S    
C19   C51   1.426313 A    
C126  C134  1.402287 A    
C108  C146  1.475145 S    
C77   C85   1.395014 A    
C71   C79   1.403136 A    
Cu12  O43   1.966206 S    
N6    O60   1.301772 A    
C95   C135  1.402653 A    
C116  C124  1.397545 A    
N13   O73   1.300939 A    
C115  C123  1.398382 A    
N5    O58   1.301644 A    
O1    C14   1.309111 A    
C19   C28   1.419679 A    
O3    C16   1.301007 A    
C123  C131  1.416944 A    
Cu9   Cu10  2.683060 S    
C15   C42   1.490985 S    
Cu2   O18   1.962983 S    
O8    C11   1.303415 A    
C63   H7    1.077023 S    
C98   C138  1.403221 A    
O9    Cu1   1.958974 S    
N12   O72   1.301015 A    
C142  O42   1.288646 A    
C130  I6    2.150184 S    
C17   C24   1.416431 A    
O31   C15   1.284482 A    
C18   C23   1.415596 A    
O32   C16   1.286328 A    
C59   N7    1.440410 S    
C3    C124  1.475382 S    
C115  H35   1.083285 S    
C73   C137  1.470909 S    
C148  O48   1.290659 A    
C23   C66   1.413839 A    
N1    O50   1.301207 A    
C18   C50   1.427091 A    
O33   C143  1.306346 A    
Cu7   O23   1.962631 S    
Cu8   O24   1.962629 S    
C7    O23   1.281390 A    
N16   O80   1.301018 A    
C105  C113  1.397487 A    
O6    C9    1.311303 A    
C71   C92   1.399797 A    
Cu1   O25   1.958573 S    
N8    O63   1.301635 A    
C37   C45   1.391234 A    
C132  C140  1.403806 A    
C144  O44   1.289517 A    
C132  I8    2.156848 S    
C141  O41   1.290652 A    
C76   C140  1.473157 S    
