data_mof_unit_7803.cif
_audit_creation_date              2012-12-11T21:15:21-0500
_audit_creation_method            fapswitch 2.2
_symmetry_space_group_name_H-M    P1
_symmetry_Int_Tables_number       1
_space_group_crystal_system       triclinic
_cell_length_a                    8.221865
_cell_length_b                    18.780312
_cell_length_c                    26.984405
_cell_angle_alpha                 99.474127
_cell_angle_beta                  92.632014
_cell_angle_gamma                 88.207103
_cell_volume                      4104.28109806

loop_
_atom_site_label
_atom_site_type_symbol
_atom_type_description
_atom_site_fract_x
_atom_site_fract_y
_atom_site_fract_z
_atom_type_partial_charge
Ba1   Ba    Ba6+2 0.160810 0.465630 0.521640 1.649399
Ba2   Ba    Ba6+2 0.649380 0.534380 0.478400 1.642947
C1    C     C_3   0.423380 0.278855 0.699940 -0.360864
C2    C     C_R   0.081523 0.095957 0.454549 0.029749
C3    C     C_R   0.228038 0.072079 0.431848 -0.066560
C4    C     C_3   0.963772 0.271181 0.625631 0.380239
C5    C     C_R   0.289497 0.002202 0.433328 -0.077328
C6    C     C_R   0.203642 0.954206 0.456578 0.024731
C7    C     C_R   0.056609 0.977514 0.479633 0.018601
C8    C     C_R   0.261495 0.883102 0.456178 -0.105993
C9    C     C_R   0.172206 0.833244 0.477144 -0.037245
C10   C     C_R   0.025639 0.856835 0.501302 -0.003279
C11   C     C_R   0.969115 0.929330 0.502667 -0.006786
C12   C     C_3   0.435383 0.304046 0.649610 0.338173
C13   C     C_R   0.223142 0.760056 0.473868 -0.006275
C14   C     C_R   0.126256 0.711499 0.492576 -0.294266
C15   C     C_R   0.986069 0.734128 0.518640 0.044784
C16   C     C_3   0.991580 0.198691 0.643254 -0.367699
C17   C     C_R   0.935234 0.808157 0.523949 -0.047389
C18   C     C_R   0.850607 0.073014 0.502603 0.004820
C19   C     C_R   0.792748 0.145203 0.503260 0.013046
C20   C     C_R   0.881446 0.193434 0.479727 -0.021379
C21   C     C_R   0.020008 0.166162 0.453095 0.008097
C22   C     C_R   0.795672 0.835013 0.550222 -0.044025
C23   C     C_3   0.485705 0.310508 0.377577 0.300043
C24   C     C_R   0.736017 0.905775 0.549658 0.032627
C25   C     C_R   0.822775 0.953241 0.525881 0.007100
C26   C     C_R   0.763022 0.024804 0.525560 0.017669
C27   C     C_R   0.588730 0.929530 0.571904 -0.080293
C28   C     C_3   0.840600 0.620425 0.631213 0.299619
C29   C     C_R   0.527968 0.999586 0.570658 -0.089316
C30   C     C_R   0.614819 0.047817 0.547944 0.032424
C31   C     C_R   0.644372 0.168392 0.526407 -0.029638
C32   C     C_R   0.555675 0.118599 0.547632 -0.107096
C33   C     C_R   0.589658 0.240795 0.527612 0.008329
C34   C     C_3   0.438400 0.232066 0.360453 -0.109621
C35   C     C_R   0.683527 0.288961 0.507423 -0.280425
C36   C     C_R   0.826738 0.266821 0.482965 0.061151
C37   C     C_R   0.309335 0.458176 0.176976 0.587728
C38   C     C_R   0.166433 0.571078 0.174889 0.582986
C39   C     C_2   0.027787 0.529809 0.269623 -0.072985
C40   C     C_3   0.838330 0.637818 0.688213 -0.361008
C41   C     C_3   0.992081 0.523487 0.323527 -0.050509
C42   C     C_1   0.279696 0.500147 0.337742 0.026372
C43   C     C_2   0.315992 0.505435 0.291216 -0.098695
C44   C     C_2   0.182496 0.519048 0.253641 0.200610
C45   C     C_3   0.859911 0.724927 0.380347 0.345645
C46   C     C_R   0.302691 0.511144 0.100100 -0.078910
C47   C     C_R   0.355015 0.455751 0.126984 -0.032016
C48   C     C_R   0.453475 0.399071 0.103636 -0.059642
C49   C     C_R   0.206374 0.568890 0.124185 -0.031382
C50   C     C_2   0.145726 0.530635 0.356733 -0.289659
C51   C     C_2   0.646027 0.470209 0.637061 -0.292667
C52   C     C_3   0.974750 0.370891 0.366019 0.291318
C53   C     C_R   0.480117 0.445080 0.973952 0.020939
C54   C     C_R   0.342629 0.563540 0.972026 0.020229
C55   C     C_R   0.432699 0.502763 0.947748 0.049240
C56   C     C_3   0.865125 0.800332 0.367113 -0.348764
C57   C     C_R   0.562638 0.384277 0.947361 -0.102250
C58   C     C_R   0.599895 0.380912 0.897416 -0.059201
C59   C     C_R   0.557758 0.438076 0.871515 -0.023211
C60   C     C_R   0.475390 0.499378 0.896576 -0.081384
C61   C     C_R   0.435325 0.557018 0.870434 -0.034429
C62   C     C_R   0.481137 0.553125 0.819977 0.596430
C63   C     C_R   0.594749 0.434091 0.820677 0.576772
C64   C     C_3   0.002686 0.342897 0.310716 -0.341612
C65   C     C_2   0.737400 0.453570 0.724548 -0.087702
C66   C     C_3   0.749145 0.426372 0.669116 -0.053689
C67   C     C_3   0.345395 0.700773 0.351584 0.296268
C68   C     C_1   0.518611 0.508292 0.656207 0.035988
C69   C     C_2   0.477856 0.511285 0.703817 -0.102318
C70   C     C_2   0.596611 0.485849 0.741904 0.186406
C71   C     C_R   0.442179 0.449341 0.025388 0.020828
C72   C     C_R   0.346555 0.508611 0.049126 0.049743
C73   C     C_R   0.294485 0.565274 0.022503 0.019940
C74   C     C_R   0.497319 0.396159 0.054268 -0.100252
C75   C     C_R   0.152488 0.623397 0.097155 -0.058590
C76   C     C_3   0.330740 0.686085 0.592880 0.317648
C77   C     C_R   0.304547 0.620662 0.944685 -0.098702
C78   C     C_3   0.369760 0.718244 0.299416 -0.346324
C79   C     C_R   0.350672 0.617525 0.895270 -0.059119
C80   C     C_R   0.194801 0.621625 0.047530 -0.098945
C81   C     C_3   0.328004 0.767335 0.610205 -0.391432
C82   C     C_R   0.996655 0.049012 0.479240 0.012779
H1    H     H_    0.376653 0.358604 0.652038 0.075822
H2    H     H_    0.204856 0.668208 0.583409 0.004877
H3    H     H_    0.405940 0.673447 0.559276 0.062940
H4    H     H_    0.294042 0.273738 0.708568 0.150965
H5    H     H_    0.245472 0.781774 0.641914 0.129489
H6    H     H_    0.284551 0.795811 0.579002 0.056661
H7    H     H_    0.452523 0.785333 0.622827 0.119104
H8    H     H_    0.566255 0.306564 0.641932 -0.054620
H9    H     H_    0.480177 0.318846 0.729849 0.137968
H10   H     H_    0.611538 0.317919 0.366412 0.073997
H11   H     H_    0.477729 0.323947 0.419153 0.008777
H12   H     H_    0.744471 0.680408 0.699583 0.135620
H13   H     H_    0.406133 0.222884 0.319490 0.140449
H14   H     H_    0.330437 0.220206 0.380730 0.080509
H15   H     H_    0.487560 0.225748 0.699322 0.113398
H16   H     H_    0.930481 0.155714 0.616182 0.065481
H17   H     H_    0.752887 0.722488 0.403573 0.116682
H18   H     H_    0.972933 0.714803 0.402402 -0.043298
H19   H     H_    0.864074 0.841190 0.401975 0.080038
H20   H     H_    0.978149 0.806121 0.346921 0.118566
H21   H     H_    0.756638 0.810494 0.342649 0.145720
H22   H     H_    0.215605 0.711567 0.360527 -0.018429
H23   H     H_    0.810049 0.588858 0.703917 0.069038
H24   H     H_    0.376733 0.642842 0.350910 0.065195
H25   H     H_    0.290486 0.684039 0.271413 0.125462
H26   H     H_    0.498714 0.707483 0.289339 0.145487
H27   H     H_    0.016474 0.268067 0.588141 0.079281
H28   H     H_    0.337752 0.775872 0.298486 0.125255
H29   H     H_    0.295850 0.107633 0.413173 0.103291
H30   H     H_    0.403225 0.985378 0.415604 0.098353
H31   H     H_    0.164584 0.655261 0.488669 0.066464
H32   H     H_    0.374932 0.866989 0.438395 0.112113
H33   H     H_    0.083637 0.199194 0.431540 0.101739
H34   H     H_    0.959131 0.656942 0.703871 0.134290
H35   H     H_    0.729055 0.801058 0.570374 0.099349
H36   H     H_    0.519373 0.893686 0.589900 0.064089
H37   H     H_    0.413332 0.016217 0.587817 0.071084
H38   H     H_    0.440561 0.134199 0.564473 0.107564
H39   H     H_    0.830024 0.280470 0.621806 -0.086323
H40   H     H_    0.640700 0.344313 0.508963 0.073778
H41   H     H_    0.440081 0.498397 0.279580 0.126023
H42   H     H_    0.498798 0.356494 0.123730 0.124926
H43   H     H_    0.832435 0.437714 0.750077 0.126199
H44   H     H_    0.662758 0.332619 0.879054 0.123329
H45   H     H_    0.089464 0.392155 0.384736 0.035586
H46   H     H_    0.597682 0.336909 0.963586 0.070094
H47   H     H_    0.577325 0.351600 0.040252 0.070992
H48   H     H_    0.926900 0.535950 0.243166 0.104797
H49   H     H_    0.076263 0.668089 0.114328 0.124156
H50   H     H_    0.240780 0.669655 0.960602 0.070594
H51   H     H_    0.123536 0.185101 0.645720 0.147683
H52   H     H_    0.318096 0.663046 0.876323 0.122249
H53   H     H_    0.356736 0.530091 0.714943 0.138314
H54   H     H_    0.145042 0.665230 0.029632 0.070850
H55   H     H_    0.143777 0.554911 0.396145 0.068164
H56   H     H_    0.880234 0.414546 0.369123 0.033944
H57   H     H_    0.657275 0.457175 0.596642 0.085441
H58   H     H_    0.940017 0.200714 0.680771 0.120797
H59   H     H_    0.718180 0.604249 0.616044 0.011134
H60   H     H_    0.928882 0.575186 0.620876 0.081727
H61   H     H_    0.084020 0.294182 0.307119 0.155957
H62   H     H_    0.060668 0.384053 0.292955 0.074980
H63   H     H_    0.884840 0.328401 0.290485 0.117593
I1    I     I_    0.631691 0.157205 0.371271 -0.539507
N1    N     N_R   0.218627 0.516115 0.200902 -0.426214
N2    N     N_R   0.558218 0.491543 0.795044 -0.420867
O1    O     O_2   0.106080 0.324280 0.466820 -0.462614
O2    O     O_2   0.658961 0.564655 0.332504 -0.496709
O3    O     O_3   0.848465 0.674227 0.335942 -0.592083
O4    O     O_3   0.859130 0.413620 0.470620 -0.486829
O5    O     O_3   0.459240 0.537930 0.559910 -0.490917
O6    O     O_2   0.583120 0.462390 0.379940 -0.477031
O7    O     O_3   0.376959 0.353038 0.352812 -0.654263
O8    O     O_2   0.562225 0.756780 0.478744 -0.497573
O9    O     O_3   0.447433 0.743796 0.386520 -0.606481
O10   O     O_2   0.349039 0.408040 0.199058 -0.596621
O11   O     O_2   0.658041 0.378540 0.799062 -0.622080
O12   O     O_3   0.396248 0.652831 0.632222 -0.622932
O13   O     O_2   0.086865 0.622380 0.196029 -0.596097
O14   O     O_2   0.453715 0.605070 0.798591 -0.598398
O15   O     O_3   0.376230 0.370290 0.556910 -0.478792
O16   O     O_2   0.252068 0.243274 0.519537 -0.494310
O17   O     O_3   0.922083 0.313358 0.387365 -0.625010
O18   O     O_3   0.355284 0.254997 0.612418 -0.607709
O19   O     O_2   0.227190 0.537650 0.620070 -0.464107
O20   O     O_3   0.971110 0.406970 0.583250 -0.486305
O21   O     O_2   0.081200 0.465920 0.675098 -0.494305
O22   O     O_3   0.039164 0.325935 0.660340 -0.587117
O23   O     O_2   0.704230 0.675760 0.533200 -0.467518
O24   O     O_3   0.951180 0.586390 0.529420 -0.490622
O25   O     O_3   0.434080 0.629720 0.443130 -0.475802
O26   O     O_3   0.885132 0.682251 0.612945 -0.639298
O27   O     O_3   0.351080 0.462080 0.440130 -0.462865
O28   O     O_3   0.839200 0.593040 0.416790 -0.487486
P1    P     P_3+3 0.929380 0.335110 0.452880 0.991292
P2    P     P_3+3 0.398530 0.559060 0.613740 0.996281
P3    P     P_3+3 0.961288 0.409172 0.647799 0.951023
P4    P     P_3+3 0.880940 0.664900 0.547160 0.974768
P5    P     P_3+3 0.832588 0.587718 0.351569 0.974410
P6    P     P_3+3 0.394310 0.276853 0.553676 0.944290
P7    P     P_3+3 0.397182 0.444815 0.376616 0.968207
P8    P     P_3+3 0.415944 0.723251 0.446243 0.925897

loop_
_geom_bond_atom_site_label_1
_geom_bond_atom_site_label_2
_ccdc_geom_bond_type
C76   H3    S    
O17   P1    S    
C57   H46   S    
Ba2   O5    S    
C45   H17   S    
C53   C57   A    
C37   O10   D    
C71   C72   A    
C63   O11   D    
C52   O17   S    
C62   O14   D    
O24   P4    S    
O27   P7    S    
C55   C60   A    
C69   H53   S    
C4    O22   S    
C43   C44   S    
C42   C43   D    
O26   P4    S    
C24   C25   A    
C35   C36   A    
C54   C77   A    
C75   H49   S    
C61   C79   A    
C40   H12   S    
C5    H30   S    
C33   C35   A    
C22   C24   A    
C65   C70   D    
C48   C74   A    
Ba2   O23   S    
C74   H47   S    
C41   C50   S    
C19   C31   A    
C13   C14   A    
C20   C36   A    
C1    H15   S    
Ba1   O20   S    
C50   H55   S    
C28   H60   S    
C54   C55   A    
Ba1   Ba2   S    
Ba2   P4    S    
Ba1   O19   S    
C63   N2    Am   
Ba1   O5    S    
C51   C66   S    
C7    C11   A    
C64   H61   S    
C67   O9    S    
C32   H38   S    
C9    C13   A    
C76   C81   S    
C34   I1    S    
C4    H27   S    
C52   H56   S    
O3    P5    S    
C43   H41   S    
C14   C15   A    
O18   P6    S    
C78   H25   S    
C39   C44   D    
C34   H13   S    
C48   H42   S    
Ba2   O27   S    
Ba1   O15   S    
C40   H23   S    
O19   P2    D    
O12   P2    S    
O28   P5    S    
C42   P7    S    
C76   H2    S    
C15   P4    S    
C57   C58   A    
Ba2   O4    S    
C45   H18   S    
O4    P1    S    
C27   C29   A    
C39   C41   S    
Ba1   O4    S    
O22   P3    S    
C16   H16   S    
C4    H39   S    
C4    C16   S    
C51   C68   D    
O8    P8    D    
C28   O26   S    
C13   P8    S    
C67   H24   S    
O21   P3    D    
C46   C49   A    
C81   H5    S    
C27   H36   S    
C66   P3    S    
C72   C73   A    
C65   C66   S    
C46   C72   A    
C26   C30   A    
O16   P6    D    
C29   H37   S    
C38   O13   D    
C58   H44   S    
C3    C5    A    
C2    C21   A    
C6    C7    A    
C18   C26   A    
C33   P6    S    
O6    P7    D    
C81   H6    S    
C28   H59   S    
C62   N2    Am   
C58   C59   A    
C30   C32   A    
C49   C75   A    
C60   C61   A    
C65   H43   S    
Ba2   O25   S    
C35   H40   S    
O1    P1    D    
C29   C30   A    
C2    C82   A    
C16   H58   S    
C9    C10   A    
C78   H28   S    
C31   C32   A    
C16   H51   S    
C1    H9    S    
C18   C19   A    
O2    P5    D    
C12   H8    S    
C64   H63   S    
C68   C69   D    
C1    C12   S    
C46   C47   A    
C37   C47   A    
O23   P4    D    
C76   O12   S    
C70   N2    S    
C18   C82   A    
O20   P3    S    
C23   O7    S    
C71   C74   A    
C7    C82   A    
C56   H20   S    
C12   O18   S    
C81   H7    S    
C14   H31   S    
C8    H32   S    
O5    P2    S    
O9    P8    S    
C79   H52   S    
C77   C79   A    
C77   H50   S    
C22   H35   S    
Ba2   O6    S    
C36   P1    S    
C3    H29   S    
C1    H4    S    
O15   P6    S    
C28   C40   S    
C52   H45   S    
C40   H34   S    
C12   H1    S    
O7    P7    S    
C2    C3    A    
C42   C50   D    
C21   H33   S    
C39   H48   S    
C67   H22   S    
C73   C80   A    
C23   H11   S    
C52   C64   S    
C38   C49   A    
C45   O3    S    
C37   N1    Am   
Ba1   P2    S    
C56   H21   S    
C53   C55   A    
C17   C22   A    
C23   H10   S    
Ba1   O24   S    
C80   H54   S    
Ba2   O24   S    
C45   C56   S    
Ba1   P1    S    
C68   P2    S    
C75   C80   A    
C10   C17   A    
C41   P5    S    
C31   C33   A    
C38   N1    Am   
Ba1   O1    S    
C51   H57   S    
C59   C60   A    
C64   H62   S    
C5    C6    A    
C8    C9    A    
C23   C34   S    
C61   C62   A    
C53   C71   A    
C15   C17   A    
C59   C63   A    
C69   C70   S    
C44   N1    S    
C10   C11   A    
C24   C27   A    
C6    C8    A    
C47   C48   A    
C78   H26   S    
C25   C26   A    
C54   C73   A    
C20   C21   A    
C11   C25   A    
C67   C78   S    
C34   H14   S    
C56   H19   S    
Ba2   O28   S    
C19   C20   A    
Ba1   O27   S    
O25   P8    S    
