data_mof_unit_19070.cif
_audit_creation_date              2012-12-11T17:44:01-0500
_audit_creation_method            fapswitch 2.2
_symmetry_space_group_name_H-M    P1
_symmetry_Int_Tables_number       1
_space_group_crystal_system       triclinic
_cell_length_a                    20.242889
_cell_length_b                    22.741222
_cell_length_c                    6.948586
_cell_angle_alpha                 90.00096
_cell_angle_beta                  86.951583
_cell_angle_gamma                 89.998999
_cell_volume                      3194.24148523

loop_
_atom_site_label
_atom_site_type_symbol
_atom_type_description
_atom_site_fract_x
_atom_site_fract_y
_atom_site_fract_z
_atom_type_partial_charge
O1    O     O_R   0.751270 0.447300 0.600030 -0.538418
O2    O     O_R   0.248730 0.947300 0.399970 -0.538424
O3    O     O_R   0.613530 0.440160 0.952150 -0.537240
O4    O     O_R   0.386470 0.940160 0.047850 -0.537239
O5    O     O_R   0.613050 0.552700 0.122560 -0.535722
O6    O     O_R   0.386950 0.052700 0.877440 -0.535719
C1    C     C_R   0.591521 0.425436 0.787024 0.695350
C2    C     C_R   0.408481 0.925437 0.212972 0.695362
O7    O     O_R   0.750780 0.440350 0.929820 -0.542667
O8    O     O_R   0.249220 0.940350 0.070180 -0.542677
O9    O     O_R   0.751280 0.552900 0.100070 -0.541788
O10   O     O_R   0.248720 0.052900 0.899930 -0.541780
C3    C     C_R   0.773798 0.426413 0.757829 0.708321
C4    C     C_R   0.226201 0.926416 0.242171 0.708333
O11   O     O_R   0.613040 0.447100 0.622520 -0.535245
O12   O     O_R   0.386960 0.947100 0.377480 -0.535245
O13   O     O_3   0.682160 0.536920 0.777780 -0.369278
O14   O     O_3   0.317840 0.036920 0.222220 -0.369274
V1    V     V_3+5 0.682160 0.493150 0.052630 1.415776
V2    V     V_3+5 0.317840 0.993150 0.947370 1.415775
O15   O     O_R   0.750790 0.559840 0.429870 -0.545353
O16   O     O_R   0.249210 0.059840 0.570130 -0.545349
C5    C     C_R   0.773896 0.573952 0.257890 0.705264
C6    C     C_R   0.226103 0.073953 0.742111 0.705253
O17   O     O_R   0.613540 0.559650 0.452200 -0.536006
O18   O     O_R   0.386460 0.059650 0.547800 -0.536008
C7    C     C_R   0.591766 0.574542 0.286957 0.688578
C8    C     C_R   0.408232 0.074542 0.713047 0.688577
V3    V     V_3+5 0.682160 0.506850 0.552630 1.414955
V4    V     V_3+5 0.317840 0.006850 0.447370 1.414949
O19   O     O_3   0.682150 0.463080 0.277610 -0.365674
O20   O     O_3   0.317850 0.963080 0.722390 -0.365678
C9    C     C_R   0.579116 0.860957 0.145709 -0.146896
C10   C     C_R   0.420875 0.360971 0.854083 -0.146890
H1    H     H_    0.537116 0.947182 0.130013 0.107101
H2    H     H_    0.462876 0.447194 0.869790 0.107096
H3    H     H_    0.627978 0.878071 0.108184 0.135513
H4    H     H_    0.372007 0.378092 0.891512 0.135507
C11   C     C_R   0.463165 0.882450 0.210518 -0.039270
C12   C     C_R   0.536837 0.382451 0.789461 -0.039256
C13   C     C_R   0.473632 0.597110 0.341465 -0.163130
C14   C     C_R   0.526374 0.097100 0.658683 -0.163136
C15   C     C_R   0.420228 0.635460 0.355344 -0.120803
C16   C     C_R   0.579781 0.135445 0.644864 -0.120799
C17   C     C_R   0.429074 0.695287 0.319552 -0.137799
C18   C     C_R   0.570933 0.195275 0.680598 -0.137798
C19   C     C_R   0.492381 0.718691 0.267476 0.073699
C20   C     C_R   0.507619 0.218689 0.732550 0.073697
C21   C     C_R   0.546976 0.678814 0.250936 0.012583
C22   C     C_R   0.453020 0.178818 0.749022 0.012586
C23   C     C_R   0.503068 0.780184 0.232282 0.032496
C24   C     C_R   0.496931 0.280185 0.767691 0.032499
C25   C     C_R   0.568242 0.800360 0.178904 0.066127
C26   C     C_R   0.431750 0.300371 0.820941 0.066126
C27   C     C_R   0.621765 0.760274 0.160665 0.273270
C28   C     C_R   0.378221 0.260291 0.839106 0.273269
C29   C     C_R   0.610293 0.700338 0.197897 -0.233049
C30   C     C_R   0.389695 0.200351 0.801937 -0.233036
C31   C     C_R   0.451117 0.822611 0.247671 -0.191669
C32   C     C_R   0.548887 0.322608 0.752366 -0.191664
C33   C     C_R   0.527223 0.901140 0.159662 -0.178086
C34   C     C_R   0.472772 0.401149 0.840194 -0.178089
C35   C     C_R   0.537054 0.617753 0.289079 -0.067359
C36   C     C_R   0.462944 0.117752 0.710943 -0.067346
H5    H     H_    0.400572 0.810768 0.285323 0.090807
H6    H     H_    0.599436 0.310758 0.714799 0.090798
H7    H     H_    0.465483 0.550884 0.372447 0.104402
H8    H     H_    0.534526 0.050871 0.627758 0.104397
H9    H     H_    0.385132 0.721881 0.334375 0.106221
H10   H     H_    0.614879 0.221865 0.665833 0.106220
H11   H     H_    0.651076 0.669797 0.181971 0.122612
H12   H     H_    0.348908 0.169814 0.817812 0.122583
C37   C     C_R   0.170835 0.883795 0.257402 -0.093901
C38   C     C_R   0.829166 0.383791 0.742611 -0.093892
C39   C     C_R   0.167392 0.837832 0.123812 -0.227743
C40   C     C_R   0.832592 0.337820 0.876173 -0.227731
C41   C     C_R   0.114249 0.797976 0.131105 0.293873
C42   C     C_R   0.885749 0.297978 0.868964 0.293845
C43   C     C_R   0.061091 0.805612 0.273390 0.350900
C44   C     C_R   0.938931 0.305629 0.726777 0.350945
C45   C     C_R   0.065252 0.852222 0.404684 -0.248488
C46   C     C_R   0.934788 0.352246 0.595502 -0.248490
C47   C     C_R   0.119763 0.890086 0.399771 -0.208348
C48   C     C_R   0.880266 0.390100 0.600339 -0.208355
C49   C     C_R   0.905737 0.683240 0.398672 0.305560
C50   C     C_R   0.094258 0.183234 0.601284 0.305531
C51   C     C_R   0.849765 0.646517 0.406534 -0.237841
C52   C     C_R   0.150238 0.146519 0.593449 -0.237829
C53   C     C_R   0.943310 0.690069 0.221173 0.339130
C54   C     C_R   0.056664 0.190046 0.778743 0.339177
N1    N     N_2   0.001510 0.771359 0.288530 -0.299411
N2    N     N_2   0.998530 0.271396 0.711799 -0.299409
N3    N     N_2   0.002974 0.723493 0.200937 -0.313951
N4    N     N_2   0.996974 0.223436 0.798835 -0.314039
C55   C     C_R   0.830322 0.615947 0.242788 -0.117293
C56   C     C_R   0.169672 0.115947 0.757203 -0.117320
H13   H     H_    0.822607 0.640538 0.543740 0.149468
H14   H     H_    0.177409 0.140547 0.456259 0.149463
H15   H     H_    0.025559 0.859181 0.513117 0.142432
H16   H     H_    0.974503 0.359218 0.487149 0.142425
H17   H     H_    0.120938 0.925520 0.503730 0.138909
H18   H     H_    0.879104 0.425542 0.496412 0.138894
C57   C     C_R   0.867606 0.623341 0.068330 -0.202923
C58   C     C_R   0.132374 0.123336 0.931643 -0.202925
C59   C     C_R   0.923741 0.659257 0.059102 -0.218071
C60   C     C_R   0.076225 0.159241 0.940838 -0.217981
H19   H     H_    0.854558 0.600068 0.939768 0.149810
H20   H     H_    0.145416 0.100064 0.060210 0.149812
H21   H     H_    0.952866 0.662735 0.924465 0.166431
H22   H     H_    0.047087 0.162714 0.075456 0.166409
N5    N     N_2   0.926382 0.707794 0.574037 -0.530487
H23   H     H_    0.976524 0.713825 0.583135 0.273410
C61   C     C_3   0.886356 0.756045 0.649777 -0.550234
H24   H     H_    0.904445 0.770103 0.790678 0.198176
H25   H     H_    0.833889 0.742259 0.673026 0.200264
H26   H     H_    0.889602 0.793933 0.548766 0.211606
N6    N     N_2   0.073623 0.207804 0.425931 -0.530480
H27   H     H_    0.023485 0.213876 0.416899 0.273418
C62   C     C_3   0.113670 0.256044 0.350218 -0.550318
H28   H     H_    0.095605 0.270097 0.209282 0.198208
H29   H     H_    0.166136 0.242249 0.327039 0.200274
H30   H     H_    0.110415 0.293935 0.451211 0.211581
N7    N     N_2   0.116478 0.751948 0.992458 -0.520452
H31   H     H_    0.108906 0.709837 0.043353 0.279066
C63   C     C_3   0.086143 0.765690 0.814462 -0.523038
H32   H     H_    0.093359 0.728467 0.712127 0.192543
H33   H     H_    0.109705 0.805391 0.748099 0.208155
H34   H     H_    0.032317 0.773634 0.841422 0.209273
N8    N     N_2   0.883528 0.251964 0.007655 -0.520448
H35   H     H_    0.891074 0.209849 0.956774 0.279067
C64   C     C_3   0.913910 0.265707 0.185580 -0.523034
H36   H     H_    0.906705 0.228493 0.287950 0.192539
H37   H     H_    0.890377 0.305418 0.251974 0.208171
H38   H     H_    0.967733 0.273634 0.158499 0.209279
H39   H     H_    0.206833 0.832313 0.013529 0.146274
H40   H     H_    0.793133 0.332292 0.986395 0.146266
N9    N     N_2   0.686356 0.780999 0.098873 -0.528986
H41   H     H_    0.688747 0.801479 0.966250 0.250791
C65   C     C_3   0.744341 0.746570 0.137706 -0.531433
H42   H     H_    0.789339 0.773940 0.111435 0.203146
H43   H     H_    0.748264 0.707958 0.039879 0.191229
H44   H     H_    0.742352 0.732158 0.290695 0.205045
N10   N     N_2   0.313619 0.281027 0.900756 -0.528986
H45   H     H_    0.311201 0.301518 0.033363 0.250789
C66   C     C_3   0.255642 0.246600 0.861845 -0.531424
H46   H     H_    0.210643 0.273977 0.888008 0.203156
H47   H     H_    0.251693 0.207998 0.959707 0.191239
H48   H     H_    0.257663 0.232174 0.708869 0.205029
H49   H     H_    0.371367 0.618704 0.395610 0.119504
H50   H     H_    0.628648 0.118682 0.604696 0.119505

loop_
_geom_bond_atom_site_label_1
_geom_bond_atom_site_label_2
_ccdc_geom_bond_type
C52   C56   A    
C12   C32   A    
C54   N4    S    
C9    C25   A    
C22   C36   A    
N5    H23   S    
O4    C2    A    
C64   H38   S    
V1    O19   S    
C58   C60   A    
C66   H46   S    
C40   H40   S    
C12   C34   A    
N7    H31   S    
C13   H7    S    
N8    C64   S    
N9    C65   S    
O9    V1    S    
C38   C40   A    
C21   C35   A    
C42   N8    S    
C40   C42   A    
N8    H35   S    
O3    C1    A    
N6    C62   S    
V2    O20   S    
C65   H44   S    
C50   C52   A    
N7    C63   S    
O12   V4    S    
N10   H45   S    
C10   C34   A    
C48   H18   S    
O14   V2    S    
C17   C19   A    
O7    C3    A    
C24   C32   A    
C45   C47   A    
O5    C7    A    
C28   N10   S    
O7    V1    S    
O6    C8    A    
N5    C61   S    
O8    V2    S    
C55   C57   A    
C51   C55   A    
C63   H34   S    
C1    C12   S    
O3    V1    S    
O14   V4    S    
C2    C11   S    
C28   C30   A    
C47   H17   S    
C43   N1    S    
C15   H49   S    
C61   H26   S    
C1    O11   A    
C32   H6    S    
C2    O12   A    
C14   H8    S    
C13   C15   A    
C14   C16   A    
H2    C34   S    
O1    V3    S    
C66   H47   S    
C24   C26   A    
O11   V3    S    
C18   C20   A    
C25   C27   A    
O17   V3    S    
C11   C33   A    
C26   C28   A    
C49   C51   A    
C17   H9    S    
C22   C30   A    
C4    C37   S    
C54   C60   A    
C44   C46   A    
C50   C54   A    
C43   C45   A    
C49   C53   A    
C19   C23   A    
C45   H15   S    
C49   N5    S    
O15   V3    S    
C9    H3    S    
C23   C25   A    
C44   N2    S    
C41   N7    S    
N1    N3    D    
C39   C41   A    
C65   H42   S    
C11   C31   A    
O10   V2    S    
C6    C56   S    
N2    N4    D    
C41   C43   A    
C57   C59   A    
C29   H11   S    
C20   C22   A    
C15   C17   A    
C62   H29   S    
C7    C35   S    
C8    C36   S    
C10   C26   A    
C46   C48   A    
C27   C29   A    
O8    C4    A    
C63   H32   S    
O16   C6    A    
O1    C3    A    
C37   C39   A    
C64   H36   S    
C14   C36   A    
C58   H20   S    
C66   H48   S    
C61   H24   S    
C60   H22   S    
C62   H30   S    
N10   C66   S    
C56   C58   A    
C59   H21   S    
O16   V4    S    
C10   H4    S    
C46   H16   S    
C38   C48   A    
C64   H37   S    
C21   C29   A    
C62   H28   S    
O18   V4    S    
O5    V1    S    
C19   C21   A    
O6    V2    S    
N9    H41   S    
O10   C6    A    
O18   C8    A    
C27   N9    S    
O2    V4    S    
O15   C5    A    
V3    O19   S    
O13   V3    S    
C31   H5    S    
V4    O20   S    
C65   H43   S    
C30   H12   S    
C39   H39   S    
H1    C33   S    
O9    C5    A    
O13   V1    S    
C5    C55   S    
C50   N6    S    
C42   C44   A    
C53   N3    S    
O2    C4    A    
C16   H50   S    
C18   H10   S    
O4    V2    S    
C20   C24   A    
C23   C31   A    
C3    C38   S    
C9    C33   A    
C53   C59   A    
C63   H33   S    
C13   C35   A    
C57   H19   S    
C51   H13   S    
N6    H27   S    
C37   C47   A    
C16   C18   A    
C52   H14   S    
C61   H25   S    
O17   C7    A    
