data_mof_unit_59482.cif
_audit_creation_date              2012-12-11T19:58:26-0500
_audit_creation_method            fapswitch 2.2
_symmetry_space_group_name_H-M    P1
_symmetry_Int_Tables_number       1
_space_group_crystal_system       triclinic
_cell_length_a                    8.233225
_cell_length_b                    16.219021
_cell_length_c                    22.87702
_cell_angle_alpha                 108.190996
_cell_angle_beta                  89.344412
_cell_angle_gamma                 83.898345
_cell_volume                      2882.53685577

loop_
_atom_site_label
_atom_site_type_symbol
_atom_type_description
_atom_site_fract_x
_atom_site_fract_y
_atom_site_fract_z
_atom_type_partial_charge
Ba1   Ba    Ba6+2 0.335320 0.541410 0.478120 1.681225
Ba2   Ba    Ba6+2 0.854470 0.458670 0.521900 1.672692
C1    C     C_3   0.017504 0.762294 0.250870 -0.293237
C2    C     C_R   0.569635 0.565763 0.949082 -0.026780
C3    C     C_R   0.525174 0.561174 0.888366 0.593375
C4    C     C_3   0.520692 0.723613 0.346636 0.368831
C5    C     C_R   0.534938 0.405323 0.860829 0.600791
C6    C     C_R   0.572521 0.408197 0.921662 -0.035765
C7    C     C_R   0.590701 0.488858 0.965947 -0.051703
C8    C     C_R   0.592453 0.645631 0.993603 -0.070252
C9    C     C_R   0.635676 0.648964 0.053278 -0.074901
C10   C     C_R   0.655150 0.572737 0.070918 -0.017604
C11   C     C_R   0.631208 0.492506 0.027216 -0.049975
C12   C     C_3   0.000506 0.752121 0.314770 0.753389
C13   C     C_R   0.592940 0.331884 0.939159 -0.053530
C14   C     C_R   0.629332 0.335711 0.999531 -0.068816
C15   C     C_R   0.649149 0.415803 0.044365 -0.031382
C16   C     C_3   0.503561 0.746906 0.287503 -0.304085
C17   C     C_R   0.687762 0.420734 0.105664 0.594564
C18   C     C_R   0.698639 0.575170 0.131163 0.573740
C19   C     C_2   0.333181 0.430407 0.756998 -0.071265
C20   C     C_3   0.307803 0.408244 0.688631 -0.063196
C21   C     C_1   0.498409 0.514653 0.686553 0.044725
C22   C     C_2   0.544645 0.519788 0.743342 -0.069896
C23   C     C_3   0.063757 0.328970 0.325733 0.294202
C24   C     C_2   0.456719 0.476957 0.782384 0.202158
C25   C     C_R   0.894284 0.542714 0.236708 -0.108942
C26   C     C_R   0.930084 0.553888 0.298359 -0.050783
C27   C     C_R   0.698383 0.479806 0.310880 0.027120
C28   C     C_3   0.611963 0.728901 0.633560 0.277840
C29   C     C_R   0.657635 0.471250 0.249373 -0.102333
C30   C     C_R   0.753756 0.504608 0.211785 0.220425
C31   C     C_2   0.381573 0.468058 0.659596 -0.274769
C32   C     C_2   0.390541 0.240248 0.493743 -0.290769
C33   C     C_R   0.796921 0.752308 0.515069 -0.263547
C34   C     C_3   0.059855 0.304239 0.255991 -0.351902
C35   C     C_2   0.238491 0.123553 0.432258 -0.112481
C36   C     C_2   0.259166 0.208482 0.451857 0.019362
C37   C     C_2   0.513580 0.184291 0.502145 -0.060309
C38   C     C_3   0.516109 0.087736 0.467461 -0.015792
C39   C     C_3   0.343564 0.059852 0.454972 0.059303
C40   C     C_3   0.578085 0.827102 0.664640 -0.331889
C41   C     C_2   0.627725 0.029183 0.492770 -0.033438
C42   C     C_2   0.576014 0.967690 0.513900 -0.050155
C43   C     C_R   0.831252 0.930028 0.560848 0.042259
C44   C     C_R   0.694084 0.902672 0.527544 0.030731
C45   C     C_3   0.612792 0.197667 0.638670 0.214445
C46   C     C_R   0.948057 0.869166 0.572530 -0.066235
C47   C     C_R   0.930719 0.780161 0.549407 0.091616
C48   C     C_R   0.674829 0.813027 0.505952 0.006287
C49   C     C_3   0.578288 0.273380 0.370964 0.296017
C50   C     C_3   0.583779 0.175660 0.338736 -0.356393
C51   C     C_3   0.135072 0.649618 0.667117 0.293569
C52   C     C_3   0.141082 0.671226 0.736660 -0.350378
C53   C     C_3   0.669024 0.165136 0.691760 0.384493
C54   C     C_3   0.137144 0.224132 0.623685 0.397790
C55   C     C_3   0.113161 0.134966 0.629260 -0.295198
C56   C     C_R   0.830617 0.523810 0.335028 -0.283116
H1    H     H_    0.650892 0.847297 0.706267 0.150142
H2    H     H_    0.061511 0.594246 0.649683 0.080480
H3    H     H_    0.119555 0.800680 0.248232 0.119071
H4    H     H_    0.222001 0.723093 0.755108 0.140844
H5    H     H_    0.188964 0.612307 0.748634 0.064949
H6    H     H_    0.016223 0.694240 0.758371 0.137139
H7    H     H_    0.889234 0.720581 0.316979 -0.123630
H8    H     H_    0.902467 0.795936 0.240169 0.128649
H9    H     H_    0.936141 0.346088 0.345257 0.014925
H10   H     H_    0.132332 0.386648 0.342511 0.058688
H11   H     H_    0.989127 0.247690 0.237916 0.143179
H12   H     H_    0.611406 0.862472 0.632895 0.073198
H13   H     H_    0.001003 0.360050 0.242661 0.071060
H14   H     H_    0.186387 0.286687 0.235193 0.131954
H15   H     H_    0.043523 0.697544 0.215319 0.069736
H16   H     H_    0.606893 0.782126 0.280575 0.150889
H17   H     H_    0.532175 0.260113 0.657467 0.018521
H18   H     H_    0.544961 0.147239 0.607472 0.007635
H19   H     H_    0.720690 0.218103 0.727440 0.079905
H20   H     H_    0.765593 0.108943 0.674540 -0.000379
H21   H     H_    0.268162 0.232759 0.630258 -0.061110
H22   H     H_    0.107010 0.223756 0.576377 0.049291
H23   H     H_    0.446006 0.845423 0.678299 0.133090
H24   H     H_    0.214645 0.086016 0.603369 0.093210
H25   H     H_    0.997783 0.112954 0.609002 0.112601
H26   H     H_    0.441932 0.671673 0.344714 0.103634
H27   H     H_    0.111484 0.137208 0.678238 0.168486
H28   H     H_    0.642827 0.275388 0.010882 0.134014
H29   H     H_    0.579612 0.268704 0.906217 0.163687
H30   H     H_    0.652803 0.711867 0.085803 0.123942
H31   H     H_    0.975569 0.563290 0.207988 0.084740
H32   H     H_    0.577735 0.706029 0.982362 0.128640
H33   H     H_    0.648555 0.553994 0.761557 0.120527
H34   H     H_    0.455135 0.299790 0.392441 -0.002881
H35   H     H_    0.265205 0.399306 0.783496 0.128318
H36   H     H_    0.552663 0.438645 0.230918 0.119845
H37   H     H_    0.861538 0.530713 0.382028 0.077635
H38   H     H_    0.649252 0.697698 0.349813 -0.042596
H39   H     H_    0.355265 0.460663 0.611986 0.073427
H40   H     H_    0.142576 0.100463 0.401234 0.139362
H41   H     H_    0.050319 0.891492 0.600059 0.070514
H42   H     H_    0.392915 0.310197 0.513700 0.066971
H43   H     H_    0.783481 0.683307 0.498385 0.056101
H44   H     H_    0.758005 0.033323 0.488889 0.147723
H45   H     H_    0.669385 0.284751 0.407044 0.072286
H46   H     H_    0.447101 0.960139 0.516009 0.100120
H47   H     H_    0.501548 0.686284 0.248208 0.110699
H48   H     H_    0.387262 0.789074 0.289327 0.130729
H49   H     H_    0.743802 0.711445 0.620983 -0.002547
H50   H     H_    0.539384 0.710594 0.591750 0.051234
H51   H     H_    0.204347 0.904965 0.367210 0.352980
H52   H     H_    0.359190 0.021522 0.695922 0.355188
H53   H     H_    0.488379 0.162803 0.304114 0.136652
H54   H     H_    0.562008 0.141376 0.372273 0.074397
H55   H     H_    0.705824 0.149231 0.315267 0.141664
H56   H     H_    0.260716 0.630470 0.646450 0.007480
N1    N     N_R   0.506804 0.481460 0.844757 -0.430040
N2    N     N_R   0.710862 0.500068 0.148834 -0.423693
O1    O     O_2   0.414630 0.451750 0.353890 -0.454339
O2    O     O_2   0.849203 0.191160 0.496305 -0.471231
O3    O     O_3   0.751009 0.211679 0.608269 -0.607834
O4    O     O_3   0.654720 0.452660 0.425060 -0.498717
O5    O     O_3   0.021450 0.605740 0.544090 -0.496881
O6    O     O_2   0.953100 0.285520 0.441860 -0.454842
O7    O     O_3   0.140485 0.257767 0.341407 -0.635541
O8    O     O_2   0.962484 0.462709 0.704691 -0.482880
O9    O     O_3   0.036854 0.291123 0.668013 -0.551099
O10   O     O_2   0.500801 0.628378 0.874746 -0.589878
O11   O     O_2   0.529098 0.334507 0.821892 -0.544711
O12   O     O_3   0.064595 0.723617 0.653558 -0.635518
O13   O     O_2   0.703710 0.354011 0.120148 -0.588555
O14   O     O_2   0.725733 0.644585 0.167885 -0.632868
O15   O     O_3   0.116150 0.611500 0.411510 -0.447294
O16   O     O_2   0.265377 0.544229 0.300476 -0.505084
O17   O     O_3   0.614660 0.312190 0.326628 -0.626817
O18   O     O_3   0.144791 0.706309 0.326797 -0.621101
O19   O     O_2   0.236590 0.714510 0.558180 -0.461109
O20   O     O_3   0.511480 0.656670 0.446630 -0.508502
O21   O     O_2   0.334576 0.810264 0.502802 -0.449310
O22   O     O_2   0.795953 0.895874 0.372296 -0.313985
O23   O     O_3   0.471957 0.798143 0.397012 -0.570963
O24   O     O_2   0.006449 0.848644 0.433572 -0.310826
O25   O     O_3   0.094682 0.924380 0.355707 -0.526221
O26   O     O_2   0.561385 0.108487 0.781844 -0.263519
O27   O     O_2   0.362407 0.199803 0.742776 -0.290534
O28   O     O_3   0.447596 0.038923 0.674138 -0.578809
O29   O     O_2   0.775060 0.548280 0.646150 -0.461601
O30   O     O_3   0.534950 0.547420 0.574950 -0.501525
O31   O     O_3   0.073530 0.388570 0.588510 -0.478748
O32   O     O_3   0.568219 0.687619 0.675533 -0.624379
O33   O     O_3   0.168220 0.394330 0.455930 -0.483619
O34   O     O_3   0.678190 0.343400 0.553390 -0.457981
P1    P     P_3+3 0.594550 0.425840 0.359090 0.992701
P2    P     P_3+3 0.065650 0.701630 0.573510 0.993906
P3    P     P_3+3 0.496150 0.770295 0.464575 1.006317
P4    P     P_3+3 0.595130 0.574230 0.640920 0.994087
P5    P     P_3+3 0.696009 0.230706 0.539618 0.963194
P6    P     P_3+3 0.110855 0.604131 0.333156 0.960052
P7    P     P_3+3 0.135641 0.284977 0.421735 0.954921
P8    P     P_3+3 0.093374 0.390879 0.664796 0.984180
S1    S     S_3+6 0.970504 0.857447 0.371503 -0.076672
S2    S     S_3+6 0.504588 0.129285 0.725307 -0.089268

loop_
_geom_bond_atom_site_label_1
_geom_bond_atom_site_label_2
_ccdc_geom_bond_type
Ba2   O34   S    
C19   C24   D    
C17   O13   D    
C28   H49   S    
O17   P1    S    
C56   H37   S    
C42   H46   S    
C5    C6    A    
C43   C44   A    
C51   H56   S    
Ba2   O29   S    
O8    P8    D    
C40   H23   S    
C54   H21   S    
C20   P8    S    
C27   C56   A    
C13   H29   S    
O15   P6    S    
C22   C24   S    
C45   H18   S    
O24   S1    D    
C53   H19   S    
Ba2   O5    S    
C52   H5    S    
O23   P3    S    
C48   P3    S    
C49   H45   S    
O19   P2    D    
C40   H12   S    
C54   C55   S    
Ba1   P2    S    
Ba1   Ba2   S    
C5    N1    Am   
C4    O23   S    
C46   H41   S    
C7    C11   A    
C24   N1    S    
O16   P6    D    
O22   S1    D    
O25   S1    S    
C38   C41   S    
O18   P6    S    
C42   C44   S    
C6    C7    A    
C21   C31   D    
C23   H9    S    
C3    O10   D    
C33   C47   A    
C32   H42   S    
C21   C22   D    
C55   H25   S    
Ba1   O33   S    
C50   H55   S    
O28   S2    S    
Ba1   O20   S    
Ba1   P1    S    
C34   H13   S    
Ba2   O33   S    
C45   O3    S    
C16   H16   S    
C19   C20   S    
C3    N1    Am   
C14   H28   S    
Ba1   O30   S    
C23   H10   S    
O32   P4    S    
C35   H40   S    
C51   H2    S    
O12   P2    S    
Ba2   O6    S    
C4    C16   S    
C4    H26   S    
C32   C37   D    
O27   S2    D    
C18   O14   D    
C37   C38   S    
C18   N2    Am   
C53   H20   S    
Ba2   O4    S    
O9    P8    S    
C14   C15   A    
O7    P7    S    
C50   H53   S    
C33   H43   S    
Ba2   O31   S    
C51   C52   S    
C52   H4    S    
C49   C50   S    
C1    H3    S    
Ba1   O4    S    
C41   C42   D    
C16   H48   S    
C35   C36   D    
C51   O12   S    
C49   H34   S    
C27   P1    S    
C29   C30   A    
O30   P4    S    
C9    H30   S    
C10   C18   A    
C33   C48   A    
O21   P3    D    
O2    P5    D    
O1    P1    D    
Ba1   O1    S    
C54   O9    S    
C30   N2    S    
H52   O28   S    
C23   O7    S    
C1    C12   S    
O29   P4    D    
C38   C39   S    
C6    C13   A    
C4    H38   S    
O34   P5    S    
C19   H35   S    
C1    H8    S    
C2    C8    A    
C22   H33   S    
C34   H11   S    
C45   C53   S    
C43   C46   A    
C20   C31   S    
C53   S2    S    
O4    P1    S    
O3    P5    S    
C47   P2    S    
C28   H50   S    
C25   C30   A    
C32   C36   S    
C36   P7    S    
O26   S2    D    
C2    C3    A    
Ba1   O15   S    
C40   H1    S    
C9    C10   A    
C28   O32   S    
C26   C56   A    
Ba2   O30   S    
C29   H36   S    
C12   O18   S    
C44   C48   A    
C54   H22   S    
O5    P2    S    
C11   C15   A    
C12   S1    S    
C41   H44   S    
C45   H17   S    
C27   C29   A    
O20   P3    S    
C49   O17   S    
C52   H6    S    
C17   N2    Am   
C46   C47   A    
C15   C17   A    
C12   H7    S    
C55   H27   S    
C25   H31   S    
C31   H39   S    
C35   C39   S    
C1    H15   S    
Ba1   O5    S    
C16   H47   S    
C8    C9    A    
C23   C34   S    
C34   H14   S    
C10   C11   A    
C8    H32   S    
Ba2   P4    S    
C21   P4    S    
C37   P5    S    
C25   C26   A    
C26   P6    S    
C50   H54   S    
C55   H24   S    
C28   C40   S    
H51   O25   S    
C5    O11   D    
C2    C7    A    
Ba1   O19   S    
O31   P8    S    
O33   P7    S    
O6    P7    D    
C13   C14   A    
