data_mof_unit_52305.cif
_audit_creation_date              2012-12-11T15:57:02-0500
_audit_creation_method            fapswitch 2.2
_symmetry_space_group_name_H-M    P1
_symmetry_Int_Tables_number       1
_space_group_crystal_system       triclinic
_cell_length_a                    17.44974
_cell_length_b                    24.286314
_cell_length_c                    15.081442
_cell_angle_alpha                 89.993859
_cell_angle_beta                  126.366856
_cell_angle_gamma                 89.931377
_cell_volume                      5146.55464423

loop_
_atom_site_label
_atom_site_type_symbol
_atom_type_description
_atom_site_fract_x
_atom_site_fract_y
_atom_site_fract_z
_atom_type_partial_charge
C1    C     C_R   0.307382 0.122740 0.906993 -0.138418
C2    C     C_R   0.558407 0.152062 0.908764 -0.156537
C3    C     C_R   0.810868 0.364377 0.999387 0.009424
C4    C     C_R   0.572538 0.000166 0.369769 0.021349
C5    C     C_R   0.073281 0.500232 0.369946 0.019709
C6    C     C_R   0.193404 0.000511 0.635222 0.036658
C7    C     C_R   0.692612 0.500545 0.635694 0.035577
C8    C     C_R   0.503384 0.046477 0.734946 -0.126536
C9    C     C_R   0.502036 0.953577 0.733522 -0.159218
C10   C     C_R   0.998958 0.546461 0.730748 -0.108725
C11   C     C_R   0.998282 0.453501 0.730082 -0.184022
C12   C     C_R   0.769326 0.953325 0.249122 -0.126308
C13   C     C_R   0.058292 0.347958 0.908709 -0.152436
C14   C     C_R   0.769720 0.045916 0.248345 -0.144063
C15   C     C_R   0.269303 0.453420 0.248382 -0.127146
C16   C     C_R   0.269551 0.545949 0.247532 -0.142581
C17   C     C_3   0.006042 0.791683 0.897741 -0.345903
C18   C     C_3   0.924693 0.814404 0.785342 -0.962825
C19   C     C_3   0.005435 0.208466 0.896818 -0.345369
C20   C     C_3   0.924245 0.186079 0.784148 -0.963389
C21   C     C_3   0.506107 0.291779 0.898224 -0.345568
C22   C     C_3   0.424703 0.314551 0.785911 -0.962710
C23   C     C_3   0.505317 0.708443 0.896629 -0.345932
C24   C     C_R   0.058516 0.651991 0.908678 -0.158246
C25   C     C_3   0.424207 0.686075 0.783898 -0.962372
C26   C     C_3   0.367032 0.050177 0.462966 -0.420721
C27   C     C_3   0.298875 0.048901 0.496149 -0.965580
C28   C     C_3   0.366790 0.945357 0.467038 -0.285671
C29   C     C_3   0.399469 0.886844 0.464617 -1.022031
C30   C     C_3   0.859896 0.548658 0.452489 -0.414493
C31   C     C_3   0.806495 0.552594 0.505037 -0.936611
C32   C     C_3   0.861903 0.443980 0.459873 -0.300083
C33   C     C_3   0.878012 0.389144 0.421867 -1.026401
C34   C     C_R   0.520181 0.999985 0.695498 0.018268
C35   C     C_R   0.012852 0.499952 0.688671 0.026334
C36   C     C_R   0.824814 0.999303 0.274165 0.027134
C37   C     C_R   0.324610 0.499422 0.272462 0.025115
C38   C     C_R   0.619403 0.183553 0.000565 -0.011673
C39   C     C_R   0.618845 0.816258 0.000495 -0.012148
C40   C     C_R   0.119461 0.683510 0.000451 -0.009997
C41   C     C_R   0.307522 0.877154 0.906986 -0.138888
C42   C     C_R   0.118989 0.316312 0.000461 -0.013240
C43   C     C_3   0.021124 0.972040 0.524159 -0.149540
C44   C     C_3   0.041313 0.052339 0.473517 -0.164091
C45   C     C_3   0.521723 0.467192 0.519013 -0.152242
C46   C     C_3   0.537330 0.551854 0.480304 -0.165560
C47   C     C_3   0.960155 0.023551 0.467702 -0.145554
C48   C     C_3   0.457698 0.518125 0.469118 -0.140103
C49   C     C_3   0.926570 0.998869 0.356444 0.189225
C50   C     C_3   0.426350 0.499111 0.355117 0.191021
C51   C     C_3   0.987426 0.947218 0.412693 -0.162999
C52   C     C_R   0.807415 0.622794 0.907010 -0.138761
C53   C     C_3   0.006676 0.027672 0.360833 -0.155050
C54   C     C_3   0.490166 0.448018 0.404649 -0.163467
C55   C     C_3   0.505054 0.532901 0.365029 -0.160764
C56   C     C_3   0.069993 0.975861 0.419601 -0.160664
C57   C     C_3   0.571436 0.481660 0.417082 -0.159455
C58   C     C_R   0.401321 0.877132 0.091870 -0.142216
C59   C     C_R   0.401155 0.122692 0.091821 -0.142543
C60   C     C_R   0.901327 0.377171 0.091905 -0.144438
C61   C     C_R   0.901166 0.622694 0.091839 -0.142840
C62   C     C_3   0.101846 0.000705 0.529863 0.199029
C63   C     C_R   0.807537 0.377130 0.907015 -0.138318
C64   C     C_3   0.601002 0.500802 0.530078 0.195924
C65   C     C_3   0.258043 0.819773 0.105666 -0.403112
C66   C     C_3   0.257228 0.179739 0.105257 -0.407058
C67   C     C_3   0.758389 0.319681 0.105958 -0.409663
C68   C     C_3   0.757236 0.679724 0.105297 -0.406849
C69   C     C_3   0.709670 0.267851 0.109035 -0.405700
C70   C     C_3   0.708504 0.731607 0.108481 -0.410174
C71   C     C_3   0.209485 0.767876 0.108806 -0.412300
C72   C     C_3   0.208634 0.231675 0.108486 -0.410354
C73   C     C_3   0.797708 0.265545 0.993634 -0.400040
C74   C     C_R   0.649407 0.152130 0.092058 -0.137937
C75   C     C_3   0.797642 0.734206 0.994333 -0.400559
C76   C     C_3   0.297914 0.765547 0.993912 -0.399967
C77   C     C_3   0.297704 0.234176 0.994304 -0.400624
C78   C     C_3   0.147543 0.823205 0.899330 -0.446748
C79   C     C_3   0.147234 0.176819 0.898906 -0.445824
C80   C     C_3   0.647513 0.323322 0.899651 -0.446155
C81   C     C_3   0.647229 0.676801 0.898947 -0.445761
C82   C     C_3   0.253943 0.819762 0.999614 0.362443
C83   C     C_3   0.253535 0.179987 0.999478 0.364893
C84   C     C_3   0.753975 0.319766 0.999709 0.364587
C85   C     C_R   0.649087 0.847689 0.091996 -0.138540
C86   C     C_3   0.753530 0.679997 0.999512 0.364721
C87   C     C_3   0.663454 0.234948 0.000160 0.299065
C88   C     C_3   0.662889 0.764847 0.000003 0.301577
C89   C     C_3   0.163470 0.734913 0.000027 0.301124
C90   C     C_3   0.162983 0.264883 0.999967 0.301736
C91   C     C_3   0.742991 0.216152 0.990451 -0.433421
C92   C     C_3   0.742858 0.783628 0.991151 -0.433429
C93   C     C_3   0.243154 0.716138 0.990569 -0.433757
C94   C     C_3   0.242915 0.283622 0.991023 -0.433190
C95   C     C_3   0.592174 0.273343 0.899870 0.085283
C96   C     C_R   0.149387 0.652141 0.091991 -0.138288
C97   C     C_3   0.591807 0.726803 0.899180 0.084445
C98   C     C_3   0.092209 0.773239 0.899590 0.085624
C99   C     C_3   0.091842 0.226824 0.899198 0.084100
C100  C     C_3   0.590460 0.052382 0.619684 -0.461725
C101  C     C_3   0.599199 0.951085 0.626852 -0.412127
C102  C     C_3   0.082674 0.552701 0.613652 -0.450630
C103  C     C_3   0.092313 0.450926 0.621874 -0.428531
C104  C     C_R   0.554141 0.045679 0.305821 -0.154598
C105  C     C_R   0.553981 0.954476 0.306037 -0.154326
C106  C     C_R   0.054785 0.545699 0.305930 -0.154668
C107  C     C_R   0.149147 0.347706 0.091984 -0.138805
C108  C     C_R   0.054826 0.454529 0.306282 -0.155699
C109  C     C_3   0.602274 0.054138 0.527258 -0.429130
C110  C     C_3   0.615640 0.950953 0.537875 -0.404496
C111  C     C_3   0.099479 0.553974 0.525440 -0.435367
C112  C     C_3   0.111686 0.450828 0.535460 -0.406591
C113  C     C_3   0.431162 0.997146 0.488545 0.414946
C114  C     C_3   0.925409 0.496435 0.480673 0.408504
C115  C     C_3   0.532470 0.999921 0.607852 0.320943
C116  C     C_3   0.025390 0.499855 0.601175 0.315944
C117  C     C_3   0.562786 0.000350 0.459277 0.369735
C118  C     C_R   0.558160 0.847904 0.908744 -0.154718
C119  C     C_3   0.060523 0.500422 0.456925 0.370522
C120  C     C_3   0.454174 0.997001 0.403342 -0.494970
C121  C     C_3   0.951230 0.497366 0.397899 -0.475733
C122  C     C_R   0.241207 0.954284 0.695139 -0.162715
C123  C     C_R   0.241229 0.046312 0.695937 -0.146373
C124  C     C_R   0.740921 0.454304 0.695293 -0.163882
C125  C     C_R   0.740793 0.546333 0.696280 -0.140796
C126  C     C_R   0.310572 0.135369 0.999282 0.009276
C127  C     C_R   0.310842 0.864380 0.999337 0.009522
C128  C     C_R   0.810601 0.635403 0.999302 0.009694
H1    H     H_    0.250297 0.130794 0.821842 0.092987
H2    H     H_    0.997981 0.050151 0.291300 0.108391
H3    H     H_    0.690616 0.834296 0.176787 0.083634
H4    H     H_    0.191028 0.665435 0.176802 0.084248
H5    H     H_    0.190687 0.334308 0.176774 0.083775
H6    H     H_    0.515919 0.835296 0.823530 0.085754
H7    H     H_    0.516207 0.164809 0.823586 0.085946
H8    H     H_    0.016159 0.335391 0.823480 0.086598
H9    H     H_    0.016439 0.664659 0.823459 0.084650
H10   H     H_    0.913945 0.043039 0.486910 0.110479
H11   H     H_    0.409783 0.533009 0.489755 0.110958
H12   H     H_    0.948146 0.851009 0.763213 0.263658
H13   H     H_    0.469468 0.405498 0.371694 0.100980
H14   H     H_    0.898853 0.782380 0.720910 0.254936
H15   H     H_    0.864718 0.826801 0.787841 0.255238
H16   H     H_    0.977649 0.756288 0.916617 0.189228
H17   H     H_    0.028025 0.823686 0.961299 0.196099
H18   H     H_    0.898636 0.218275 0.719975 0.255452
H19   H     H_    0.947765 0.149503 0.761931 0.264052
H20   H     H_    0.864090 0.173729 0.786272 0.254772
H21   H     H_    0.027181 0.176298 0.960104 0.196002
H22   H     H_    0.976979 0.243844 0.915760 0.189039
H23   H     H_    0.448179 0.351128 0.763717 0.263685
H24   H     H_    0.495490 0.559489 0.299265 0.107014
H25   H     H_    0.398683 0.282527 0.721424 0.254870
H26   H     H_    0.364847 0.327012 0.788600 0.255286
H27   H     H_    0.477733 0.256373 0.917104 0.189200
H28   H     H_    0.528189 0.323752 0.961866 0.196457
H29   H     H_    0.398696 0.718275 0.719757 0.255851
H30   H     H_    0.447770 0.649498 0.761748 0.264019
H31   H     H_    0.363974 0.673739 0.785876 0.254638
H32   H     H_    0.526984 0.676266 0.959872 0.195913
H33   H     H_    0.476811 0.743815 0.915520 0.189180
H34   H     H_    0.233240 0.025965 0.433764 0.251629
H35   H     H_    0.117826 0.956074 0.403250 0.103849
H36   H     H_    0.329944 0.029419 0.576692 0.279094
H37   H     H_    0.277398 0.091547 0.499034 0.256007
H38   H     H_    0.409918 0.088096 0.496319 0.188825
H39   H     H_    0.318605 0.057468 0.372565 0.190139
H40   H     H_    0.443352 0.884870 0.434215 0.267060
H41   H     H_    0.437628 0.867051 0.546590 0.249840
H42   H     H_    0.335761 0.860882 0.408734 0.255243
H43   H     H_    0.348888 0.944377 0.526264 0.195230
H44   H     H_    0.297690 0.951460 0.384817 0.185268
H45   H     H_    0.728547 0.555375 0.439849 0.248403
H46   H     H_    0.621288 0.466828 0.399383 0.109641
H47   H     H_    0.818673 0.516893 0.557412 0.267652
H48   H     H_    0.827633 0.590601 0.555327 0.251989
H49   H     H_    0.898948 0.587556 0.467611 0.184542
H50   H     H_    0.803272 0.548988 0.361903 0.183803
H51   H     H_    0.840490 0.389174 0.331308 0.256248
H52   H     H_    0.953305 0.379210 0.462207 0.269463
H53   H     H_    0.846745 0.355084 0.439959 0.257412
H54   H     H_    0.863519 0.434988 0.532560 0.177231
H55   H     H_    0.785922 0.454110 0.394624 0.197249
H56   H     H_    0.332177 0.819751 0.181674 0.150989
H57   H     H_    0.331254 0.179518 0.181443 0.146697
H58   H     H_    0.832622 0.319463 0.181773 0.152014
H59   H     H_    0.831276 0.679563 0.181461 0.146739
H60   H     H_    0.222398 0.857253 0.107747 0.154974
H61   H     H_    0.250463 0.869215 0.821790 0.092953
H62   H     H_    0.221387 0.142291 0.106866 0.152338
H63   H     H_    0.723063 0.357211 0.108440 0.153523
H64   H     H_    0.721509 0.642236 0.106965 0.152171
H65   H     H_    0.155574 0.779157 0.122621 0.145781
H66   H     H_    0.154500 0.220425 0.121907 0.145804
H67   H     H_    0.655856 0.279204 0.122962 0.146565
H68   H     H_    0.654325 0.720288 0.121789 0.145828
H69   H     H_    0.764769 0.242419 0.180511 0.157548
H70   H     H_    0.763496 0.756777 0.180335 0.155399
H71   H     H_    0.264649 0.742509 0.180364 0.157500
H72   H     H_    0.750368 0.630918 0.821884 0.092475
H73   H     H_    0.263711 0.256843 0.180284 0.155381
H74   H     H_    0.873547 0.261912 0.066448 0.161349
H75   H     H_    0.873352 0.737591 0.067508 0.161128
H76   H     H_    0.373675 0.761968 0.066940 0.161092
H77   H     H_    0.373398 0.237558 0.067521 0.161247
H78   H     H_    0.793355 0.187609 0.059009 0.170992
H79   H     H_    0.793093 0.811941 0.060079 0.171114
H80   H     H_    0.293463 0.687598 0.059168 0.170711
H81   H     H_    0.293155 0.311972 0.059869 0.171013
H82   H     H_    0.139762 0.822582 0.820714 0.133225
H83   H     H_    0.750486 0.369144 0.821836 0.092523
H84   H     H_    0.139693 0.177625 0.820439 0.133877
H85   H     H_    0.639529 0.322816 0.820912 0.132704
H86   H     H_    0.639671 0.677581 0.820471 0.133795
H87   H     H_    0.431332 0.870070 0.177174 0.089828
H88   H     H_    0.431137 0.129736 0.177106 0.088573
H89   H     H_    0.931311 0.370234 0.177245 0.091217
H90   H     H_    0.931134 0.629685 0.177141 0.088472
H91   H     H_    0.117509 0.863071 0.902052 0.166467
H92   H     H_    0.117070 0.136970 0.901243 0.166972
H93   H     H_    0.617635 0.363177 0.902702 0.166700
H94   H     H_    0.028484 0.949421 0.592867 0.108847
H95   H     H_    0.617093 0.636953 0.901338 0.166977
H96   H     H_    0.563855 0.250054 0.822688 0.109242
H97   H     H_    0.563933 0.750323 0.822297 0.109857
H98   H     H_    0.063990 0.749898 0.822490 0.109111
H99   H     H_    0.063879 0.250327 0.822277 0.110251
H100  H     H_    0.796406 0.264951 0.918885 0.157444
H101  H     H_    0.796816 0.735018 0.919908 0.157726
H102  H     H_    0.296907 0.764918 0.919362 0.157738
H103  H     H_    0.296943 0.234959 0.919921 0.157792
H104  H     H_    0.712061 0.193324 0.912000 0.153994
H105  H     H_    0.064397 0.095548 0.499647 0.101939
H106  H     H_    0.712337 0.806699 0.912973 0.154263
H107  H     H_    0.212355 0.693314 0.912142 0.154060
H108  H     H_    0.212357 0.306636 0.912779 0.154867
H109  H     H_    0.558949 0.091870 0.619744 0.144928
H110  H     H_    0.572840 0.910446 0.629522 0.170372
H111  H     H_    0.047026 0.591587 0.608342 0.148802
H112  H     H_    0.063405 0.410550 0.622239 0.161851
H113  H     H_    0.662190 0.051537 0.700357 0.175531
H114  H     H_    0.669174 0.955232 0.708937 0.158466
H115  H     H_    0.152735 0.553206 0.696325 0.173439
H116  H     H_    0.529951 0.440467 0.583945 0.107798
H117  H     H_    0.161331 0.454755 0.705076 0.165888
H118  H     H_    0.678673 0.059445 0.562168 0.164697
H119  H     H_    0.693199 0.953889 0.576826 0.158835
H120  H     H_    0.176805 0.558455 0.564155 0.166125
H121  H     H_    0.189669 0.453498 0.576669 0.159873
H122  H     H_    0.562708 0.090649 0.475101 0.152296
H123  H     H_    0.591006 0.911078 0.493737 0.148043
H124  H     H_    0.062331 0.590817 0.473106 0.151089
H125  H     H_    0.087390 0.411091 0.490792 0.148284
H126  H     H_    0.567767 0.088299 0.331120 0.085314
H127  H     H_    0.557432 0.594515 0.512570 0.102509
H128  H     H_    0.566025 0.911822 0.331200 0.084173
H129  H     H_    0.068507 0.588341 0.331033 0.085683
H130  H     H_    0.066911 0.411861 0.331344 0.086982
H131  H     H_    0.420018 0.032302 0.345106 0.136233
H132  H     H_    0.422813 0.960841 0.347729 0.173052
H133  H     H_    0.917976 0.533277 0.340919 0.132491
H134  H     H_    0.921333 0.461863 0.341051 0.184506
H135  H     H_    0.226931 0.912250 0.665787 0.095421
H136  H     H_    0.227944 0.088501 0.667492 0.090344
H137  H     H_    0.726655 0.412293 0.665818 0.094235
H138  H     H_    0.964625 0.903988 0.386432 0.100257
H139  H     H_    0.727464 0.588500 0.667695 0.089282
H140  H     H_    0.503635 0.089247 0.716002 0.100046
H141  H     H_    0.503167 0.910882 0.714976 0.099985
H142  H     H_    0.999107 0.589285 0.712016 0.092484
H143  H     H_    0.998317 0.410704 0.710845 0.104438
H144  H     H_    0.791791 0.910800 0.264839 0.089715
H145  H     H_    0.793389 0.088216 0.264172 0.098221
H146  H     H_    0.292079 0.410939 0.264389 0.090821
H147  H     H_    0.293206 0.588250 0.263369 0.098526
H148  H     H_    0.691100 0.165381 0.176897 0.084148
N1    N     N_R   0.392450 0.103580 0.942190 -0.036771
N2    N     N_R   0.525490 0.971610 0.207550 -0.032086
N3    N     N_R   0.025490 0.528390 0.207550 -0.032214
N4    N     N_R   0.025490 0.471610 0.207550 -0.032461
N5    N     N_R   0.317450 0.971190 0.792000 -0.033430
N6    N     N_R   0.317450 0.028810 0.792000 -0.034367
N7    N     N_R   0.817450 0.471190 0.792000 -0.032912
N8    N     N_R   0.817450 0.528810 0.792000 -0.034014
N9    N     N_R   0.473900 0.028390 0.792280 -0.040399
N10   N     N_R   0.473900 0.971610 0.792280 -0.037566
N11   N     N_R   0.973900 0.528390 0.792280 -0.038044
N12   N     N_R   0.392450 0.896420 0.942190 -0.036410
N13   N     N_R   0.973900 0.471610 0.792280 -0.034241
N14   N     N_R   0.682310 0.971180 0.208170 -0.038486
N15   N     N_R   0.682310 0.028820 0.208170 -0.038152
N16   N     N_R   0.182310 0.471180 0.208170 -0.038408
N17   N     N_R   0.182310 0.528820 0.208170 -0.038195
N18   N     N_R   0.606470 0.103570 0.057210 -0.033042
N19   N     N_R   0.606470 0.896430 0.057210 -0.033619
N20   N     N_R   0.106470 0.603570 0.057210 -0.033046
N21   N     N_R   0.106470 0.396430 0.057210 -0.033586
N22   N     N_R   0.549740 0.896000 0.943240 -0.030028
N23   N     N_R   0.892450 0.603580 0.942190 -0.036978
N24   N     N_R   0.549740 0.104000 0.943240 -0.030885
N25   N     N_R   0.049740 0.396000 0.943240 -0.029772
N26   N     N_R   0.049740 0.604000 0.943240 -0.031848
N27   N     N_R   0.892450 0.396420 0.942190 -0.036469
N28   N     N_R   0.450490 0.896000 0.057360 -0.037649
N29   N     N_R   0.450490 0.104000 0.057360 -0.037497
N30   N     N_R   0.950490 0.396000 0.057360 -0.037382
N31   N     N_R   0.950490 0.604000 0.057360 -0.037306
N32   N     N_R   0.525490 0.028390 0.207550 -0.032133
Ni1   Ni    Ni4+2 0.433780 0.065390 0.868430 0.205689
Ni2   Ni    Ni4+2 0.433780 0.934610 0.868430 0.205785
Ni3   Ni    Ni4+2 0.933780 0.565390 0.868430 0.204073
Ni4   Ni    Ni4+2 0.933780 0.434610 0.868430 0.205575
Ni5   Ni    Ni4+2 0.565800 0.934190 0.131570 0.205358
Ni6   Ni    Ni4+2 0.565800 0.065810 0.131570 0.204261
Ni7   Ni    Ni4+2 0.065800 0.434190 0.131570 0.205141
Ni8   Ni    Ni4+2 0.065800 0.565810 0.131570 0.204073

loop_
_geom_bond_atom_site_label_1
_geom_bond_atom_site_label_2
_ccdc_geom_bond_type
C69   H69   S    
C87   C91   S    
C19   C20   S    
N16   Ni7   S    
N2    Ni5   S    
C59   C126  A    
C5    C119  S    
C52   N23   A    
C79   C99   S    
C1    H1    S    
C27   H34   S    
C72   H66   S    
N19   Ni5   S    
C15   N16   A    
C19   H22   S    
C75   H101  S    
C80   H93   S    
C44   C53   S    
C66   C72   S    
C68   H59   S    
C111  H120  S    
C49   C51   S    
C46   C55   S    
C25   H31   S    
N11   N13   A    
C17   C98   S    
C81   C86   S    
N13   Ni4   S    
C48   C50   S    
C100  C109  S    
C21   C22   S    
C33   H52   S    
C102  C111  S    
C100  C115  S    
C16   H147  S    
C13   C42   A    
C79   H84   S    
C46   C48   S    
C86   C128  S    
C74   N18   A    
C43   H94   S    
N5    Ni2   S    
N21   Ni7   S    
C19   C99   S    
N7    Ni4   S    
C101  C110  S    
C120  H132  S    
N29   Ni6   S    
C103  C112  S    
C1    N1    A    
C77   H77   S    
C78   H91   S    
C112  C119  S    
C113  C120  S    
C78   C82   S    
C75   C86   S    
C125  N8    A    
C27   H37   S    
C55   C57   S    
C76   H102  S    
C9    C34   A    
C101  C115  S    
C20   H18   S    
C39   C85   A    
C83   C126  S    
C46   H127  S    
C91   H78   S    
C7    C64   S    
C39   C118  A    
C41   H61   S    
C11   C35   A    
C103  C116  S    
C34   C115  S    
N22   Ni2   S    
N1    Ni1   S    
C37   C50   S    
N23   N31   A    
C65   C82   S    
N9    Ni1   S    
C49   C53   S    
C4    C104  A    
C122  N5    A    
N17   Ni8   S    
C54   H13   S    
C29   H41   S    
C43   C47   S    
C85   H3    S    
C113  C115  S    
C110  H119  S    
C41   C127  A    
C112  H121  S    
N20   N26   A    
C102  H111  S    
C103  H117  S    
C17   H16   S    
C29   H40   S    
C18   H15   S    
C14   C36   A    
C12   N14   A    
C77   C94   S    
C69   H67   S    
C111  C119  S    
C15   C37   A    
C28   H44   S    
C103  H112  S    
C87   C95   S    
N26   Ni3   S    
N14   Ni5   S    
C20   H20   S    
C10   C35   A    
C52   H72   S    
C40   C89   S    
C78   H82   S    
C118  H6    S    
C70   H70   S    
C125  H139  S    
C105  N2    A    
C6    C123  A    
N8    Ni3   S    
C61   N31   A    
C31   H48   S    
C119  C121  S    
C21   H27   S    
C26   H39   S    
C77   H103  S    
C118  N22   A    
C1    C126  A    
C76   C82   S    
C75   H75   S    
C22   H25   S    
C21   C95   S    
C111  H124  S    
C42   C90   S    
C121  H134  S    
C72   C90   S    
C2    C38   A    
C123  H136  S    
C17   C18   S    
C30   H50   S    
C8    C34   A    
C80   C95   S    
C18   H12   S    
C101  H114  S    
C4    C117  S    
N6    Ni1   S    
C90   C99   S    
C59   N29   A    
C38   C74   A    
C53   C56   S    
C9    H141  S    
C22   H23   S    
C11   H143  S    
C88   C97   S    
C63   H83   S    
C109  H118  S    
C114  C116  S    
C80   H85   S    
C24   H9    S    
C45   C64   S    
C2    H7    S    
C89   C98   S    
N7    N8    A    
C92   H79   S    
C44   H105  S    
C58   H87   S    
C66   H62   S    
C47   H10   S    
C19   H21   S    
C89   C93   S    
C28   C113  S    
C100  H113  S    
C70   H68   S    
C25   H30   S    
N21   N25   A    
C106  N3    A    
C93   H80   S    
C99   H99   S    
C65   H56   S    
C97   H97   S    
N20   Ni8   S    
C33   H51   S    
C32   H55   S    
C80   C84   S    
N1    N29   A    
C52   C128  A    
C109  C117  S    
N28   Ni5   S    
N10   Ni2   S    
C26   C27   S    
C50   C54   S    
N30   Ni7   S    
C28   C29   S    
C31   H45   S    
C30   C31   S    
C122  H135  S    
C71   H65   S    
C85   N19   A    
C124  H137  S    
N14   N15   A    
C66   C83   S    
C114  C121  S    
N24   Ni1   S    
N25   Ni4   S    
C106  H129  S    
N3    N4    A    
C42   C107  A    
C69   C87   S    
C16   C37   A    
C95   H96   S    
C24   N26   A    
C3    C60   A    
C65   H60   S    
N3    Ni8   S    
C39   C88   S    
C40   C96   A    
C110  C117  S    
C90   C94   S    
N27   N30   A    
C5    C106  A    
C109  H122  S    
C61   H90   S    
C107  N21   A    
C117  C120  S    
C59   H88   S    
C17   H17   S    
N9    N10   A    
C76   C93   S    
C35   C116  S    
C7    C125  A    
C45   H116  S    
N32   Ni6   S    
C8    N9    A    
C33   H53   S    
N2    N32   A    
C30   C114  S    
C45   C48   S    
C23   H33   S    
C12   H144  S    
C2    N24   A    
C123  N6    A    
C73   H100  S    
C71   H71   S    
C3    C63   A    
C120  H131  S    
C73   H74   S    
C16   N17   A    
C38   C87   S    
C32   C33   S    
C6    C62   S    
C26   C113  S    
C107  H5    S    
C79   C83   S    
C43   C51   S    
C79   H92   S    
C61   C128  A    
C60   N30   A    
C57   H46   S    
C11   N13   A    
C10   H142  S    
C66   H57   S    
C3    C84   S    
C68   H64   S    
C102  H115  S    
C105  H128  S    
C36   C49   S    
C43   C62   S    
N27   Ni4   S    
C5    C108  A    
C63   N27   A    
C68   C86   S    
C108  H130  S    
C7    C124  A    
C8    H140  S    
C70   C88   S    
C55   H24   S    
C47   C49   S    
C31   H47   S    
C93   H107  S    
C56   H35   S    
C104  N32   A    
C9    N10   A    
N15   Ni6   S    
C32   H54   S    
N16   N17   A    
C67   H63   S    
C77   C83   S    
C51   H138  S    
C104  H126  S    
C51   C56   S    
C92   H106  S    
C121  H133  S    
N18   Ni6   S    
C21   H28   S    
C88   C92   S    
C78   C98   S    
C29   H42   S    
C12   C36   A    
C41   N12   A    
C73   C84   S    
C44   C47   S    
C96   H4    S    
C67   C84   S    
C13   N25   A    
N12   N28   A    
N12   Ni2   S    
N19   N22   A    
C81   H95   S    
C18   H14   S    
C73   C91   S    
C44   C62   S    
N5    N6    A    
C65   C71   S    
C46   C64   S    
C67   C69   S    
C15   H146  S    
C96   N20   A    
N18   N24   A    
C27   H36   S    
C28   H43   S    
C81   H86   S    
C71   C89   S    
C23   H32   S    
C20   H19   S    
C100  H109  S    
C75   C92   S    
N23   Ni3   S    
C23   C97   S    
C45   C54   S    
C25   H29   S    
C13   H8    S    
C6    C122  A    
C14   N15   A    
C57   C64   S    
C22   H26   S    
C124  N7    A    
C26   H38   S    
C48   H11   S    
C101  H110  S    
C10   N11   A    
C76   H76   S    
C53   H2    S    
C110  H123  S    
C4    C105  A    
C50   C55   S    
C91   H104  S    
C32   C114  S    
C60   H89   S    
C14   H145  S    
C94   H108  S    
C112  H125  S    
C81   C97   S    
N4    Ni7   S    
C74   H148  S    
C24   C40   A    
C30   H49   S    
C56   C62   S    
C23   C25   S    
C58   N28   A    
C82   C127  S    
C67   H58   S    
C102  C116  S    
C58   C127  A    
C94   H81   S    
C68   C70   S    
N31   Ni8   S    
N11   Ni3   S    
C108  N4    A    
C54   C57   S    
C72   H73   S    
C98   H98   S    
