data_mof_unit_66876.cif
_audit_creation_date              2013-03-05T15:57:22-0500
_audit_creation_method            fapswitch 2.2
_symmetry_space_group_name_H-M    P1
_symmetry_Int_Tables_number       1
_space_group_crystal_system       triclinic
_cell_length_a                    17.218261
_cell_length_b                    18.488976
_cell_length_c                    8.357537
_cell_angle_alpha                 90.0
_cell_angle_beta                  101.912471
_cell_angle_gamma                 90.021239
_cell_volume                      2603.30653795

loop_
_atom_site_label
_atom_site_type_symbol
_atom_site_description
_atom_site_fract_x
_atom_site_fract_y
_atom_site_fract_z
_atom_type_partial_charge
P1    P     P_3+3 0.834140 0.419320 0.003900 0.502366
P2    P     P_3+3 0.834140 0.580680 0.503900 0.498545
P3    P     P_3+3 0.334140 0.919320 0.003900 0.498205
P4    P     P_3+3 0.334140 0.080680 0.503900 0.501876
O1    O     O_2   0.841960 0.394640 0.833410 -0.327543
O2    O     O_2   0.841960 0.605360 0.333410 -0.333606
O3    O     O_2   0.341960 0.894640 0.833410 -0.331574
O4    O     O_2   0.341960 0.105360 0.333410 -0.333339
O5    O     O_3   0.907950 0.463080 0.102990 -0.428179
O6    O     O_3   0.907950 0.536920 0.602990 -0.425368
O7    O     O_3   0.407950 0.963080 0.102990 -0.427844
O8    O     O_3   0.407950 0.036920 0.602990 -0.424714
O9    O     O_3   0.972780 0.329600 0.629720 -0.372357
O10   O     O_3   0.972780 0.670400 0.129720 -0.368499
O11   O     O_3   0.472780 0.829600 0.629720 -0.371930
O12   O     O_3   0.472780 0.170400 0.129720 -0.372013
O13   O     O_2   0.832710 0.284090 0.675982 -0.353916
O14   O     O_2   0.833152 0.716680 0.173943 -0.351996
O15   O     O_2   0.332555 0.783790 0.673234 -0.352625
O16   O     O_2   0.333021 0.216595 0.174249 -0.348843
O17   O     O_3   0.753978 0.479298 0.966464 -0.520722
O18   O     O_3   0.753776 0.520875 0.467651 -0.518582
O19   O     O_3   0.254125 0.979384 0.966692 -0.518072
O20   O     O_3   0.255093 0.019537 0.469059 -0.512974
O21   O     O_3   0.931263 0.182560 0.662809 -0.520363
O22   O     O_3   0.932419 0.818511 0.165613 -0.522587
O23   O     O_3   0.431634 0.681998 0.664612 -0.524980
O24   O     O_3   0.431843 0.318139 0.163639 -0.525235
H1    H     H_    0.052937 0.177988 0.702487 0.134436
H2    H     H_    0.046862 0.821812 0.125769 0.114565
H3    H     H_    0.549452 0.680425 0.647130 0.118527
H4    H     H_    0.549852 0.320620 0.148123 0.118749
C1    C     C_3   0.998030 0.080033 0.591644 -0.996228
C2    C     C_3   0.994179 0.928616 0.117312 -0.927667
C3    C     C_3   0.495852 0.574084 0.614906 -0.949865
C4    C     C_3   0.494727 0.426158 0.109971 -0.953059
H5    H     H_    0.541742 0.549983 0.555945 0.275618
H6    H     H_    0.540562 0.450246 0.050823 0.275295
H7    H     H_    0.051732 0.059919 0.553480 0.283352
H8    H     H_    0.038086 0.953916 0.054502 0.269466
H9    H     H_    0.994934 0.054618 0.710637 0.274704
H10   H     H_    0.012671 0.938274 0.251071 0.273158
H11   H     H_    0.510089 0.561173 0.747583 0.273020
H12   H     H_    0.508238 0.440274 0.242063 0.273321
P5    P     P_3+3 0.165830 0.418670 0.685610 0.450397
P6    P     P_3+3 0.165830 0.581330 0.185610 0.452725
P7    P     P_3+3 0.665830 0.918670 0.685610 0.457515
P8    P     P_3+3 0.665830 0.081330 0.185610 0.454410
P9    P     P_3+3 0.095066 0.260487 0.105036 0.534495
P10   P     P_3+3 0.097010 0.738422 0.605631 0.531820
P11   P     P_3+3 0.596978 0.761695 0.106021 0.528583
P12   P     P_3+3 0.597300 0.238136 0.604418 0.523689
O25   O     O_2   0.157990 0.394030 0.856030 -0.375430
O26   O     O_2   0.157990 0.605970 0.356030 -0.373808
O27   O     O_2   0.657990 0.894030 0.856030 -0.362383
O28   O     O_2   0.657990 0.105970 0.356030 -0.382685
O29   O     O_3   0.027110 0.329490 0.059550 -0.373546
O30   O     O_3   0.027110 0.670510 0.559550 -0.400056
O31   O     O_3   0.527110 0.829490 0.059550 -0.401830
O32   O     O_3   0.527110 0.170510 0.559550 -0.402267
O33   O     O_2   0.152327 0.268073 0.985616 -0.350194
O34   O     O_2   0.154880 0.730393 0.487694 -0.348424
O35   O     O_2   0.654600 0.769205 0.987399 -0.351417
O36   O     O_2   0.653571 0.231041 0.483027 -0.355369
O37   O     O_3   0.248813 0.475542 0.722876 -0.580587
O38   O     O_3   0.248497 0.524099 0.222997 -0.581071
O39   O     O_3   0.750515 0.972958 0.731840 -0.576638
O40   O     O_3   0.748291 0.023885 0.221750 -0.583886
O41   O     O_3   0.041084 0.181522 0.043000 -0.461839
O42   O     O_3   0.047868 0.820224 0.548845 -0.467714
O43   O     O_3   0.547223 0.680107 0.050484 -0.469152
O44   O     O_3   0.547534 0.319929 0.551511 -0.467798
C5    C     C_3   0.983037 0.172983 0.138233 0.435253
C6    C     C_3   0.972457 0.817544 0.588812 0.532797
C7    C     C_3   0.471525 0.684067 0.088803 0.530167
C8    C     C_3   0.471646 0.315431 0.588656 0.531415
H13   H     H_    0.960101 0.224876 0.176251 0.049622
H14   H     H_    0.929944 0.790743 0.488110 0.121426
H15   H     H_    0.429835 0.711141 0.987222 0.122778
H16   H     H_    0.430339 0.288360 0.486418 0.123419
H17   H     H_    0.007680 0.141005 0.247838 0.112776
H18   H     H_    0.972798 0.787837 0.704490 -0.006302
H19   H     H_    0.471833 0.714027 0.204088 -0.001220
H20   H     H_    0.471836 0.285193 0.703514 -0.000185
C9    C     C_3   0.913260 0.131069 0.042589 -0.957714
C10   C     C_3   0.944197 0.894227 0.609659 -1.001517
C11   C     C_3   0.441875 0.608004 0.109649 -1.006468
C12   C     C_3   0.441541 0.391303 0.609657 -1.007188
H21   H     H_    0.377804 0.609101 0.113269 0.231665
H22   H     H_    0.377527 0.389797 0.613702 0.231914
H23   H     H_    0.879369 0.166272 0.945342 0.283112
H24   H     H_    0.880287 0.893965 0.614910 0.232018
H25   H     H_    0.934961 0.082115 0.988847 0.268097
H26   H     H_    0.953491 0.928365 0.506373 0.275045
H27   H     H_    0.451195 0.573878 0.006482 0.272571
H28   H     H_    0.450455 0.425553 0.506315 0.272225
C13   C     C_3   0.228164 0.456213 0.276124 0.363725
C14   C     C_3   0.228710 0.543641 0.775057 0.361922
C15   C     C_3   0.727687 0.955877 0.273721 0.361837
C16   C     C_3   0.731738 0.045814 0.748493 0.357777
H29   H     H_    0.228525 0.459405 0.408178 0.108247
H30   H     H_    0.228557 0.540760 0.906978 0.108260
H31   H     H_    0.725972 0.958983 0.404929 0.093931
H32   H     H_    0.739774 0.058421 0.880475 0.092732
H33   H     H_    0.169773 0.436305 0.208238 0.128589
H34   H     H_    0.170636 0.563715 0.706025 0.129529
H35   H     H_    0.670178 0.935596 0.202393 0.134743
H36   H     H_    0.671268 0.062030 0.684920 0.137509
C17   C     C_3   0.290270 0.402028 0.248590 -0.878897
C18   C     C_3   0.291349 0.597365 0.747973 -0.879705
C19   C     C_3   0.791043 0.902193 0.250424 -0.875427
C20   C     C_3   0.789940 0.089763 0.676326 -0.888909
H37   H     H_    0.350285 0.425469 0.287777 0.271747
H38   H     H_    0.351147 0.573671 0.788432 0.271698
H39   H     H_    0.850557 0.926070 0.293404 0.268044
H40   H     H_    0.851033 0.076230 0.739462 0.275755
H41   H     H_    0.286221 0.351553 0.317999 0.221276
H42   H     H_    0.287328 0.648091 0.816541 0.221051
H43   H     H_    0.786442 0.851622 0.319060 0.219175
H44   H     H_    0.778123 0.148309 0.687069 0.252173
H45   H     H_    0.281313 0.389080 0.116787 0.269614
H46   H     H_    0.282993 0.609897 0.616031 0.269432
H47   H     H_    0.784181 0.889344 0.118908 0.271257
H48   H     H_    0.785271 0.074699 0.546741 0.264551
Ba1   Ba    Ba6+2 0.000000 0.447380 0.844850 1.573937
Ba2   Ba    Ba6+2 0.000000 0.552620 0.344850 1.572134
Ba3   Ba    Ba6+2 0.500000 0.947380 0.844850 1.570024
Ba4   Ba    Ba6+2 0.500000 0.052620 0.344850 1.568122
C21   C     C_3   0.775744 0.545247 0.907387 0.491183
C22   C     C_3   0.774627 0.455326 0.405413 0.493890
C23   C     C_3   0.276158 0.045245 0.907728 0.508617
C24   C     C_3   0.276571 0.954331 0.406369 0.495124
H49   H     H_    0.813812 0.537375 0.817184 0.068255
H50   H     H_    0.812297 0.463720 0.314673 0.067195
H51   H     H_    0.314830 0.037344 0.818637 0.066000
H52   H     H_    0.313961 0.963241 0.315364 0.067269
H53   H     H_    0.808014 0.578309 0.010798 0.123584
H54   H     H_    0.806926 0.421400 0.507181 0.120548
H55   H     H_    0.308007 0.078408 0.011350 0.123158
H56   H     H_    0.309386 0.920588 0.507907 0.120703
C25   C     C_3   0.700016 0.584321 0.824886 -0.828937
C26   C     C_3   0.698320 0.417213 0.322410 -0.829625
C27   C     C_3   0.200683 0.084142 0.823388 -0.846625
C28   C     C_3   0.200494 0.915583 0.324115 -0.821857
H57   H     H_    0.679859 0.563847 0.698539 0.261519
H58   H     H_    0.677821 0.438974 0.197290 0.262918
H59   H     H_    0.182903 0.065008 0.695622 0.258867
H60   H     H_    0.179657 0.936775 0.198552 0.262282
H61   H     H_    0.710126 0.643371 0.821481 0.219412
H62   H     H_    0.707845 0.358187 0.315749 0.215590
H63   H     H_    0.210151 0.143370 0.823881 0.220055
H64   H     H_    0.210343 0.856568 0.318895 0.217546
H65   H     H_    0.651777 0.574792 0.892267 0.302745
H66   H     H_    0.650581 0.426197 0.391387 0.303464
H67   H     H_    0.151069 0.072958 0.886203 0.303430
H68   H     H_    0.152736 0.924617 0.392949 0.303696
O45   O     O_3   0.092100 0.536880 0.086720 -0.403269
O46   O     O_3   0.092100 0.463120 0.586720 -0.403704
O47   O     O_3   0.592100 0.036880 0.086720 -0.396244
O48   O     O_3   0.592100 0.963120 0.586720 -0.409035
P13   P     P_3+3 0.897809 0.735734 0.077941 0.446706
P14   P     P_3+3 0.896676 0.265551 0.578131 0.454033
P15   P     P_3+3 0.397366 0.235267 0.077309 0.445541
P16   P     P_3+3 0.397320 0.764763 0.577544 0.444920
C29   C     C_3   0.999963 0.161933 0.609189 0.503061
C30   C     C_3   0.987895 0.847768 0.082088 0.429099
C31   C     C_3   0.491579 0.655482 0.589706 0.436632
C32   C     C_3   0.491781 0.344540 0.088544 0.438139
H69   H     H_    0.005064 0.186580 0.490766 -0.020145
H70   H     H_    0.969212 0.841038 0.947754 0.040858
H71   H     H_    0.479071 0.665664 0.456094 0.041219
H72   H     H_    0.480083 0.333104 0.955481 0.041280
H73   H     H_    0.437388 0.549961 0.559370 0.258268
H74   H     H_    0.436024 0.449233 0.052359 0.258885
H75   H     H_    0.945132 0.063711 0.498314 0.255215
H76   H     H_    0.935464 0.954558 0.072184 0.250943
H77   H     H_    0.475141 0.583785 0.224903 0.289803
H78   H     H_    0.474830 0.415680 0.724742 0.290004
H79   H     H_    0.873536 0.113902 0.124599 0.224373
H80   H     H_    0.978334 0.918297 0.724189 0.286909
C33   C     C_R   0.138779 0.675298 0.917130 -0.561928
C34   C     C_R   0.137327 0.323732 0.417444 -0.551325
C35   C     C_R   0.640956 0.174042 0.914526 -0.565630
C36   C     C_R   0.638521 0.824464 0.417959 -0.566254
C37   C     C_R   0.861142 0.322674 0.263015 -0.502757
C38   C     C_R   0.862568 0.678559 0.761962 -0.501218
C39   C     C_R   0.362521 0.821497 0.261617 -0.507039
C40   C     C_R   0.362043 0.178368 0.761444 -0.507675
C41   C     C_R   0.791027 0.212677 0.296613 -0.175928
C42   C     C_R   0.792241 0.788471 0.795934 -0.169632
C43   C     C_R   0.292392 0.711397 0.295340 -0.169224
C44   C     C_R   0.291561 0.288121 0.795269 -0.171216
C45   C     C_R   0.847574 0.264992 0.359934 0.190137
C46   C     C_R   0.849003 0.736307 0.859066 0.180706
C47   C     C_R   0.348957 0.763758 0.358633 0.187999
C48   C     C_R   0.348364 0.235979 0.858544 0.188570
C49   C     C_R   0.813650 0.334152 0.108235 0.292537
C50   C     C_R   0.814196 0.666285 0.608185 0.274767
C51   C     C_R   0.314161 0.833708 0.107921 0.273386
C52   C     C_R   0.313745 0.166095 0.607699 0.274727
C53   C     C_R   0.751803 0.282976 0.044090 -0.217804
C54   C     C_R   0.751780 0.717048 0.544900 -0.228573
C55   C     C_R   0.251876 0.782828 0.044484 -0.225215
C56   C     C_R   0.251251 0.216735 0.543948 -0.216764
C57   C     C_R   0.243272 0.719086 0.138502 -0.080829
C58   C     C_R   0.242418 0.280374 0.638291 -0.084133
C59   C     C_R   0.742790 0.219578 0.138736 -0.070656
C60   C     C_R   0.743044 0.780685 0.639213 -0.079108
C61   C     C_R   0.183417 0.666542 0.075595 0.288974
C62   C     C_R   0.182615 0.332961 0.575478 0.285062
C63   C     C_R   0.683893 0.166316 0.074769 0.297087
C64   C     C_R   0.683096 0.833134 0.576520 0.289765
C65   C     C_R   0.149616 0.734852 0.822060 0.105966
C66   C     C_R   0.148003 0.264108 0.321975 0.071621
C67   C     C_R   0.651367 0.233872 0.819775 0.101540
C68   C     C_R   0.649538 0.765131 0.322520 0.108799
C69   C     C_R   0.198498 0.791922 0.890960 0.291035
C70   C     C_R   0.198221 0.207720 0.389562 0.285058
C71   C     C_R   0.699270 0.291475 0.889398 0.288128
C72   C     C_R   0.698495 0.708085 0.391085 0.291377
H81   H     H_    0.286558 0.665758 0.371730 0.168353
H82   H     H_    0.285685 0.333698 0.871767 0.169498
H83   H     H_    0.784866 0.167499 0.373387 0.171216
H84   H     H_    0.786295 0.834020 0.872486 0.171309
H85   H     H_    0.096159 0.634271 0.865233 0.182623
H86   H     H_    0.094480 0.364613 0.365950 0.181660
H87   H     H_    0.599393 0.132349 0.861672 0.184026
H88   H     H_    0.595946 0.865505 0.366077 0.182911
H89   H     H_    0.906420 0.361746 0.313510 0.159277
H90   H     H_    0.908089 0.639696 0.812161 0.162968
H91   H     H_    0.407970 0.860442 0.311919 0.163448
H92   H     H_    0.407690 0.139611 0.811618 0.163689
N1    N     N_R   0.680575 0.361024 0.817775 0.267841
O49   O     O_R   0.626223 0.398931 0.866242 -0.448758
O50   O     O_R   0.696904 0.375654 0.676341 -0.342924
N2    N     N_R   0.680377 0.638551 0.319020 0.267936
O51   O     O_R   0.625777 0.600435 0.366175 -0.449164
O52   O     O_R   0.696972 0.624417 0.177607 -0.344032
N3    N     N_R   0.179872 0.861651 0.820462 0.267443
O53   O     O_R   0.125838 0.899522 0.870181 -0.452295
O54   O     O_R   0.196092 0.876721 0.679148 -0.340916
N4    N     N_R   0.183697 0.138763 0.312489 0.258838
O55   O     O_R   0.134382 0.095342 0.362253 -0.459449
O56   O     O_R   0.198467 0.128614 0.167985 -0.352951

loop_
_geom_bond_atom_site_label_1
_geom_bond_atom_site_label_2
_geom_bond_distance
_ccdc_geom_bond_type
P11   C68   1.849573 S    
C24   C28   1.526186 S    
C15   H31   1.104542 S    
C12   H28   1.106872 S    
P1    O17   1.748020 S    
C14   C18   1.516957 S    
C26   H58   1.107999 S    
P3    O19   1.747086 S    
N3    O53   1.299466 A    
C2    H10   1.111738 S    
C16   H32   1.107772 S    
C28   H60   1.108221 S    
O24   P15   1.744469 S    
C7    H19   1.110442 S    
C18   H42   1.108688 S    
C9    H23   1.108684 S    
P16   C47   1.847181 S    
C25   H61   1.106777 S    
O9    P14   1.752406 S    
O8    Ba3   2.831595 S    
C22   H50   1.105845 S    
C4    H74   1.111250 S    
C55   C57   1.440907 A    
C1    H7    1.103185 S    
P1    O1    1.528356 D    
C44   C48   1.397433 A    
O38   C13   1.399626 S    
C33   C61   1.396706 A    
C3    H5    1.107577 S    
P1    Ba1   3.428979 S    
O37   C14   1.399258 S    
C20   H48   1.104985 S    
P3    O3    1.528356 D    
O29   Ba1   2.800632 S    
P4    O20   1.746546 S    
O14   P13   1.541336 D    
P3    Ba3   3.428979 S    
C24   H52   1.105522 S    
C36   C68   1.392213 A    
C21   C25   1.525471 S    
Ba1   O45   2.830880 S    
C40   C52   1.397435 A    
O2    Ba2   2.873905 S    
O31   Ba3   2.800632 S    
C4    C32   1.519210 S    
P9    O29   1.720100 S    
N2    O51   1.299321 A    
C19   H43   1.108272 S    
C43   C57   1.412831 A    
C54   C72   1.426448 A    
P4    O4    1.528327 D    
C58   C62   1.434847 A    
O28   Ba4   2.876606 S    
C10   H26   1.107281 S    
C33   C65   1.392689 A    
P5    O37   1.749103 S    
C9    H25   1.109103 S    
O4    Ba4   2.873905 S    
C72   N2    1.426531 S    
P5    Ba1   3.431559 S    
C11   H27   1.106559 S    
P2    O18   1.747844 S    
C3    C31   1.519340 S    
P7    Ba3   3.431559 S    
O41   C5    1.409127 S    
P4    O8    1.588029 S    
O6    Ba1   2.831595 S    
C3    H11   1.111062 S    
N1    O49   1.299262 A    
C43   H81   1.075231 S    
P4    C52   1.869767 S    
C9    H79   1.109829 S    
O9    Ba1   2.801028 S    
C27   H63   1.106968 S    
P5    O25   1.527645 D    
P9    O41   1.750517 S    
P7    C64   1.879613 S    
O18   C22   1.394861 S    
C59   C63   1.435059 A    
C40   H92   1.082317 S    
C8    H20   1.110284 S    
C56   C58   1.441836 A    
P2    O2    1.528327 D    
P11   O43   1.749203 S    
C15   H35   1.110199 S    
C51   C55   1.442460 A    
C1    H75   1.111554 S    
C5    H17   1.099292 S    
C60   C64   1.434504 A    
P6    Ba2   3.431232 S    
C36   C64   1.396741 A    
C42   C46   1.396990 A    
P7    O48   1.593029 S    
Ba2   O46   2.831567 S    
O12   P15   1.755751 S    
C29   H69   1.109404 S    
P8    O47   1.592543 S    
C1    C29   1.521025 S    
C16   H36   1.108192 S    
P9    O33   1.547266 D    
C55   C69   1.425672 A    
C19   H47   1.106749 S    
P10   O30   1.726548 S    
C8    H16   1.111443 S    
O11   P16   1.755081 S    
O32   Ba4   2.800362 S    
O5    Ba2   2.830908 S    
P11   O35   1.546765 D    
C1    H9    1.111092 S    
H2    C30   1.114355 S    
P12   O36   1.546316 D    
C35   H87   1.081926 S    
C20   H44   1.108552 S    
C23   H55   1.109224 S    
C65   C69   1.397360 A    
Ba1   O46   2.943728 S    
C34   H86   1.081710 S    
C31   H71   1.108834 S    
P10   C65   1.849394 S    
C33   H85   1.081781 S    
C14   H30   1.104362 S    
O16   P15   1.540560 D    
P9    C66   1.854789 S    
P12   C67   1.849508 S    
C26   H66   1.109644 S    
O19   C23   1.395137 S    
C39   C51   1.397463 A    
C3    H73   1.111062 S    
C28   H68   1.109255 S    
C27   H59   1.106370 S    
C2    H76   1.112349 S    
O42   C6    1.406769 S    
P12   O44   1.749646 S    
C67   C71   1.397978 A    
O23   P16   1.744536 S    
C11   H77   1.108536 S    
C13   C17   1.517414 S    
O20   C24   1.394641 S    
N4    O56   1.298170 A    
P8    C63   1.882145 S    
C57   C61   1.434547 A    
O21   P14   1.742586 S    
C52   C56   1.443058 A    
C15   C19   1.517096 S    
P6    O26   1.527675 D    
C35   C67   1.393328 A    
C10   H80   1.107838 S    
N4    O55   1.297601 A    
C53   C59   1.440241 A    
P1    O5    1.587548 S    
O44   C8    1.406432 S    
N3    O54   1.298694 A    
C6    C10   1.520769 S    
P3    C51   1.871541 S    
C49   C53   1.442300 A    
N1    O50   1.298684 A    
O17   C21   1.395371 S    
O25   Ba1   2.877299 S    
O39   C16   1.399034 S    
C21   H49   1.105989 S    
C50   C54   1.442809 A    
P2    Ba2   3.429299 S    
C42   C60   1.412701 A    
H3    C31   1.112727 S    
O30   Ba2   2.800362 S    
H4    C32   1.112690 S    
C66   C70   1.397378 A    
Ba1   Ba2   4.609572 S    
P10   O34   1.546614 D    
C2    H8    1.108816 S    
C4    H12   1.111266 S    
P11   O31   1.725529 S    
C36   H88   1.081831 S    
O1    Ba1   2.873220 S    
Ba3   Ba4   4.609572 S    
C22   H54   1.109551 S    
Ba3   O47   2.830880 S    
C18   H38   1.105881 S    
C20   H40   1.103906 S    
C23   C27   1.524925 S    
Ba4   O48   2.831567 S    
P7    O27   1.527645 D    
C6    H18   1.110883 S    
Ba2   O45   2.943845 S    
C7    C11   1.518191 S    
P8    O28   1.527675 D    
C8    C12   1.518364 S    
P15   C48   1.848794 S    
O22   C30   1.402577 S    
P4    Ba4   3.429299 S    
C12   H22   1.110007 S    
C39   C47   1.389083 A    
P2    C50   1.872588 S    
C53   C71   1.425352 A    
C44   C58   1.413975 A    
C39   H91   1.082307 S    
C38   C46   1.389806 A    
P1    C49   1.868421 S    
P5    O46   1.593029 S    
C68   C72   1.397363 A    
C37   C45   1.387806 A    
O12   Ba4   2.801298 S    
C14   H34   1.110209 S    
O27   Ba3   2.877299 S    
C19   H39   1.105300 S    
C17   H41   1.108569 S    
C41   H83   1.071778 S    
P6    O38   1.749530 S    
C16   C20   1.509063 S    
C38   H90   1.082277 S    
C17   H37   1.105833 S    
C24   H56   1.109465 S    
P6    C61   1.879840 S    
C37   H89   1.082351 S    
O22   P13   1.747389 S    
C23   H51   1.106281 S    
P5    C62   1.884690 S    
O10   Ba2   2.801298 S    
P8    O40   1.749082 S    
C27   H67   1.110479 S    
P6    O45   1.592543 S    
O21   C29   1.401682 S    
C26   H62   1.106752 S    
O10   P13   1.755943 S    
C4    H6    1.107406 S    
O7    Ba4   2.830908 S    
P10   O42   1.750378 S    
O40   C15   1.399578 S    
C13   H33   1.110144 S    
C5    C9    1.511889 S    
C28   H64   1.106542 S    
C10   H24   1.110320 S    
C18   H46   1.106747 S    
O43   C7    1.406826 S    
O26   Ba2   2.876606 S    
C25   H65   1.109522 S    
C7    H15   1.111424 S    
P8    Ba4   3.431232 S    
C41   C59   1.412356 A    
C34   C62   1.398693 A    
P14   C45   1.844955 S    
C25   H57   1.107878 S    
C30   H70   1.109190 S    
N2    O52   1.298541 A    
P13   C46   1.848747 S    
H1    C29   1.110974 S    
O15   P16   1.541205 D    
C70   N4    1.426962 S    
C22   C26   1.525480 S    
C43   C47   1.397231 A    
P3    O7    1.587548 S    
O13   P14   1.539947 D    
O24   C32   1.401529 S    
C44   H82   1.075101 S    
O3    Ba3   2.873220 S    
C41   C45   1.396497 A    
C42   H84   1.075232 S    
C32   H72   1.108819 S    
C21   H53   1.109442 S    
C40   C48   1.388428 A    
P12   O32   1.725210 S    
C6    H14   1.111350 S    
C56   C70   1.428231 A    
C71   N1    1.426959 S    
C34   C66   1.395128 A    
C11   H21   1.110019 S    
C5    H13   1.108835 S    
C69   N3    1.426325 S    
C38   C50   1.398179 A    
C54   C60   1.441299 A    
O11   Ba3   2.801028 S    
C17   H45   1.106500 S    
C37   C49   1.396606 A    
C2    C30   1.522992 S    
C35   C63   1.397085 A    
C12   H78   1.108602 S    
P7    O39   1.746201 S    
C13   H29   1.103955 S    
Ba4   O47   2.943845 S    
O23   C31   1.401690 S    
Ba3   O48   2.943728 S    
P2    O6    1.588029 S    
