data_mof_unit_67514.cif
_audit_creation_date              2012-12-10T16:47:25-0500
_audit_creation_method            fapswitch 2.2
_symmetry_space_group_name_H-M    P1
_symmetry_Int_Tables_number       1
_space_group_crystal_system       triclinic
_cell_length_a                    10.592755
_cell_length_b                    8.75091
_cell_length_c                    7.523505
_cell_angle_alpha                 103.04231
_cell_angle_beta                  94.921302
_cell_angle_gamma                 94.23478
_cell_volume                      673.77758587

loop_
_atom_site_label
_atom_site_type_symbol
_atom_type_description
_atom_site_fract_x
_atom_site_fract_y
_atom_site_fract_z
_atom_type_partial_charge
C1    C     C_R   0.492161 0.200090 0.453851 0.855554
C2    C     C_R   0.504335 0.799480 0.546243 0.830971
C3    C     C_R   0.259709 0.498827 0.500839 0.816023
C4    C     C_R   0.740329 0.500662 0.499075 0.826303
C5    C     C_3   0.053157 0.533251 0.675153 -0.169319
C6    C     C_3   0.947030 0.465126 0.324434 -0.165991
C7    C     C_3   0.955159 0.390637 0.585638 -0.199900
C8    C     C_3   0.045008 0.607755 0.414001 -0.205554
C9    C     C_3   0.877091 0.500253 0.497426 -0.074163
C10   C     C_3   0.123020 0.498322 0.502285 -0.069677
C11   C     C_3   0.973072 0.641864 0.586290 0.199504
C12   C     C_3   0.027238 0.356550 0.413372 0.204469
C13   C     C_2   0.472770 0.031950 0.432089 0.000558
C14   C     C_2   0.518137 0.967319 0.569426 -0.035664
Cu1   Cu    Cu3+1 0.514140 0.517380 0.684380 1.056712
Cu2   Cu    Cu3+1 0.485860 0.482620 0.315620 1.051692
H1    H     H_    0.915556 0.301317 0.655066 0.187962
H2    H     H_    0.084622 0.697083 0.344585 0.179405
H3    H     H_    0.098628 0.561535 0.818756 0.187096
H4    H     H_    0.901558 0.436868 0.180835 0.186440
N1    N     N_2   0.464560 0.456420 0.038510 0.005151
N2    N     N_2   0.535440 0.543580 0.961490 0.011616
O1    O     O_R   0.509190 0.286130 0.619780 -0.547884
O2    O     O_R   0.490810 0.713870 0.380220 -0.548182
O3    O     O_R   0.485310 0.256770 0.308360 -0.588395
O4    O     O_R   0.514690 0.743230 0.691640 -0.580498
O5    O     O_R   0.328790 0.514640 0.655680 -0.577029
O6    O     O_R   0.671210 0.485360 0.344320 -0.576856
O7    O     O_R   0.304910 0.485280 0.344260 -0.569664
O8    O     O_R   0.695090 0.514720 0.655740 -0.566051
I1    I     I_    0.933348 0.872074 0.721877 -0.332483
I2    I     I_    0.071344 0.127435 0.279606 -0.338919
I3    I     I_    0.319086 0.288265 0.899001 -0.197890
I4    I     I_    0.679429 0.713635 0.101457 -0.161568
N3    N     N_3   0.396968 0.937960 0.269733 -0.542234
H5    H     H_    0.374122 0.004667 0.174640 0.256641
H6    H     H_    0.310531 0.899188 0.310103 0.227943
N4    N     N_3   0.588878 0.060277 0.735576 -0.544089
H7    H     H_    0.542501 0.041947 0.847276 0.258929
H8    H     H_    0.679044 0.020430 0.747076 0.249039

loop_
_geom_bond_atom_site_label_1
_geom_bond_atom_site_label_2
_ccdc_geom_bond_type
Cu2   O6    S    
N4    H8    S    
C8    C10   S    
C1    O1    A    
Cu2   N1    S    
C5    H3    S    
C14   N4    S    
C6    H4    S    
Cu1   O5    S    
N3    H5    S    
C6    C9    S    
C3    O5    A    
Cu2   O7    S    
C11   I1    S    
C5    C10   S    
C2    O4    A    
C3    C10   S    
C13   C14   D    
C12   I2    S    
C1    O3    A    
C9    C11   S    
C7    C12   S    
C10   C12   S    
C8    C11   S    
C2    C14   S    
C6    C12   S    
Cu1   O1    S    
N3    H6    S    
C5    C11   S    
C5    C7    S    
Cu1   N2    S    
C2    O2    A    
N4    H7    S    
N2    I4    S    
C4    O8    A    
C1    C13   S    
Cu1   Cu2   S    
C7    C9    S    
N1    I3    S    
Cu1   O8    S    
Cu2   O2    S    
Cu2   O3    S    
C3    O7    A    
Cu1   O4    S    
C6    C8    S    
C4    O6    A    
C4    C9    S    
N1    N2    D    
C13   N3    S    
C8    H2    S    
C7    H1    S    
