data_mof_unit_62519.cif
_audit_creation_date              2012-12-10T19:13:59-0500
_audit_creation_method            fapswitch 2.2
_symmetry_space_group_name_H-M    P1
_symmetry_Int_Tables_number       1
_space_group_crystal_system       triclinic
_cell_length_a                    13.029858
_cell_length_b                    15.99689
_cell_length_c                    14.759871
_cell_angle_alpha                 90.009812
_cell_angle_beta                  96.311802
_cell_angle_gamma                 89.996887
_cell_volume                      3057.85744972

loop_
_atom_site_label
_atom_site_type_symbol
_atom_type_description
_atom_site_fract_x
_atom_site_fract_y
_atom_site_fract_z
_atom_type_partial_charge
C1    C     C_R   0.500032 0.340832 0.499979 0.821534
C2    C     C_R   0.407582 0.488757 0.038758 0.681992
C3    C     C_R   0.500280 0.500046 0.902901 -0.180046
C4    C     C_R   0.499720 0.499954 0.097099 -0.180046
C5    C     C_R   0.408044 0.488823 0.942988 -0.339427
C6    C     C_R   0.591956 0.511177 0.057012 -0.339427
C7    C     C_1   0.500069 0.500029 0.802728 0.295609
C8    C     C_1   0.499930 0.499971 0.197272 0.295610
C9    C     C_R   0.299911 0.499975 0.482927 0.839511
C10   C     C_R   0.700089 0.500025 0.517073 0.839511
C11   C     C_R   0.812894 0.500056 0.527566 -0.190576
C12   C     C_R   0.499968 0.659168 0.500021 0.821535
C13   C     C_R   0.187105 0.499944 0.472434 -0.190576
C14   C     C_R   0.022734 0.499641 0.378007 -0.234375
C15   C     C_R   0.977266 0.500359 0.621993 -0.234375
C16   C     C_R   0.130042 0.499677 0.385623 0.627618
C17   C     C_R   0.869958 0.500323 0.614377 0.627618
C18   C     C_R   0.135592 0.500171 0.550917 -0.295663
C19   C     C_R   0.864408 0.499829 0.449083 -0.295662
C20   C     C_R   0.028410 0.500133 0.543539 0.069021
C21   C     C_R   0.971590 0.499867 0.456461 0.069021
C22   C     C_R   0.497644 0.956405 0.581988 -0.159987
C23   C     C_R   0.502340 0.956351 0.418028 -0.161031
C24   C     C_R   0.502356 0.043595 0.418012 -0.159987
C25   C     C_R   0.499983 0.912788 0.500016 0.145447
C26   C     C_R   0.500017 0.087211 0.499983 0.145447
C27   C     C_R   0.497660 0.043649 0.581971 -0.161031
C28   C     C_1   0.499971 0.823336 0.500031 -0.050280
C29   C     C_1   0.500028 0.176664 0.499969 -0.050279
C30   C     C_1   0.500034 0.251711 0.499967 -0.144697
C31   C     C_1   0.499966 0.748289 0.500033 -0.144698
C32   C     C_R   0.592418 0.511243 0.961241 0.681992
Cu1   Cu    Cu3+1 0.500030 0.500000 0.589220 1.038120
Cu2   Cu    Cu3+1 0.499970 0.500000 0.410780 1.038120
F1    F     F_    0.822679 0.500570 0.691886 -0.608300
F2    F     F_    0.177321 0.499430 0.308114 -0.608300
F3    F     F_    0.683149 0.522283 0.925617 -0.612087
F4    F     F_    0.316851 0.477717 0.074383 -0.612087
H1    H     H_    0.821265 0.499619 0.381916 0.186053
H2    H     H_    0.335958 0.480055 0.900000 0.192493
H3    H     H_    0.178735 0.500381 0.618084 0.186053
H4    H     H_    0.979704 0.499431 0.310837 0.176349
H5    H     H_    0.020296 0.500569 0.689163 0.176349
H6    H     H_    0.495842 0.077065 0.645638 0.149188
H7    H     H_    0.504158 0.922935 0.354362 0.149188
H8    H     H_    0.495814 0.923031 0.645668 0.149740
H9    H     H_    0.504186 0.076969 0.354332 0.149740
H10   H     H_    0.664042 0.519945 0.100000 0.192493
N1    N     N_1   0.500030 0.499980 0.276710 -0.145547
N2    N     N_1   0.499970 0.500020 0.723290 -0.145547
O1    O     O_R   0.500050 0.380310 0.575330 -0.573145
O2    O     O_R   0.499950 0.619690 0.424670 -0.573146
O3    O     O_R   0.500000 0.380310 0.424640 -0.570349
O4    O     O_R   0.500000 0.619690 0.575360 -0.570349
O5    O     O_R   0.349020 0.499990 0.563110 -0.603995
O6    O     O_R   0.650980 0.500010 0.436890 -0.603995
O7    O     O_R   0.348970 0.499990 0.412410 -0.503171
O8    O     O_R   0.651030 0.500010 0.587590 -0.503171

loop_
_geom_bond_atom_site_label_1
_geom_bond_atom_site_label_2
_ccdc_geom_bond_type
Cu1   O5    S    
Cu2   O7    S    
C6    C32   A    
C23   C24   A    
Cu2   O6    S    
Cu1   O8    S    
C9    O5    A    
Cu1   O1    S    
C10   O6    A    
C2    F4    S    
C2    C4    A    
C4    C8    S    
C14   H4    S    
Cu1   Cu2   S    
C15   H5    S    
C32   F3    S    
C16   F2    S    
C25   C28   S    
C1    O1    A    
C11   C19   A    
C26   C27   A    
C29   C30   T    
C19   H1    S    
C13   C18   A    
C26   C29   S    
C23   H7    S    
C27   H6    S    
C14   C21   A    
C1    C30   S    
C12   O2    A    
C24   C26   A    
C3    C7    S    
C18   C20   A    
C22   C27   A    
C23   C25   A    
C12   C31   S    
C3    C32   A    
C14   C16   A    
C5    H2    S    
C2    C5    A    
C10   C11   S    
C22   H8    S    
C3    C5    A    
C20   C21   A    
Cu2   O3    S    
C4    C6    A    
C13   C16   A    
Cu1   O4    S    
C15   C17   A    
C9    O7    A    
C1    O3    A    
C11   C17   A    
Cu2   N1    S    
C9    C13   S    
C17   F1    S    
C19   C21   A    
Cu1   N2    S    
C24   H9    S    
Cu2   O2    S    
C8    N1    T    
C28   C31   T    
C12   O4    A    
C18   H3    S    
C7    N2    T    
C15   C20   A    
C10   O8    A    
C22   C25   A    
C6    H10   S    
