data_mof_unit_58491.cif
_audit_creation_date              2012-12-11T16:05:04-0500
_audit_creation_method            fapswitch 2.2
_symmetry_space_group_name_H-M    P1
_symmetry_Int_Tables_number       1
_space_group_crystal_system       triclinic
_cell_length_a                    10.625195
_cell_length_b                    10.59139
_cell_length_c                    16.896671
_cell_angle_alpha                 98.279436
_cell_angle_beta                  98.591101
_cell_angle_gamma                 61.677789
_cell_volume                      1649.22441842

loop_
_atom_site_label
_atom_site_type_symbol
_atom_type_description
_atom_site_fract_x
_atom_site_fract_y
_atom_site_fract_z
_atom_type_partial_charge
C1    C     C_R   0.350709 0.784168 0.402353 0.534823
C2    C     C_3   0.692143 0.312517 0.237366 -0.135738
C3    C     C_3   0.745907 0.387056 0.309153 0.040809
C4    C     C_3   0.901991 0.292314 0.291063 -0.116032
C5    C     C_3   0.886143 0.407775 0.239130 -0.119804
C6    C     C_3   0.729160 0.503553 0.258118 -0.134801
C7    C     C_3   0.678202 0.427701 0.185364 -0.028994
C8    C     C_3   0.832875 0.333843 0.166584 0.045668
C9    C     C_3   0.432513 0.830023 0.223457 -0.108410
C10   C     C_3   0.366853 0.744937 0.253146 -0.097801
C11   C     C_3   0.328268 0.850307 0.328475 0.048777
C12   C     C_R   0.369491 0.346328 0.359069 0.539509
C13   C     C_3   0.394812 0.934919 0.300248 -0.127926
C14   C     C_3   0.245696 0.032060 0.257612 -0.152006
C15   C     C_3   0.180505 0.946002 0.287749 -0.134824
C16   C     C_3   0.218887 0.840547 0.212042 -0.088275
C17   C     C_3   0.284557 0.925244 0.182691 0.050533
C18   C     C_3   0.450083 0.247286 0.781314 -0.112670
C19   C     C_3   0.393771 0.397852 0.753981 -0.030318
C20   C     C_3   0.356671 0.343046 0.670337 0.024515
C21   C     C_3   0.411222 0.191685 0.697027 -0.124341
C22   C     C_3   0.258490 0.235904 0.718567 -0.176191
C23   C     C_R   0.705669 0.416321 0.390596 0.561194
C24   C     C_3   0.203770 0.387676 0.690010 -0.109699
C25   C     C_3   0.241872 0.443138 0.775407 0.102454
C26   C     C_3   0.297410 0.292083 0.802305 0.041917
C27   C     C_1   0.847795 0.327820 0.705611 -0.023093
C28   C     C_1   0.894096 0.294835 0.773038 -0.027325
C29   C     C_1   0.334754 0.819275 0.708421 -0.020867
C30   C     C_1   0.309504 0.846450 0.777171 -0.007613
C31   C     C_R   0.891623 0.310574 0.090752 0.557636
C32   C     C_R   0.318999 0.299341 0.120360 0.561869
C33   C     C_R   0.255816 0.960730 0.099222 0.566018
C34   C     C_R   0.355203 0.774768 0.626391 0.543078
C35   C     C_R   0.942973 0.276055 0.855995 0.535727
C36   C     C_R   0.279435 0.255610 0.877336 0.536791
C37   C     C_R   0.278559 0.887438 0.858210 0.576176
C38   C     C_R   0.399744 0.369940 0.600721 0.564359
C39   C     C_R   0.779504 0.376718 0.628627 0.558817
C40   C     C_1   0.341714 0.336001 0.275354 -0.071231
C41   C     C_1   0.330508 0.325727 0.204074 -0.066066
C42   C     C_3   0.849896 0.217437 0.217849 -0.128977
Cr1   Cr    Cr6+3 0.608340 0.611040 0.520430 1.026900
Cr2   Cr    Cr6+3 0.287650 0.601120 0.489350 1.028558
Cr3   Cr    Cr6+3 0.604040 0.287870 0.490280 1.018259
Cr4   Cr    Cr6+3 0.054020 0.052700 0.970850 1.050767
Cr5   Cr    Cr6+3 0.059230 0.375120 0.993390 1.061301
Cr6   Cr    Cr6+3 0.374950 0.061200 0.992340 1.042378
H1    H     H_    0.613652 0.272379 0.238877 0.130976
H2    H     H_    0.196807 0.150490 0.256543 0.101638
H3    H     H_    0.079286 0.989189 0.316624 0.123317
H4    H     H_    0.146966 0.800307 0.175911 0.145627
H5    H     H_    0.553224 0.189832 0.818353 0.161443
H6    H     H_    0.481160 0.088344 0.664274 0.151418
H7    H     H_    0.201794 0.169056 0.705993 0.098029
H8    H     H_    0.104034 0.445302 0.650530 0.152063
H9    H     H_    0.898983 0.100525 0.198837 0.126575
H10   H     H_    0.990813 0.242203 0.338240 0.125281
H11   H     H_    0.967431 0.445413 0.238757 0.130817
H12   H     H_    0.684879 0.618641 0.280125 0.118979
H13   H     H_    0.413872 0.626673 0.254559 0.109908
H14   H     H_    0.532842 0.786297 0.193599 0.133751
H15   H     H_    0.466615 0.973009 0.338471 0.138500
O1    O     O_R   0.751220 0.499230 0.435170 -0.512534
O2    O     O_R   0.297880 0.469080 0.560050 -0.494933
O3    O     O_R   0.489720 0.254590 0.564810 -0.517981
O4    O     O_R   0.725220 0.304230 0.585080 -0.504515
O5    O     O_3   0.500010 0.500010 0.500020 -0.292433
O6    O     O_R   0.171830 0.913880 0.057510 -0.493926
O7    O     O_R   0.940690 0.186050 0.054730 -0.517125
O8    O     O_R   0.920470 0.405720 0.075010 -0.509967
O9    O     O_R   0.196690 0.370460 0.084120 -0.489468
O10   O     O_R   0.412990 0.180750 0.091610 -0.510790
O11   O     O_R   0.366620 0.943130 0.065760 -0.484744
O12   O     O_R   0.477220 0.727600 0.436870 -0.523444
O13   O     O_R   0.160510 0.906330 0.879210 -0.478650
O14   O     O_R   0.930190 0.179050 0.889450 -0.485542
O15   O     O_R   0.909140 0.398170 0.896710 -0.467966
O16   O     O_R   0.186190 0.363460 0.918830 -0.472822
O17   O     O_R   0.401670 0.173200 0.913310 -0.505645
O18   O     O_R   0.356120 0.936130 0.900470 -0.503034
O19   O     O_3   0.162740 0.163010 0.985530 -0.337998
O20   O     O_R   0.258650 0.745120 0.411470 -0.513538
O21   O     O_R   0.297070 0.467240 0.395960 -0.490584
O22   O     O_R   0.488830 0.252610 0.387790 -0.523881
O23   O     O_R   0.724400 0.302390 0.420980 -0.500201
O24   O     O_R   0.752100 0.501210 0.612190 -0.490560
O25   O     O_R   0.478040 0.729440 0.600970 -0.490011
O26   O     O_R   0.259530 0.747110 0.588490 -0.511161
C43   C     C_1   0.477427 0.477077 0.775477 0.201247
N1    N     N_1   0.545598 0.537207 0.793130 -0.271211
I1    I     I_    0.090308 0.643485 0.828928 -0.269444
C44   C     C_1   0.560781 0.494708 0.122952 0.182536
N2    N     N_1   0.468372 0.547179 0.073606 -0.243827

loop_
_geom_bond_atom_site_label_1
_geom_bond_atom_site_label_2
_ccdc_geom_bond_type
C44   N2    T    
C18   C21   S    
C3    C23   S    
C2    C7    S    
C1    C11   S    
Cr5   O16   S    
C3    C6    S    
Cr4   O13   S    
C7    C8    S    
C32   O9    A    
C14   H2    S    
C12   O22   A    
Cr1   O25   S    
C8    C42   S    
C5    C6    S    
C15   C16   S    
Cr6   O18   S    
C12   O21   A    
C18   C19   S    
Cr5   O19   S    
C9    C13   S    
Cr4   O6    S    
C18   H5    S    
Cr4   O19   S    
C11   C15   S    
C31   O7    A    
C38   O3    A    
C28   C35   S    
C27   C39   S    
Cr1   O5    S    
C23   O23   A    
C18   C26   S    
Cr3   O4    S    
C32   C41   S    
C15   H3    S    
C9    C10   S    
C33   O6    A    
Cr2   O20   S    
C31   O8    A    
C21   C22   S    
C14   C17   S    
C37   O18   A    
Cr2   O2    S    
C17   C33   S    
C42   H9    S    
Cr1   O1    S    
Cr1   O12   S    
C7    C44   S    
C5    H11   S    
C9    H14   S    
C1    O12   A    
Cr6   O11   S    
C24   C25   S    
C36   O17   A    
C32   O10   A    
C16   C17   S    
C25   C26   S    
C29   C34   S    
C35   O14   A    
C30   C37   S    
C12   C40   S    
Cr3   O22   S    
C29   C30   T    
C2    H1    S    
C6    H12   S    
C5    C8    S    
C20   C38   S    
C13   H15   S    
C38   O2    A    
Cr3   O5    S    
C34   O25   A    
Cr5   O8    S    
C6    C7    S    
C26   C36   S    
C23   O1    A    
C37   O13   A    
C22   C24   S    
Cr2   O5    S    
C10   H13   S    
C1    O20   A    
C3    C4    S    
Cr3   O3    S    
C9    C17   S    
C40   C41   T    
C25   I1    S    
C8    C31   S    
C39   O4    A    
Cr6   O10   S    
C16   H4    S    
C4    C5    S    
Cr2   O21   S    
C36   O16   A    
Cr4   O14   S    
C22   H7    S    
C24   H8    S    
C35   O15   A    
Cr1   O24   S    
Cr6   O17   S    
C19   C20   S    
C2    C3    S    
C34   O26   A    
C19   C43   S    
C10   C16   S    
C11   C13   S    
C43   N1    T    
C21   H6    S    
C4    C42   S    
C2    C42   S    
C39   O24   A    
Cr6   O19   S    
Cr3   O23   S    
C19   C25   S    
Cr5   O9    S    
Cr4   O7    S    
C10   C11   S    
C33   O11   A    
C20   C21   S    
C22   C26   S    
C4    H10   S    
C27   C28   T    
C14   C15   S    
Cr5   O15   S    
C13   C14   S    
C20   C24   S    
Cr2   O26   S    
