data_mof_unit_40182.cif
_audit_creation_date              2012-12-10T17:52:37-0500
_audit_creation_method            fapswitch 2.2
_symmetry_space_group_name_H-M    P1
_symmetry_Int_Tables_number       1
_space_group_crystal_system       triclinic
_cell_length_a                    14.715217
_cell_length_b                    14.675838
_cell_length_c                    23.446399
_cell_angle_alpha                 77.10409
_cell_angle_beta                  102.761896
_cell_angle_gamma                 114.926661
_cell_volume                      4429.63727526

loop_
_atom_site_label
_atom_site_type_symbol
_atom_type_description
_atom_site_fract_x
_atom_site_fract_y
_atom_site_fract_z
_atom_type_partial_charge
C1    C     C_R   0.880328 0.312261 0.510828 0.806485
C2    C     C_R   0.119805 0.687821 0.491762 0.773270
C3    C     C_R   0.077151 0.590923 0.756286 0.521429
C4    C     C_R   0.915073 0.458216 0.232434 0.503961
C5    C     C_R   0.076152 0.583743 0.697395 -0.435568
C6    C     C_R   0.913829 0.460034 0.291611 -0.372649
C7    C     C_R   0.999833 0.503399 0.670291 -0.152227
C8    C     C_R   0.004398 0.503814 0.328784 -0.170193
C9    C     C_R   0.923455 0.428175 0.701469 0.402196
C10   C     C_R   0.097173 0.551082 0.306092 0.433538
C11   C     C_R   0.928256 0.432319 0.761446 -0.306082
C12   C     C_R   0.098015 0.547736 0.246679 -0.311716
C13   C     C_R   0.004108 0.513128 0.788520 0.236959
C14   C     C_R   0.007466 0.503191 0.209867 0.210105
C15   C     C_R   0.812946 0.204809 0.522059 -0.037269
C16   C     C_R   0.187783 0.795430 0.491939 -0.058713
C17   C     C_R   0.784952 0.029742 0.561308 -0.188405
C18   C     C_R   0.216548 0.972524 0.482890 -0.169001
C19   C     C_R   0.851086 0.130423 0.548858 -0.200135
C20   C     C_R   0.150130 0.871364 0.482670 -0.247413
C21   C     C_R   0.708372 0.177749 0.508793 -0.245852
C22   C     C_R   0.292425 0.821446 0.503877 -0.221586
C23   C     C_R   0.999532 0.500075 0.608612 0.884445
C24   C     C_R   0.001319 0.501339 0.391143 0.868566
C25   C     C_R   0.640077 0.078081 0.524526 0.057228
C26   C     C_R   0.361023 0.922207 0.507548 0.052331
C27   C     C_R   0.679466 0.002209 0.548301 0.055357
C28   C     C_R   0.321949 0.999221 0.494311 0.078218
C29   C     C_R   0.533862 0.052065 0.515954 0.010129
C30   C     C_R   0.467254 0.948248 0.522322 -0.006250
C31   C     C_R   0.508779 0.873962 0.545365 -0.294916
C32   C     C_R   0.492705 0.126959 0.503545 -0.318615
C33   C     C_R   0.613015 0.900143 0.558454 0.416311
C34   C     C_R   0.388188 0.101572 0.492001 0.409036
C35   C     C_R   0.709737 0.661949 0.397416 0.266076
C36   C     C_R   0.278998 0.321824 0.592488 0.220193
C37   C     C_R   0.792374 0.632088 0.412902 0.554991
C38   C     C_R   0.201040 0.358005 0.581311 0.516461
C39   C     C_R   0.717744 0.514606 0.494301 -0.130594
C40   C     C_R   0.285732 0.490599 0.508655 -0.102245
C41   C     C_R   0.628122 0.534660 0.477680 -0.083573
C42   C     C_R   0.369585 0.461339 0.520782 -0.101276
C43   C     C_R   0.625319 0.609138 0.427950 -0.015306
C44   C     C_R   0.366205 0.377739 0.565271 0.021447
C45   C     C_R   0.979531 0.574392 0.107528 0.615952
C46   C     C_R   0.039965 0.447600 0.891176 0.586870
C47   C     C_R   0.541063 0.482913 0.507907 0.127749
C48   C     C_R   0.454921 0.509960 0.489323 0.130393
C49   C     C_R   0.454135 0.580153 0.437777 -0.276673
C50   C     C_R   0.535397 0.402258 0.554440 -0.275558
C51   C     C_R   0.536609 0.627248 0.407461 -0.167681
C52   C     C_R   0.448891 0.349124 0.581263 -0.079985
C53   C     C_R   0.039952 0.440822 0.132577 0.558362
C54   C     C_R   0.978557 0.580453 0.866135 0.602729
C55   C     C_R   0.040758 0.441518 0.072797 -0.054984
C56   C     C_R   0.979996 0.581336 0.925994 -0.063729
C57   C     C_R   0.010486 0.510981 0.029622 -0.077935
C58   C     C_R   0.010660 0.512152 0.969179 -0.076697
C59   C     C_R   0.980086 0.579163 0.046835 -0.123524
C60   C     C_R   0.040816 0.443810 0.951944 -0.114756
C61   C     C_R   0.070781 0.374080 0.055508 -0.255228
C62   C     C_R   0.950627 0.649235 0.943302 -0.256900
C63   C     C_R   0.069541 0.373385 0.995769 0.450258
C64   C     C_R   0.952014 0.650040 0.003042 0.451737
Cu1   Cu    Cu3+1 0.081740 0.475680 0.515360 0.986408
Cu2   Cu    Cu3+1 0.918260 0.524320 0.484640 0.963889
H1    H     H_    0.095038 0.320829 0.088253 0.194858
H2    H     H_    0.926285 0.702427 0.910555 0.195507
H3    H     H_    0.816851 0.973674 0.581206 0.175352
H4    H     H_    0.184899 0.029712 0.474019 0.169246
H5    H     H_    0.462292 0.794681 0.556469 0.164082
H6    H     H_    0.540027 0.206047 0.505406 0.147696
H7    H     H_    0.529682 0.678234 0.367109 0.187376
H8    H     H_    0.447717 0.285552 0.615522 0.180352
H9    H     H_    0.283465 0.554460 0.476081 0.181740
H10   H     H_    0.727204 0.461327 0.532482 0.169724
H11   H     H_    0.388620 0.597031 0.418115 0.167753
H12   H     H_    0.595415 0.375650 0.569752 0.132560
H13   H     H_    0.134865 0.640202 0.672652 0.157398
H14   H     H_    0.842206 0.425865 0.308713 0.185760
H15   H     H_    0.875287 0.371824 0.788056 0.152370
H16   H     H_    0.168665 0.581280 0.228621 0.157878
H17   H     H_    0.319130 0.761956 0.508222 0.151056
H18   H     H_    0.681505 0.235654 0.485161 0.150073
H19   H     H_    0.069503 0.852880 0.474946 0.137521
H20   H     H_    0.931852 0.149842 0.560110 0.179965
N1    N     N_R   0.009162 0.506158 0.148557 -0.444248
N2    N     N_R   0.008135 0.514252 0.850063 -0.439862
N3    N     N_R   0.795430 0.560810 0.461550 -0.241339
N4    N     N_R   0.204570 0.439190 0.538450 -0.229926
O1    O     O_R   0.977900 0.338110 0.520250 -0.541019
O2    O     O_R   0.022100 0.661890 0.479750 -0.596252
O3    O     O_R   0.839850 0.379180 0.494310 -0.594679
O4    O     O_R   0.160150 0.620820 0.505690 -0.585106
O5    O     O_R   0.069020 0.479430 0.595090 -0.562778
O6    O     O_R   0.930980 0.520570 0.404910 -0.533145
O7    O     O_R   0.930970 0.520500 0.569150 -0.581002
O8    O     O_R   0.069030 0.479500 0.430850 -0.549997
O9    O     O_2   0.949925 0.637179 0.125805 -0.483549
O10   O     O_2   0.070814 0.385745 0.872930 -0.498121
O11   O     O_2   0.068853 0.374840 0.174474 -0.560538
O12   O     O_2   0.947170 0.644691 0.824199 -0.559466
O13   O     O_3   0.115187 0.304626 0.608392 -0.570099
C65   C     C_3   0.138476 0.313981 0.669205 0.066073
H21   H     H_    0.162613 0.394250 0.675466 0.163799
H22   H     H_    0.199370 0.287571 0.692492 0.180953
C66   C     C_3   0.044407 0.248811 0.698398 -0.732636
H23   H     H_    0.025929 0.167182 0.698469 0.232737
H24   H     H_    0.057501 0.263069 0.744680 0.220770
H25   H     H_    0.979364 0.267032 0.673529 0.289192
O14   O     O_3   0.859195 0.658735 0.372769 -0.535498
C67   C     C_3   0.928368 0.761300 0.370544 0.141043
H26   H     H_    0.005864 0.762731 0.384326 0.163382
H27   H     H_    0.917917 0.804580 0.400163 0.066183
C68   C     C_3   0.926007 0.815066 0.306936 -0.765618
H28   H     H_    0.981044 0.895265 0.305460 0.187241
H29   H     H_    0.947152 0.776806 0.279206 0.252491
H30   H     H_    0.849735 0.814071 0.288138 0.286479
O15   O     O_3   0.705947 0.732043 0.347308 -0.557973
C69   C     C_3   0.720421 0.825074 0.363820 0.023916
H31   H     H_    0.801807 0.869063 0.377685 0.141209
H32   H     H_    0.679059 0.815015 0.400695 0.122818
C70   C     C_3   0.683478 0.888369 0.310854 -0.781101
H33   H     H_    0.601471 0.847260 0.296282 0.242228
H34   H     H_    0.695420 0.961882 0.323103 0.196043
H35   H     H_    0.725986 0.903694 0.273751 0.250257
O16   O     O_3   0.269995 0.231575 0.629665 -0.594396
C71   C     C_3   0.207838 0.149673 0.598150 0.087362
H36   H     H_    0.229599 0.161711 0.553604 0.182362
H37   H     H_    0.127068 0.138746 0.592938 0.164043
C72   C     C_3   0.218571 0.052880 0.632425 -0.797020
H38   H     H_    0.195406 0.037050 0.676759 0.245968
H39   H     H_    0.169589 0.987908 0.608174 0.199677
H40   H     H_    0.298461 0.061203 0.637657 0.254582
O17   O     O_3   0.101333 0.306585 0.980938 -0.530846
C73   C     C_3   0.020010 0.210647 0.980572 0.099587
H41   H     H_    0.949415 0.216721 0.953818 0.137065
H42   H     H_    0.005375 0.174342 0.026496 0.125968
C74   C     C_3   0.047257 0.142619 0.953044 -0.733145
H43   H     H_    0.115371 0.131741 0.979645 0.239202
H44   H     H_    0.983188 0.067508 0.951477 0.186859
H45   H     H_    0.063068 0.177595 0.907262 0.273787
O18   O     O_3   0.920187 0.716819 0.017861 -0.528172
C75   C     C_3   0.001371 0.812862 0.017986 0.098659
H46   H     H_    0.016111 0.848756 0.972022 0.126420
H47   H     H_    0.071945 0.807034 0.044920 0.135399
C76   C     C_3   0.973850 0.881213 0.045055 -0.731777
H48   H     H_    0.957831 0.846622 0.090844 0.274917
H49   H     H_    0.037861 0.956381 0.046504 0.184025
H50   H     H_    0.905786 0.891887 0.018221 0.241626
O19   O     O_3   0.153643 0.667388 0.785213 -0.563757
C77   C     C_3   0.161302 0.764006 0.753917 0.081078
H51   H     H_    0.085558 0.766497 0.735312 0.159478
H52   H     H_    0.207222 0.785626 0.717583 0.142366
C78   C     C_3   0.214447 0.842262 0.796013 -0.741918
H53   H     H_    0.291204 0.843637 0.814627 0.251295
H54   H     H_    0.221788 0.918798 0.772016 0.192779
H55   H     H_    0.169945 0.823008 0.832730 0.255484
O20   O     O_3   0.825557 0.417005 0.195552 -0.547033
C79   C     C_3   0.795994 0.310678 0.203870 0.044953
H56   H     H_    0.774945 0.276430 0.248919 0.136415
H57   H     H_    0.857547 0.290199 0.197417 0.162579
C80   C     C_3   0.704188 0.265536 0.158716 -0.744688
H58   H     H_    0.723455 0.297511 0.113268 0.252057
H59   H     H_    0.679994 0.181775 0.164906 0.192790
H60   H     H_    0.640657 0.283266 0.164323 0.256621
O21   O     O_3   0.855038 0.344757 0.674771 -0.596933
C81   C     C_3   0.754477 0.324366 0.680364 0.065329
H61   H     H_    0.737651 0.393980 0.665548 0.142021
H62   H     H_    0.739470 0.292881 0.726590 0.150916
C82   C     C_3   0.683116 0.244433 0.641783 -0.778062
H63   H     H_    0.698558 0.174217 0.655371 0.265658
H64   H     H_    0.603333 0.225638 0.646169 0.195907
H65   H     H_    0.694267 0.273757 0.594900 0.240954
O22   O     O_3   0.185389 0.597969 0.343296 -0.577265
C83   C     C_3   0.243417 0.696762 0.316765 0.040755
H66   H     H_    0.197579 0.731768 0.281914 0.143457
H67   H     H_    0.303785 0.693447 0.296979 0.156810
C84   C     C_3   0.292581 0.766454 0.363815 -0.799356
H68   H     H_    0.338503 0.735295 0.400364 0.235526
H69   H     H_    0.342519 0.842757 0.344109 0.205439
H70   H     H_    0.232974 0.774315 0.381811 0.243878
O23   O     O_3   0.649229 0.825218 0.584183 -0.570518
C85   C     C_3   0.667649 0.787955 0.539180 0.036249
H71   H     H_    0.709988 0.850442 0.506122 0.114682
H72   H     H_    0.594833 0.738122 0.516025 0.164460
C86   C     C_3   0.731805 0.726489 0.566966 -0.752591
H73   H     H_    0.687287 0.655705 0.594297 0.255366
H74   H     H_    0.756827 0.706658 0.531859 0.187010
H75   H     H_    0.800201 0.771904 0.595232 0.245557
O24   O     O_3   0.349371 0.176096 0.481170 -0.607987
C87   C     C_3   0.382264 0.245303 0.430069 0.052853
H76   H     H_    0.388621 0.207917 0.395388 0.139792
H77   H     H_    0.456858 0.306312 0.442186 0.168180
C88   C     C_3   0.306025 0.293569 0.403409 -0.751717
H78   H     H_    0.294080 0.328345 0.437020 0.255140
H79   H     H_    0.334274 0.353321 0.365683 0.219609
H80   H     H_    0.232443 0.234895 0.387410 0.235254

loop_
_geom_bond_atom_site_label_1
_geom_bond_atom_site_label_2
_ccdc_geom_bond_type
C18   H4    S    
C82   H63   S    
C17   H3    S    
C78   H54   S    
C66   H24   S    
C35   O15   S    
C80   H58   S    
C19   H20   S    
C71   H36   S    
C65   H22   S    
C70   H33   S    
C39   C41   A    
C27   C33   A    
C15   C19   A    
C82   H64   S    
C59   C64   A    
C38   O13   S    
C21   C25   A    
C23   O5    A    
C60   C63   A    
C24   O8    A    
Cu2   O7    S    
C34   O24   S    
C45   N1    A    
Cu1   O8    S    
C29   C32   A    
C52   H8    S    
C24   O6    A    
Cu1   O4    S    
C30   C31   A    
C74   H45   S    
C7    C23   S    
C81   H62   S    
C70   H34   S    
C4    O20   S    
C32   H6    S    
C58   C60   A    
O18   C75   S    
C74   H43   S    
C11   C13   A    
C85   H71   S    
Cu1   O1    S    
C61   C63   A    
C67   H26   S    
C86   H75   S    
C62   C64   A    
C76   H48   S    
C17   C19   A    
C83   C84   S    
O14   C67   S    
C53   O11   S    
C68   H29   S    
C33   O23   S    
C47   C48   A    
C50   C52   A    
O19   C77   S    
C21   H18   S    
C1    C15   S    
C47   C50   A    
C2    C16   S    
C3    C13   A    
C69   C70   S    
C88   H80   S    
C44   C52   A    
C40   C42   A    
C28   C34   A    
C1    O1    A    
C78   H55   S    
C41   C43   A    
C72   H40   S    
C42   C44   A    
C75   C76   S    
C50   H12   S    
C67   H27   S    
C65   H21   S    
C69   H32   S    
Cu2   N3    S    
C46   N2    A    
C53   C55   A    
C25   C29   A    
Cu1   N4    S    
C57   C59   A    
C82   H65   S    
C54   C56   A    
C76   H49   S    
C86   H74   S    
O24   C87   S    
C17   C27   A    
C79   C80   S    
C81   H61   S    
C2    O4    A    
C76   H50   S    
C18   C28   A    
C75   H47   S    
C45   O9    S    
O21   C81   S    
C5    C7    A    
C75   H46   S    
C70   H35   S    
Cu2   O2    S    
C49   C51   A    
C11   H15   S    
C88   H78   S    
C73   C74   S    
O23   C85   S    
C87   C88   S    
C29   C30   A    
C61   H1    S    
C6    H14   S    
O20   C79   S    
C77   C78   S    
C9    O21   S    
C16   C20   A    
C68   H30   S    
C20   H19   S    
C80   H60   S    
C31   C33   A    
C41   C47   A    
C12   H16   S    
C53   N1    A    
C42   C48   A    
C39   H10   S    
C2    O2    A    
C9    C11   A    
C10   C12   A    
Cu2   O3    S    
C4    C6    A    
C83   H66   S    
C23   O7    A    
C79   H57   S    
C26   C30   A    
C55   C57   A    
C66   H25   S    
C56   C62   A    
C36   C44   A    
C36   O16   S    
C5    H13   S    
C66   H23   S    
O16   C71   S    
C71   C72   S    
C3    C5    A    
C78   H53   S    
C35   C43   A    
C69   H31   S    
C35   C37   A    
C73   H42   S    
Cu2   O6    S    
C77   H52   S    
C10   O22   S    
C7    C9    A    
C46   O10   S    
C45   C59   A    
C16   C22   A    
C46   C60   A    
C26   C28   A    
C54   O12   S    
C8    C10   A    
C51   H7    S    
C12   C14   A    
C73   H41   S    
C72   H39   S    
C71   H37   S    
C14   N1    S    
C6    C8    A    
O15   C69   S    
C40   H9    S    
C64   O18   S    
C62   H2    S    
C25   C27   A    
C38   N4    A    
C3    O19   S    
C85   H72   S    
C85   C86   S    
C37   N3    A    
C40   N4    A    
C87   H76   S    
C84   H70   S    
C36   C38   A    
C86   H73   S    
O22   C83   S    
C49   H11   S    
C79   H56   S    
C22   H17   S    
C54   N2    A    
C74   H44   S    
C43   C51   A    
C57   C58   A    
C15   C21   A    
C48   C49   A    
C55   C61   A    
C13   N2    S    
C83   H67   S    
C8    C24   S    
C56   C58   A    
C18   C20   A    
C65   C66   S    
C4    C14   A    
C72   H38   S    
C37   O14   S    
O17   C73   S    
C84   H68   S    
Cu1   O5    S    
C77   H51   S    
C1    O3    A    
Cu1   Cu2   S    
C22   C26   A    
O13   C65   S    
C80   H59   S    
C81   C82   S    
C84   H69   S    
C39   N3    A    
C67   C68   S    
C68   H28   S    
C63   O17   S    
C32   C34   A    
C31   H5    S    
C88   H79   S    
C87   H77   S    
