data_mof_unit_35356.cif
_audit_creation_date              2012-12-10T19:00:12-0500
_audit_creation_method            fapswitch 2.2
_symmetry_space_group_name_H-M    P1
_symmetry_Int_Tables_number       1
_space_group_crystal_system       triclinic
_cell_length_a                    9.593026
_cell_length_b                    10.731836
_cell_length_c                    13.435966
_cell_angle_alpha                 89.91924
_cell_angle_beta                  71.800978
_cell_angle_gamma                 89.839607
_cell_volume                      1314.04440087

loop_
_atom_site_label
_atom_site_type_symbol
_atom_type_description
_atom_site_fract_x
_atom_site_fract_y
_atom_site_fract_z
_atom_type_partial_charge
C1    C     C_R   0.499738 0.737187 0.500576 0.813276
C2    C     C_R   0.454882 0.535533 0.971172 0.070387
C3    C     C_R   0.468241 0.478133 0.873015 0.055205
C4    C     C_R   0.554496 0.496381 0.025005 0.068495
C5    C     C_R   0.679240 0.424605 0.971773 0.116104
C6    C     C_R   0.690197 0.371007 0.875560 -0.234540
C7    C     C_R   0.579869 0.389633 0.831367 -0.190482
C8    C     C_R   0.526025 0.513818 0.132676 -0.308477
C9    C     C_R   0.764496 0.426227 0.124209 0.178119
C10   C     C_R   0.374052 0.513722 0.815391 -0.110005
C11   C     C_R   0.523710 0.935228 0.407618 0.031232
C12   C     C_R   0.420578 0.498809 0.700468 0.782528
C13   C     C_R   0.501510 0.870305 0.500894 -0.065989
C14   C     C_R   0.498491 0.935016 0.592107 -0.212984
C15   C     C_R   0.496782 0.065161 0.591906 -0.199275
C16   C     C_R   0.499952 0.129310 0.500183 -0.148957
C17   C     C_R   0.523411 0.063479 0.406936 0.063463
C18   C     C_3   0.444622 0.068658 0.326952 0.334620
C19   C     C_3   0.445487 0.926661 0.327894 -0.527580
C20   C     C_R   0.920204 0.391418 0.516230 0.275213
C21   C     C_R   0.930247 0.607637 0.489432 -0.094667
C22   C     C_R   0.078047 0.607671 0.489711 -0.090373
C23   C     C_R   0.500108 0.262688 0.499389 0.796348
C24   C     C_R   0.068384 0.392701 0.515252 0.235157
C25   C     C_3   0.111528 0.282316 0.447355 -0.520459
C26   C     C_3   0.955033 0.277948 0.445607 -0.124521
C27   C     C_R   0.579994 0.494279 0.299417 0.813211
C28   C     C_R   0.785846 0.397039 0.019024 -0.219196
C29   C     C_R   0.628303 0.480793 0.183847 -0.075281
C30   C     C_R   0.252167 0.588483 0.862843 -0.232162
C31   C     C_R   0.239767 0.647830 0.957012 -0.203121
C32   C     C_R   0.348663 0.633763 0.006055 0.161303
Cu1   Cu    Cu3+1 0.359330 0.500020 0.500010 0.933126
Cu2   Cu    Cu3+1 0.640670 0.499980 0.499990 0.935664
H1    H     H_    0.489034 0.115435 0.663320 0.135495
H2    H     H_    0.333632 0.111002 0.358312 0.072623
H3    H     H_    0.334112 0.885499 0.359911 0.156728
H4    H     H_    0.515768 0.883807 0.253978 0.217847
H5    H     H_    0.880634 0.695145 0.479227 0.151972
H6    H     H_    0.136024 0.695198 0.479714 0.144262
H7    H     H_    0.191664 0.305146 0.369846 0.183896
H8    H     H_    0.144490 0.204225 0.489668 0.202751
H9    H     H_    0.947640 0.300116 0.367133 0.156818
H10   H     H_    0.779725 0.308298 0.837399 0.142432
H11   H     H_    0.882855 0.345085 0.975296 0.137344
H12   H     H_    0.417571 0.541222 0.179308 0.165925
H13   H     H_    0.176129 0.613842 0.821134 0.167170
H14   H     H_    0.153346 0.716494 0.984874 0.138617
H15   H     H_    0.584431 0.335873 0.762557 0.143942
H16   H     H_    0.491644 0.885280 0.663713 0.139064
N1    N     N_R   0.852320 0.499070 0.499340 -0.204035
N2    N     N_R   0.148230 0.499110 0.499340 -0.184165
O1    O     O_R   0.381190 0.680360 0.500000 -0.588424
O2    O     O_R   0.618780 0.680320 0.499990 -0.586074
O3    O     O_R   0.323230 0.500000 0.650990 -0.574529
O4    O     O_R   0.560820 0.499960 0.650980 -0.567927
O5    O     O_R   0.381220 0.319680 0.500010 -0.582276
O6    O     O_R   0.618810 0.319640 0.500000 -0.583561
O7    O     O_R   0.439180 0.500040 0.349020 -0.582545
O8    O     O_R   0.676770 0.500000 0.349010 -0.584921
C33   C     C_3   0.880610 0.377737 0.169213 -0.433540
C34   C     C_3   0.846873 0.243575 0.206969 -0.767667
H17   H     H_    0.944508 0.200520 0.220742 0.206544
H18   H     H_    0.753390 0.241687 0.280695 0.271205
H19   H     H_    0.819755 0.186503 0.146638 0.279788
H20   H     H_    0.989264 0.378298 0.107191 0.191820
H21   H     H_    0.896820 0.438171 0.231152 0.219920
O9    O     O_3   0.536785 0.117668 0.231510 -0.571489
C35   C     C_3   0.450890 0.162835 0.171195 -0.334861
H22   H     H_    0.524804 0.187929 0.092260 0.202824
H23   H     H_    0.390835 0.248581 0.207031 0.165526
H24   H     H_    0.372848 0.091050 0.161044 0.154288
C36   C     C_3   0.881710 0.152589 0.489036 -0.320568
C37   C     C_3   0.837367 0.139551 0.608243 -0.822494
H25   H     H_    0.791479 0.045192 0.631501 0.238849
H26   H     H_    0.933424 0.152200 0.636528 0.237029
H27   H     H_    0.752185 0.209314 0.646020 0.246279
H28   H     H_    0.785292 0.138403 0.462534 0.224443
H29   H     H_    0.957874 0.075088 0.452969 0.187450
C38   C     C_3   0.363932 0.742104 0.075616 -0.418134
C39   C     C_3   0.511572 0.807984 0.030933 -0.817820
H30   H     H_    0.602909 0.748667 0.037842 0.257939
H31   H     H_    0.531058 0.831929 0.947208 0.251488
H32   H     H_    0.511381 0.895612 0.074646 0.246313
H33   H     H_    0.278177 0.813671 0.079806 0.192669
H34   H     H_    0.344336 0.716525 0.158332 0.188388

loop_
_geom_bond_atom_site_label_1
_geom_bond_atom_site_label_2
_ccdc_geom_bond_type
C24   N2    A    
C23   O6    A    
Cu2   O4    S    
C27   C29   S    
C36   C37   S    
C4    C8    A    
C39   H30   S    
Cu1   N2    S    
C5    C6    A    
C11   C19   S    
Cu2   N1    S    
C38   H33   S    
C37   H26   S    
C9    C33   S    
C8    C29   A    
C20   N1    A    
C3    C7    A    
C27   O8    A    
C30   C31   A    
C18   O9    S    
C15   C16   A    
C26   C36   S    
C2    C32   A    
C18   C19   S    
C35   H23   S    
C10   C30   A    
C34   H18   S    
C19   H3    S    
C33   H20   S    
C20   C24   A    
C16   C17   A    
C37   H27   S    
C38   H34   S    
C36   H28   S    
C9    C29   A    
Cu1   O7    S    
C6    H10   S    
C21   C22   A    
Cu2   O8    S    
C33   C34   S    
C15   H1    S    
C39   H31   S    
C26   H9    S    
Cu1   Cu2   S    
Cu1   O1    S    
C28   H11   S    
C37   H25   S    
C30   H13   S    
C24   C25   S    
C7    H15   S    
C25   H7    S    
O9    C35   S    
C25   C26   S    
C35   H24   S    
C2    C4    A    
C1    O2    A    
C34   H17   S    
C19   H4    S    
C32   C38   S    
C5    C28   A    
C33   H21   S    
C31   C32   A    
C21   H5    S    
C22   H6    S    
C1    O1    A    
C17   C18   S    
C36   H29   S    
Cu1   O3    S    
C12   O4    A    
C10   C12   S    
Cu2   O2    S    
C16   C23   S    
C31   H14   S    
C1    C13   S    
C21   N1    A    
C39   H32   S    
C22   N2    A    
C23   O5    A    
C11   C17   A    
Cu1   O5    S    
C34   H19   S    
C38   C39   S    
C25   H8    S    
C6    C7    A    
C2    C3    A    
C3    C10   A    
C27   O7    A    
C11   C13   A    
C14   H16   S    
C20   C26   S    
C35   H22   S    
C8    H12   S    
C12   O3    A    
C4    C5    A    
Cu2   O6    S    
C14   C15   A    
C13   C14   A    
C18   H2    S    
C9    C28   A    
