data_mof_unit_16799.cif
_audit_creation_date              2012-12-10T20:31:06-0500
_audit_creation_method            fapswitch 2.2
_symmetry_space_group_name_H-M    P1
_symmetry_Int_Tables_number       1
_space_group_crystal_system       triclinic
_cell_length_a                    14.971558
_cell_length_b                    10.690649
_cell_length_c                    9.884329
_cell_angle_alpha                 89.822647
_cell_angle_beta                  89.376861
_cell_angle_gamma                 90.76937
_cell_volume                      1581.79841941

loop_
_atom_site_label
_atom_site_type_symbol
_atom_type_description
_atom_site_fract_x
_atom_site_fract_y
_atom_site_fract_z
_atom_type_partial_charge
C1    C     C_R   0.496725 0.260119 0.500169 0.882287
C2    C     C_R   0.905468 0.604759 0.574949 -0.155641
C3    C     C_R   0.954349 0.373883 0.297194 -0.052591
C4    C     C_R   0.048336 0.373794 0.299342 -0.095913
C5    C     C_R   0.093782 0.448620 0.395314 0.059531
C6    C     C_R   0.046765 0.528790 0.484150 0.053810
C7    C     C_R   0.093246 0.609136 0.574994 -0.089885
C8    C     C_R   0.044631 0.696048 0.652932 0.576928
C9    C     C_R   0.951468 0.694706 0.653421 -0.169220
C10   C     C_R   0.185824 0.441804 0.407313 -0.250510
C11   C     C_R   0.231422 0.515825 0.499055 -0.082497
C12   C     C_R   0.326985 0.503654 0.500464 0.932181
C13   C     C_R   0.187214 0.602957 0.581086 -0.100209
C14   C     C_R   0.478531 0.063659 0.622534 0.070989
C15   C     C_R   0.482317 0.128673 0.500534 -0.184860
C16   C     C_R   0.470165 0.064475 0.378368 -0.123944
C17   C     C_R   0.471714 0.935200 0.378402 -0.172573
C18   C     C_R   0.485819 0.871434 0.500457 -0.113718
C19   C     C_R   0.481773 0.936219 0.622816 0.096121
C20   C     C_3   0.537429 0.933217 0.749351 -0.251095
C21   C     C_3   0.533098 0.076191 0.747676 0.388192
C22   C     C_R   0.452237 0.411592 0.072502 0.103063
C23   C     C_R   0.498302 0.740008 0.499950 0.900895
C24   C     C_R   0.556271 0.577896 0.069058 -0.025353
C25   C     C_R   0.555709 0.576369 0.925018 -0.013163
C26   C     C_R   0.451640 0.412328 0.930348 0.131192
C27   C     C_3   0.353031 0.389672 0.927960 0.353858
C28   C     C_3   0.354204 0.387688 0.081579 0.317936
C29   C     C_R   0.673090 0.501529 0.499280 0.901931
C30   C     C_R   0.812823 0.588242 0.586078 0.555440
C31   C     C_R   0.768659 0.509866 0.496231 -0.139573
C32   C     C_R   0.814395 0.443946 0.397710 -0.324239
C33   C     C_R   0.907300 0.447069 0.392592 0.056287
C34   C     C_R   0.953342 0.527256 0.483475 0.018608
H1    H     H_    0.467851 0.886600 0.282563 0.182325
H2    H     H_    0.597872 0.126263 0.730072 0.102181
H3    H     H_    0.598859 0.638658 0.866771 0.207952
H4    H     H_    0.333769 0.299286 0.880487 0.177090
H5    H     H_    0.316329 0.464218 0.130690 0.130506
H6    H     H_    0.775955 0.387189 0.328483 0.162579
H7    H     H_    0.223826 0.376190 0.347462 0.170104
H8    H     H_    0.465850 0.113217 0.282445 0.226005
N1    N     N_R   0.499390 0.499140 0.142800 -0.173767
N2    N     N_R   0.499390 0.499180 0.857150 -0.111495
O1    O     O_R   0.500010 0.316790 0.614690 -0.610123
O2    O     O_R   0.500000 0.316760 0.385350 -0.599637
O3    O     O_R   0.367850 0.499990 0.614680 -0.558950
O4    O     O_R   0.367840 0.499950 0.385340 -0.624462
O5    O     O_R   0.500000 0.683240 0.614650 -0.585695
O6    O     O_R   0.499990 0.683210 0.385310 -0.669347
O7    O     O_R   0.632160 0.500050 0.614660 -0.571001
O8    O     O_R   0.632150 0.500010 0.385320 -0.666040
Zn1   Zn    Zn3+2 0.500010 0.500020 0.653130 1.061121
Zn2   Zn    Zn3+2 0.499990 0.499980 0.346870 0.969211
F1    F     F_    0.764711 0.645469 0.684893 -0.683099
C35   C     C_2   0.490771 0.873488 0.870098 0.637598
H9    H     H_    0.518534 0.886047 0.970184 0.084698
O9    O     O_2   0.422370 0.811299 0.857483 -0.520678
C36   C     C_2   0.631245 0.886671 0.728455 0.304144
H10   H     H_    0.650543 0.840535 0.635247 0.098398
O10   O     O_2   0.686913 0.901564 0.816487 -0.477639
F2    F     F_    0.483066 0.125828 0.852875 -0.646507
C37   C     C_2   0.618769 0.666650 0.135463 0.405205
H11   H     H_    0.623357 0.673424 0.243119 0.135678
O11   O     O_2   0.668113 0.735106 0.068466 -0.527215
F3    F     F_    0.307430 0.491640 0.879094 -0.679129
F4    F     F_    0.335411 0.269989 0.134104 -0.652743
C38   C     C_2   0.905475 0.298897 0.194129 0.526180
H12   H     H_    0.850737 0.237036 0.224245 0.053145
O12   O     O_2   0.925487 0.307275 0.074313 -0.501400
C39   C     C_2   0.099226 0.294476 0.202440 0.542501
H13   H     H_    0.156800 0.333009 0.148499 0.092165
O13   O     O_2   0.078241 0.185062 0.184458 -0.483531
C40   C     C_2   0.239885 0.686709 0.670498 0.681975
H14   H     H_    0.224970 0.690620 0.778032 0.169794
O14   O     O_2   0.299260 0.753575 0.623550 -0.544158
F5    F     F_    0.086690 0.787929 0.723632 -0.634492
C41   C     C_2   0.904232 0.795267 0.727984 0.697845
H15   H     H_    0.845241 0.837253 0.685463 0.087809
O15   O     O_2   0.931170 0.832961 0.836885 -0.439368

loop_
_geom_bond_atom_site_label_1
_geom_bond_atom_site_label_2
_ccdc_geom_bond_type
C37   O11   D    
C3    C38   S    
C20   C35   S    
C26   N2    A    
C7    C8    A    
C21   H2    S    
O4    Zn2   S    
C26   C27   S    
O6    Zn2   S    
C40   O14   D    
C14   C21   S    
C5    C6    A    
C41   O15   D    
C1    O2    A    
C23   O5    A    
C3    C33   A    
C27   H4    S    
C15   C16   A    
C35   H9    S    
C18   C19   A    
C25   H3    S    
C38   H12   S    
N2    Zn1   S    
C22   N1    A    
C8    C9    A    
C1    C15   S    
C12   O4    A    
O3    Zn1   S    
C2    C34   A    
O1    Zn1   S    
C36   H10   S    
C22   C28   S    
C10   H7    S    
C12   O3    A    
C25   N2    A    
C5    C10   A    
O8    Zn2   S    
C17   C18   A    
C36   O10   D    
C40   H14   S    
C18   C23   S    
C28   F4    S    
C24   C25   A    
C39   O13   D    
C41   H15   S    
C16   C17   A    
C23   O6    A    
C28   H5    S    
C6    C34   A    
O7    Zn1   S    
N1    Zn2   S    
C31   C32   A    
O2    Zn2   S    
C33   C34   A    
C20   C21   S    
C20   C36   S    
C21   F2    S    
C24   C37   S    
C8    F5    S    
C3    C4    A    
C16   H8    S    
C29   O7    A    
C14   C19   A    
C4    C5    A    
C11   C12   S    
C6    C7    A    
C30   F1    S    
C2    C30   A    
C32   C33   A    
C19   C20   S    
C39   H13   S    
C29   C31   S    
C27   F3    S    
C11   C13   A    
C1    O1    A    
C30   C31   A    
O5    Zn1   S    
C35   O9    D    
C9    C41   S    
C32   H6    S    
C10   C11   A    
C37   H11   S    
C7    C13   A    
C13   C40   S    
C38   O12   D    
C22   C26   A    
C27   C28   S    
C24   N1    A    
C14   C15   A    
C17   H1    S    
C2    C9    A    
C4    C39   S    
C29   O8    A    
