data_mof_unit_62011.cif
_audit_creation_date              2013-03-05T16:18:07-0500
_audit_creation_method            fapswitch 2.2
_symmetry_space_group_name_H-M    P1
_symmetry_Int_Tables_number       1
_space_group_crystal_system       triclinic
_cell_length_a                    44.42855
_cell_length_b                    38.907991
_cell_length_c                    21.461396
_cell_angle_alpha                 90.000451
_cell_angle_beta                  118.837243
_cell_angle_gamma                 89.999627
_cell_volume                      32498.2311292

loop_
_atom_site_label
_atom_site_type_symbol
_atom_site_description
_atom_site_fract_x
_atom_site_fract_y
_atom_site_fract_z
_atom_type_partial_charge
O1    O     O_R   0.050910 0.028760 0.550880 -0.613581
O2    O     O_R   0.949090 0.028760 0.449120 -0.613693
O3    O     O_R   0.550910 0.528760 0.550880 -0.613700
O4    O     O_R   0.449090 0.528760 0.449120 -0.613716
O5    O     O_R   0.050940 0.971280 0.550860 -0.629931
O6    O     O_R   0.949060 0.971280 0.449140 -0.629840
O7    O     O_R   0.550940 0.471280 0.550860 -0.629818
O8    O     O_R   0.449060 0.471280 0.449140 -0.629802
C1    C     C_R   0.067245 0.000030 0.567047 0.900858
C2    C     C_R   0.932755 0.000030 0.432953 0.900693
C3    C     C_R   0.567245 0.500030 0.567048 0.900722
C4    C     C_R   0.432755 0.500030 0.432952 0.900762
O9    O     O_R   0.000010 0.028760 0.407400 -0.625345
O10   O     O_R   0.999990 0.028760 0.592600 -0.625311
O11   O     O_R   0.500010 0.528760 0.407400 -0.625270
O12   O     O_R   0.499990 0.528760 0.592600 -0.625289
O13   O     O_R   0.000040 0.971280 0.407380 -0.630039
O14   O     O_R   0.999960 0.971280 0.592620 -0.630068
O15   O     O_R   0.500040 0.471280 0.407380 -0.630099
O16   O     O_R   0.499960 0.471280 0.592620 -0.630080
C5    C     C_R   0.000541 0.999987 0.379105 0.878792
C6    C     C_R   0.999444 0.999988 0.620880 0.878751
C7    C     C_R   0.500556 0.499988 0.379121 0.878768
C8    C     C_R   0.499447 0.499988 0.620882 0.878779
Zn1   Zn    Zn3+2 0.000000 0.038400 0.500000 0.988365
Zn2   Zn    Zn3+2 0.500000 0.538400 0.500000 0.988406
Zn3   Zn    Zn3+2 0.000000 0.961640 0.500000 0.960537
Zn4   Zn    Zn3+2 0.500000 0.461640 0.500000 0.960517
C9    C     C_3   0.029608 0.024756 0.315525 0.180495
C10   C     C_3   0.970469 0.024860 0.684567 0.180643
C11   C     C_3   0.529530 0.524861 0.315433 0.180643
C12   C     C_3   0.470456 0.524842 0.684551 0.180618
H1    H     H_    0.023410 0.051349 0.325179 0.117102
H2    H     H_    0.976757 0.051430 0.674995 0.117110
H3    H     H_    0.523242 0.551430 0.325005 0.117113
H4    H     H_    0.476728 0.551416 0.674966 0.117109
C13   C     C_3   0.029262 0.025203 0.243311 -0.442985
C14   C     C_3   0.970831 0.025312 0.756798 -0.443156
C15   C     C_3   0.529168 0.525312 0.243202 -0.443159
C16   C     C_3   0.470814 0.525293 0.756779 -0.443127
H5    H     H_    0.054610 0.016901 0.249960 0.227084
H6    H     H_    0.945453 0.017117 0.750139 0.227053
H7    H     H_    0.554547 0.517118 0.249861 0.227054
H8    H     H_    0.445442 0.517078 0.750121 0.227060
H9    H     H_    0.024973 0.051941 0.222219 0.137091
H10   H     H_    0.975234 0.052033 0.777995 0.137054
H11   H     H_    0.524763 0.552033 0.222004 0.137055
H12   H     H_    0.475198 0.552017 0.777958 0.137062
H13   H     H_    0.961316 0.040637 0.266232 0.185610
H14   H     H_    0.038812 0.040495 0.733900 0.185474
H15   H     H_    0.461187 0.540493 0.266100 0.185507
H16   H     H_    0.538790 0.540520 0.733877 0.185526
H17   H     H_    0.959736 0.040733 0.158509 0.172215
H18   H     H_    0.040424 0.040561 0.841653 0.172311
H19   H     H_    0.459574 0.540559 0.158346 0.172322
H20   H     H_    0.540396 0.540591 0.841625 0.172302
C17   C     C_3   0.965780 0.014080 0.253127 -0.495717
C18   C     C_3   0.034258 0.013951 0.746901 -0.495881
C19   C     C_3   0.465742 0.513949 0.253099 -0.495830
C20   C     C_3   0.534251 0.513973 0.746896 -0.495810
C21   C     C_3   0.005427 0.963234 0.289006 -0.334657
C22   C     C_3   0.994426 0.963250 0.710838 -0.334649
C23   C     C_3   0.505576 0.463250 0.289163 -0.334658
C24   C     C_3   0.494451 0.463247 0.710865 -0.334651
C25   C     C_3   0.000820 0.000204 0.311218 0.047841
C26   C     C_3   0.999167 0.000205 0.688768 0.047869
C27   C     C_3   0.500833 0.500204 0.311232 0.047840
C28   C     C_3   0.499169 0.500205 0.688770 0.047835
H21   H     H_    0.983390 0.946804 0.281452 0.173474
H22   H     H_    0.016406 0.946742 0.718344 0.173612
H23   H     H_    0.483596 0.446741 0.281657 0.173593
H24   H     H_    0.516441 0.446753 0.718379 0.173570
H25   H     H_    0.028942 0.950725 0.331043 0.219243
H26   H     H_    0.970869 0.950826 0.668746 0.219152
H27   H     H_    0.529133 0.450827 0.331255 0.219155
H28   H     H_    0.470902 0.450809 0.668783 0.219178
C29   C     C_3   0.000184 0.001444 0.189660 0.113419
C30   C     C_3   0.999816 0.001436 0.810339 0.113414
C31   C     C_3   0.500184 0.501436 0.189661 0.113409
C32   C     C_3   0.499816 0.501437 0.810339 0.113410
C33   C     C_3   0.965149 0.014256 0.180951 -0.376678
C34   C     C_3   0.034899 0.014109 0.819087 -0.376499
C35   C     C_3   0.465100 0.514107 0.180913 -0.376502
C36   C     C_3   0.534891 0.514135 0.819080 -0.376532
C37   C     C_3   0.006821 0.964375 0.219062 -0.403060
C38   C     C_3   0.993029 0.964394 0.780779 -0.403046
C39   C     C_3   0.506972 0.464394 0.219221 -0.403041
C40   C     C_3   0.493055 0.464391 0.780807 -0.403048
H29   H     H_    0.032454 0.955328 0.228472 0.199388
H30   H     H_    0.967357 0.955451 0.771319 0.199570
H31   H     H_    0.532645 0.455452 0.228682 0.199570
H32   H     H_    0.467390 0.455429 0.771356 0.199537
H33   H     H_    0.987195 0.946559 0.179894 0.162983
H34   H     H_    0.012580 0.946497 0.819877 0.162843
H35   H     H_    0.487422 0.446496 0.180124 0.162838
H36   H     H_    0.512620 0.446508 0.819917 0.162865
H37   H     H_    0.944452 0.997759 0.249775 0.179799
H38   H     H_    0.055526 0.997558 0.750173 0.179858
H39   H     H_    0.444474 0.497556 0.249827 0.179863
H40   H     H_    0.555530 0.497593 0.750182 0.179853
H41   H     H_    0.943883 0.997338 0.143500 0.197290
H42   H     H_    0.056097 0.997099 0.856451 0.197221
H43   H     H_    0.443903 0.497097 0.143549 0.197226
H44   H     H_    0.556101 0.497141 0.856461 0.197238
C41   C     C_R   0.377093 0.999682 0.933554 -0.183925
C42   C     C_R   0.622907 0.000097 0.066447 -0.183923
C43   C     C_R   0.877093 0.500123 0.933553 -0.183922
C44   C     C_R   0.122907 0.500117 0.066446 -0.183920
H45   H     H_    0.390408 0.999259 0.991157 0.158228
H46   H     H_    0.609591 0.000010 0.008842 0.158272
H47   H     H_    0.890408 0.500057 0.991157 0.158276
H48   H     H_    0.109591 0.500045 0.008842 0.158275
C45   C     C_R   0.341395 0.999715 0.897706 -0.173871
C46   C     C_R   0.658605 0.000138 0.102295 -0.173862
C47   C     C_R   0.841395 0.500164 0.897704 -0.173862
C48   C     C_R   0.158605 0.500158 0.102295 -0.173863
H49   H     H_    0.327783 0.999023 0.928124 0.132779
H50   H     H_    0.672219 0.999782 0.071871 0.132826
H51   H     H_    0.827781 0.499829 0.928128 0.132832
H52   H     H_    0.172219 0.499817 0.071871 0.132831
C49   C     C_R   0.323466 0.000116 0.823170 0.114330
C50   C     C_R   0.676533 0.000118 0.176829 0.114272
C51   C     C_R   0.823467 0.500117 0.823171 0.114267
C52   C     C_R   0.176533 0.500118 0.176829 0.114269
C53   C     C_R   0.341568 0.000517 0.784807 -0.172462
C54   C     C_R   0.658432 0.000094 0.215192 -0.172464
C55   C     C_R   0.841567 0.500067 0.784808 -0.172463
C56   C     C_R   0.158433 0.500074 0.215192 -0.172464
H53   H     H_    0.328098 0.001234 0.727203 0.134444
H54   H     H_    0.671904 0.000477 0.272806 0.134480
H55   H     H_    0.828095 0.500429 0.727194 0.134484
H56   H     H_    0.171904 0.500442 0.272807 0.134484
C57   C     C_R   0.377252 0.000496 0.820595 -0.187809
C58   C     C_R   0.622748 0.000078 0.179405 -0.187835
C59   C     C_R   0.877252 0.500052 0.820595 -0.187838
C60   C     C_R   0.122748 0.500059 0.179406 -0.187836
H57   H     H_    0.390681 0.000902 0.789809 0.157707
H58   H     H_    0.609319 0.000147 0.210194 0.157731
H59   H     H_    0.890681 0.500099 0.789807 0.157734
H60   H     H_    0.109319 0.500112 0.210194 0.157733
C61   C     C_R   0.395257 0.000066 0.895218 -0.037540
C62   C     C_R   0.604743 0.000064 0.104782 -0.037580
C63   C     C_R   0.895257 0.500064 0.895218 -0.037584
C64   C     C_R   0.104743 0.500064 0.104782 -0.037582
C65   C     C_R   0.267941 0.978280 0.726933 -0.182751
C66   C     C_R   0.732056 0.977952 0.272457 -0.182721
C67   C     C_R   0.767944 0.477929 0.727585 -0.182719
C68   C     C_R   0.232056 0.477935 0.272424 -0.182722
H61   H     H_    0.281542 0.961019 0.709525 0.135318
H62   H     H_    0.718455 0.960438 0.289385 0.135325
H63   H     H_    0.781545 0.460398 0.710688 0.135327
H64   H     H_    0.218455 0.460408 0.289328 0.135328
C69   C     C_R   0.232253 0.978295 0.691007 -0.168563
C70   C     C_R   0.767744 0.977966 0.308381 -0.168607
C71   C     C_R   0.732256 0.477943 0.691661 -0.168608
C72   C     C_R   0.267744 0.477949 0.308348 -0.168606
H65   H     H_    0.218785 0.961471 0.645605 0.141305
H66   H     H_    0.781212 0.960880 0.353313 0.141159
H67   H     H_    0.718788 0.460839 0.646760 0.141151
H68   H     H_    0.281212 0.460848 0.353256 0.141158
C73   C     C_R   0.214151 0.000172 0.713136 0.105667
C74   C     C_R   0.785846 0.000174 0.286860 0.105730
C75   C     C_R   0.714154 0.500173 0.713141 0.105733
C76   C     C_R   0.285846 0.500174 0.286858 0.105731
C77   C     C_R   0.232078 0.022021 0.771559 -0.183649
C78   C     C_R   0.767916 0.022355 0.229044 -0.183596
C79   C     C_R   0.732084 0.522376 0.770916 -0.183592
C80   C     C_R   0.267916 0.522372 0.229075 -0.183594
H69   H     H_    0.218470 0.038852 0.789718 0.132838
H70   H     H_    0.781521 0.039447 0.211349 0.132838
H71   H     H_    0.718479 0.539486 0.788580 0.132840
H72   H     H_    0.281521 0.539478 0.211404 0.132841
C81   C     C_R   0.267768 0.021975 0.807543 -0.176638
C82   C     C_R   0.732226 0.022308 0.193059 -0.176634
C83   C     C_R   0.767774 0.522329 0.806902 -0.176634
C84   C     C_R   0.232226 0.522325 0.193089 -0.176635
H73   H     H_    0.281235 0.039213 0.852209 0.135293
H74   H     H_    0.718756 0.039800 0.148868 0.135338
H75   H     H_    0.781244 0.539839 0.851060 0.135343
H76   H     H_    0.218755 0.539831 0.148924 0.135343
C85   C     C_R   0.285872 0.000113 0.785388 0.103485
C86   C     C_R   0.714125 0.000116 0.214609 0.103429
C87   C     C_R   0.785875 0.500115 0.785392 0.103424
C88   C     C_R   0.214125 0.500116 0.214608 0.103426
C89   C     C_R   0.158582 0.968933 0.657316 -0.168314
C90   C     C_R   0.841418 0.968936 0.341909 -0.168360
C91   C     C_R   0.658583 0.468936 0.658146 -0.168359
C92   C     C_R   0.341417 0.468937 0.341862 -0.168356
H77   H     H_    0.172150 0.944623 0.671399 0.132946
H78   H     H_    0.827851 0.944635 0.327219 0.132928
H79   H     H_    0.672150 0.444636 0.672879 0.132928
H80   H     H_    0.327850 0.444636 0.327136 0.132929
C93   C     C_R   0.122893 0.968883 0.621905 -0.172533
C94   C     C_R   0.877106 0.968887 0.377332 -0.173659
C95   C     C_R   0.622893 0.468887 0.622722 -0.173728
C96   C     C_R   0.377106 0.468887 0.377286 -0.173683
H81   H     H_    0.109538 0.944462 0.608691 0.157879
H82   H     H_    0.890461 0.944470 0.389934 0.157847
H83   H     H_    0.609539 0.444472 0.610163 0.157845
H84   H     H_    0.390461 0.444471 0.389851 0.157845
C97   C     C_R   0.104786 0.000064 0.604153 -0.021282
C98   C     C_R   0.895214 0.000064 0.395843 -0.021779
C99   C     C_R   0.604786 0.500063 0.604158 -0.021813
C100  C     C_R   0.395214 0.500064 0.395842 -0.021784
C101  C     C_R   0.122831 0.031284 0.622084 -0.136382
C102  C     C_R   0.877170 0.031278 0.378666 -0.135161
C103  C     C_R   0.622829 0.531276 0.621282 -0.135075
C104  C     C_R   0.377171 0.531277 0.378709 -0.135093
H85   H     H_    0.109427 0.055679 0.608689 0.162211
H86   H     H_    0.890576 0.055667 0.392675 0.162751
H87   H     H_    0.609423 0.555665 0.607229 0.162785
H88   H     H_    0.390576 0.555666 0.392755 0.162763
C105  C     C_R   0.158519 0.031309 0.657549 -0.166365
C106  C     C_R   0.841482 0.031303 0.343210 -0.166434
C107  C     C_R   0.658518 0.531301 0.656737 -0.166434
C108  C     C_R   0.341482 0.531302 0.343254 -0.166433
H89   H     H_    0.172039 0.055644 0.670420 0.135583
H90   H     H_    0.827964 0.055630 0.330949 0.135644
H91   H     H_    0.672036 0.555628 0.668955 0.135648
H92   H     H_    0.327964 0.555629 0.331029 0.135644
C109  C     C_R   0.176563 0.000140 0.675407 0.109785
C110  C     C_R   0.823436 0.000139 0.324585 0.109745
C111  C     C_R   0.676564 0.500138 0.675416 0.109738
C112  C     C_R   0.323436 0.500139 0.324584 0.109739
O17   O     O_R   0.028770 0.050900 0.028770 -0.625466
O18   O     O_R   0.971230 0.050900 0.971230 -0.625455
O19   O     O_R   0.528770 0.550900 0.028770 -0.625451
O20   O     O_R   0.471230 0.550900 0.971230 -0.625452
C113  C     C_R   1.000000 0.067196 1.000000 0.855931
C114  C     C_R   0.500000 0.567196 1.000000 0.855962
O21   O     O_R   0.028750 0.000000 0.121310 -0.624482
O22   O     O_R   0.971250 0.000000 0.878690 -0.624463
O23   O     O_R   0.528750 0.500000 0.121310 -0.624464
O24   O     O_R   0.471250 0.500000 0.878690 -0.624467
O25   O     O_R   0.971270 0.000040 0.063860 -0.628805
O26   O     O_R   0.028730 0.000040 0.936140 -0.628823
O27   O     O_R   0.471270 0.500040 0.063860 -0.628819
O28   O     O_R   0.528730 0.500040 0.936140 -0.628817
C115  C     C_R   0.999999 0.001401 0.121333 0.856092
C116  C     C_R   0.000001 0.001390 0.878666 0.856103
C117  C     C_R   0.499999 0.501389 0.121334 0.856099
C118  C     C_R   0.500001 0.501392 0.878666 0.856098
Zn5   Zn    Zn3+2 0.038400 0.999990 0.038350 0.953127
Zn6   Zn    Zn3+2 0.961600 0.999990 0.961650 0.953161
Zn7   Zn    Zn3+2 0.538400 0.499990 0.038350 0.953165
Zn8   Zn    Zn3+2 0.461600 0.499990 0.961650 0.953164
O29   O     O_R   0.028750 0.949090 0.028660 -0.619987
O30   O     O_R   0.971250 0.949090 0.971340 -0.619992
O31   O     O_R   0.528750 0.449090 0.028660 -0.619995
O32   O     O_R   0.471250 0.449090 0.971340 -0.619994
C119  C     C_R   0.000000 0.932810 0.000000 0.866783
C120  C     C_R   0.500000 0.432810 0.000000 0.866751
O33   O     O_R   0.500050 0.949040 0.947810 -0.624383
O34   O     O_R   0.499950 0.949040 0.052190 -0.624470
O35   O     O_R   0.000050 0.449040 0.947810 -0.624425
O36   O     O_R   0.999950 0.449040 0.052190 -0.624423
C121  C     C_R   0.500000 0.932753 1.000000 0.868846
C122  C     C_R   0.000000 0.432753 1.000000 0.868844
O37   O     O_R   0.449110 0.999950 0.896830 -0.626428
O38   O     O_R   0.550890 0.999950 0.103170 -0.626427
O39   O     O_R   0.949110 0.499950 0.896830 -0.626427
O40   O     O_R   0.050890 0.499950 0.103170 -0.626425
O41   O     O_R   0.449110 0.000020 0.001380 -0.622577
O42   O     O_R   0.550890 0.000020 0.998620 -0.622585
O43   O     O_R   0.949110 0.500020 0.001380 -0.622584
O44   O     O_R   0.050890 0.500020 0.998620 -0.622583
C123  C     C_R   0.432816 0.000015 0.932823 0.867978
C124  C     C_R   0.567184 0.000014 0.067177 0.867984
C125  C     C_R   0.932816 0.500014 0.932823 0.867981
C126  C     C_R   0.067184 0.500014 0.067177 0.867980
Zn9   Zn    Zn3+2 0.500020 0.999940 0.930180 0.951643
Zn10  Zn    Zn3+2 0.499980 0.999940 0.069820 0.951647
Zn11  Zn    Zn3+2 0.000020 0.499940 0.930180 0.951654
Zn12  Zn    Zn3+2 0.999980 0.499940 0.069820 0.951654
O45   O     O_R   0.500000 0.050860 0.947620 -0.621930
O46   O     O_R   0.500000 0.050860 0.052380 -0.621841
O47   O     O_R   0.000000 0.550860 0.947620 -0.621882
O48   O     O_R   0.000000 0.550860 0.052380 -0.621884
C127  C     C_R   0.500000 0.067103 0.000000 0.870135
C128  C     C_R   1.000000 0.567103 0.000000 0.870132
C129  C     C_R   0.494750 0.877153 0.939011 -0.189900
C130  C     C_R   0.505249 0.877153 0.060987 -0.189967
C131  C     C_R   0.994749 0.377153 0.939010 -0.189936
C132  C     C_R   0.005250 0.377153 0.060988 -0.189934
H93   H     H_    0.490441 0.890560 0.891177 0.157479
H94   H     H_    0.509560 0.890560 0.108821 0.157454
H95   H     H_    0.990438 0.390560 0.891176 0.157460
H96   H     H_    0.009561 0.390560 0.108822 0.157461
C133  C     C_R   0.494651 0.841456 0.938957 -0.173136
C134  C     C_R   0.505349 0.841457 0.061041 -0.173142
C135  C     C_R   0.994650 0.341456 0.938956 -0.173139
C136  C     C_R   0.005349 0.341456 0.061041 -0.173141
H97   H     H_    0.490010 0.827950 0.891001 0.134261
H98   H     H_    0.509989 0.827950 0.108997 0.134253
H99   H     H_    0.990008 0.327950 0.890999 0.134256
H100  H     H_    0.009991 0.327950 0.108997 0.134255
C137  C     C_R   0.500000 0.823410 0.999999 0.135886
C138  C     C_R   0.999999 0.323410 0.999998 0.135886
C139  C     C_R   0.500000 0.895218 0.999999 -0.036515
C140  C     C_R   1.000000 0.395218 0.999999 -0.036508
C141  C     C_R   0.482616 0.767795 0.029566 -0.224138
C142  C     C_R   0.517383 0.767794 0.970430 -0.224138
C143  C     C_R   0.982616 0.267794 0.029565 -0.224142
C144  C     C_R   0.017382 0.267794 0.970429 -0.224143
H101  H     H_    0.468853 0.781669 0.051851 0.141994
H102  H     H_    0.531146 0.781668 0.948145 0.141998
H103  H     H_    0.968853 0.281669 0.051851 0.142000
H104  H     H_    0.031145 0.281669 0.948143 0.141999
C145  C     C_R   0.982583 0.232033 0.029979 0.010654
C146  C     C_R   0.017415 0.232033 0.970014 0.010655
C147  C     C_R   0.482583 0.732033 0.029981 0.010655
C148  C     C_R   0.517416 0.732033 0.970016 0.010654
C149  C     C_R   0.999999 0.213926 0.999997 -0.017840
C150  C     C_R   0.499999 0.713926 0.999998 -0.017836
C151  C     C_R   0.500000 0.785768 0.999998 0.067402
C152  C     C_R   0.999999 0.285768 0.999997 0.067398
C153  C     C_R   0.969308 0.158477 0.959284 -0.148159
C154  C     C_R   0.030691 0.158477 0.040711 -0.148172
C155  C     C_R   0.469308 0.658477 0.959289 -0.148158
C156  C     C_R   0.530692 0.658477 0.040708 -0.148159
H105  H     H_    0.945516 0.172237 0.927476 0.137952
H106  H     H_    0.054482 0.172238 0.072519 0.137946
H107  H     H_    0.445516 0.672237 0.927483 0.137954
H108  H     H_    0.554483 0.672237 0.072514 0.137953
C157  C     C_R   0.969258 0.122781 0.959441 -0.190016
C158  C     C_R   0.030741 0.122781 0.040556 -0.190039
C159  C     C_R   0.469258 0.622781 0.959445 -0.190016
C160  C     C_R   0.530741 0.622781 0.040553 -0.190012
H109  H     H_    0.945266 0.109378 0.927538 0.159588
H110  H     H_    0.054733 0.109379 0.072459 0.159573
H111  H     H_    0.445266 0.609378 0.927546 0.159587
H112  H     H_    0.554734 0.609379 0.072453 0.159588
C161  C     C_R   1.000000 0.104716 0.999999 -0.041281
C162  C     C_R   0.500000 0.604716 0.999999 -0.041295
C163  C     C_R   0.999999 0.176322 0.999997 0.120154
C164  C     C_R   0.499999 0.676322 0.999999 0.120146
C165  C     C_R   0.489578 0.122644 0.936242 -0.188060
C166  C     C_R   0.510421 0.122644 0.063759 -0.188006
C167  C     C_R   0.989573 0.622644 0.936240 -0.188034
C168  C     C_R   0.010427 0.622644 0.063761 -0.188036
H113  H     H_    0.481252 0.109177 0.886420 0.156134
H114  H     H_    0.518748 0.109177 0.113581 0.156167
H115  H     H_    0.981241 0.609177 0.886417 0.156164
H116  H     H_    0.018758 0.609177 0.113584 0.156164
C169  C     C_R   0.489338 0.158356 0.936200 -0.147925
C170  C     C_R   0.510662 0.158357 0.063802 -0.147933
C171  C     C_R   0.989332 0.658356 0.936198 -0.147929
C172  C     C_R   0.010668 0.658356 0.063804 -0.147928
H117  H     H_    0.480903 0.172096 0.886621 0.137448
H118  H     H_    0.519097 0.172097 0.113382 0.137456
H119  H     H_    0.980893 0.672096 0.886617 0.137457
H120  H     H_    0.019108 0.672096 0.113385 0.137458
C173  C     C_R   0.500000 0.176250 0.000001 0.136612
C174  C     C_R   0.000000 0.676250 0.000002 0.136606
C175  C     C_R   0.500000 0.104604 0.000000 -0.036800
C176  C     C_R   1.000000 0.604603 0.000001 -0.036815
C177  C     C_R   0.522485 0.231957 0.982520 -0.045394
C178  C     C_R   0.477515 0.231958 0.017483 -0.045402
C179  C     C_R   0.022479 0.731957 0.982504 -0.045394
C180  C     C_R   0.977522 0.731958 0.017500 -0.045394
C181  C     C_R   0.022204 0.767991 0.981726 -0.044843
C182  C     C_R   0.977797 0.767992 0.018280 -0.044842
C183  C     C_R   0.522210 0.267991 0.981742 -0.044843
C184  C     C_R   0.477791 0.267992 0.018261 -0.044843
C185  C     C_R   0.000001 0.785970 0.000003 -0.046511
C186  C     C_R   0.500000 0.285970 0.000002 -0.046510
C187  C     C_R   0.500000 0.213977 0.000002 -0.046190
C188  C     C_R   0.000000 0.713977 0.000002 -0.046189
C189  C     C_R   0.029209 0.841587 0.049015 -0.147480
C190  C     C_R   0.970791 0.841587 0.950988 -0.147482
C191  C     C_R   0.529207 0.341587 0.049025 -0.147484
C192  C     C_R   0.470794 0.341587 0.950977 -0.147482
H121  H     H_    0.051822 0.827847 0.087287 0.138239
H122  H     H_    0.948179 0.827846 0.912717 0.138235
H123  H     H_    0.551817 0.327847 0.087305 0.138236
H124  H     H_    0.448183 0.327846 0.912697 0.138238
C193  C     C_R   0.029319 0.877298 0.048691 -0.191818
C194  C     C_R   0.970681 0.877298 0.951311 -0.191838
C195  C     C_R   0.529317 0.377298 0.048701 -0.191837
C196  C     C_R   0.470684 0.377298 0.951300 -0.191832
H125  H     H_    0.052118 0.890778 0.086964 0.157578
H126  H     H_    0.947882 0.890777 0.913038 0.157568
H127  H     H_    0.552114 0.390778 0.086982 0.157564
H128  H     H_    0.447886 0.390778 0.913019 0.157567
C197  C     C_R   0.000000 0.895327 0.000001 -0.042192
C198  C     C_R   0.500000 0.395328 0.000000 -0.042176
C199  C     C_R   0.000000 0.823694 0.000002 0.136265
C200  C     C_R   0.500000 0.323695 0.000001 0.136265
N1    N     N_R   0.063733 0.015811 0.374082 0.200648
O49   O     O_R   0.079602 0.988101 0.371892 -0.413107
O50   O     O_R   0.079268 0.036778 0.427496 -0.398622
N2    N     N_R   0.936309 0.016033 0.625999 0.200697
O51   O     O_R   0.920343 0.988384 0.628117 -0.412996
O52   O     O_R   0.920841 0.037051 0.572653 -0.398922
N3    N     N_R   0.563691 0.516035 0.374000 0.200700
O53   O     O_R   0.579657 0.488386 0.371882 -0.412987
O54   O     O_R   0.579159 0.537053 0.427346 -0.398954
N4    N     N_R   0.436301 0.515996 0.625985 0.200699
O55   O     O_R   0.420353 0.488335 0.628113 -0.412982
O56   O     O_R   0.420821 0.537006 0.572630 -0.398970
C201  C     C_1   0.965039 0.214466 0.062552 0.151888
N5    N     N_1   0.950998 0.200385 0.088627 -0.202271
C202  C     C_1   0.034960 0.214466 0.937441 0.151896
N6    N     N_1   0.049000 0.200383 0.911366 -0.202273
C203  C     C_1   0.465039 0.714467 0.062554 0.151894
N7    N     N_1   0.450998 0.700385 0.088629 -0.202262
C204  C     C_1   0.534960 0.714466 0.937443 0.151895
N8    N     N_1   0.549000 0.700383 0.911367 -0.202262
C205  C     C_1   0.546311 0.213395 0.966583 0.175043
N9    N     N_1   0.565300 0.198588 0.953895 -0.194384
C206  C     C_1   0.453689 0.213396 0.033420 0.175055
N10   N     N_1   0.434700 0.198590 0.046108 -0.194343
C207  C     C_1   0.046299 0.713395 0.966548 0.175047
N11   N     N_1   0.065283 0.698588 0.953846 -0.194380
C208  C     C_1   0.953701 0.713396 0.033455 0.175044
N12   N     N_1   0.934717 0.698589 0.046157 -0.194383
C209  C     C_1   0.044305 0.786556 0.960917 0.174294
N13   N     N_1   0.061910 0.801367 0.944325 -0.196764
C210  C     C_1   0.955696 0.786557 0.039088 0.174298
N14   N     N_1   0.938091 0.801369 0.055681 -0.196769
C211  C     C_1   0.544318 0.286556 0.960951 0.174292
N15   N     N_1   0.561928 0.301367 0.944372 -0.196771
C212  C     C_1   0.455683 0.286558 0.039052 0.174293
N16   N     N_1   0.438073 0.301369 0.055631 -0.196767

loop_
_geom_bond_atom_site_label_1
_geom_bond_atom_site_label_2
_geom_bond_distance
_ccdc_geom_bond_type
C127  C175  1.459077 S    
C57   H57   1.083068 S    
C39   H31   1.113477 S    
C142  C151  1.400352 A    
C149  C163  1.463108 S    
C160  H112  1.083000 S    
C31   C39   1.544656 S    
C21   H21   1.113729 S    
C59   H59   1.082983 S    
C114  C162  1.459843 S    
C61   C123  1.461750 S    
C15   H11   1.113666 S    
C70   H66   1.083190 S    
C18   C34   1.535685 S    
N1    O50   1.301063 A    
C95   C99   1.402891 A    
O32   C120  1.285771 A    
C9    H1    1.115477 S    
C93   C97   1.403012 A    
C10   C14   1.542598 S    
C84   C88   1.401814 A    
C51   C87   1.463041 S    
C106  C110  1.401307 A    
C143  C152  1.400354 A    
C66   H62   1.083187 S    
C100  C104  1.402998 A    
C185  C199  1.467800 S    
C186  C200  1.467800 S    
O4    C4    1.285958 A    
C67   C71   1.388959 A    
C16   H8    1.112617 S    
C60   H60   1.082991 S    
C102  C106  1.388974 A    
C89   C109  1.401430 A    
O36   Zn12  2.016110 S    
C134  C137  1.401918 A    
C144  C152  1.400350 A    
C77   H69   1.083286 S    
O40   Zn12  2.016590 S    
C155  H107  1.083444 S    
C78   C82   1.389037 A    
C47   C51   1.401448 A    
C154  C163  1.398413 A    
C76   C80   1.401954 A    
C137  C151  1.464578 S    
N2    O52   1.301062 A    
C38   H30   1.113474 S    
C10   H2    1.115472 S    
O15   C7    1.276466 A    
C79   H71   1.083184 S    
C14   C30   1.553789 S    
C133  H97   1.083158 S    
O7    Zn4   2.017709 S    
C169  C173  1.399390 A    
C194  H126  1.083142 S    
O41   C123  1.288950 A    
C108  C112  1.401305 A    
C30   C34   1.557427 S    
O18   Zn6   2.015953 S    
C66   C70   1.388959 A    
C141  H101  1.084517 S    
C104  H88   1.082996 S    
C17   H37   1.113809 S    
C145  C201  1.445352 S    
O9    C5    1.279209 A    
C2    C98   1.461093 S    
C190  H122  1.083399 S    
C113  C161  1.459839 S    
C184  C212  1.452034 S    
C23   H23   1.113731 S    
O42   Zn9   2.015720 S    
N1    O49   1.301397 A    
O8    Zn4   2.017706 S    
H19   C35   1.113269 S    
C44   C64   1.403079 A    
C12   C16   1.542592 S    
C83   C87   1.401801 A    
C16   H12   1.113663 S    
C153  H105  1.083448 S    
C189  C199  1.399429 A    
C57   C61   1.403281 A    
O3    Zn2   2.016556 S    
C19   C35   1.535681 S    
C20   H40   1.113811 S    
C15   H7    1.112618 S    
C177  C187  1.410546 A    
C142  H102  1.084519 S    
C53   C57   1.388806 A    
C133  C137  1.401920 A    
C63   C125  1.461750 S    
C32   C40   1.544645 S    
C203  N7    1.157255 T    
C159  H111  1.083001 S    
O23   Zn7   2.022402 S    
C69   C73   1.401898 A    
O28   Zn7   2.021693 S    
C31   C117  1.462454 S    
C55   H55   1.083239 S    
O3    C3    1.285958 A    
C32   C118  1.462454 S    
C53   H53   1.083325 S    
C54   C58   1.388806 A    
C205  N9    1.157322 T    
C159  C162  1.403654 A    
C73   C77   1.402065 A    
C146  C202  1.445351 S    
C211  N15   1.157321 T    
C75   C79   1.401945 A    
C210  N14   1.157318 T    
C18   H38   1.113808 S    
C82   C86   1.401809 A    
C201  N5    1.157258 T    
C172  C174  1.399388 A    
C33   H41   1.113319 S    
C49   C53   1.401292 A    
C22   C38   1.532580 S    
C22   H22   1.113730 S    
C35   H43   1.113326 S    
C24   C28   1.559586 S    
C41   C45   1.389338 A    
C62   C124  1.461750 S    
C52   C88   1.463041 S    
C69   H65   1.083300 S    
O20   Zn8   2.015953 S    
O44   Zn11  2.015720 S    
C65   C85   1.402138 A    
H13   C17   1.113500 S    
C154  C158  1.388880 A    
C7    C27   1.462984 S    
H16   C20   1.113506 S    
C19   C27   1.548199 S    
O5    Zn3   2.017709 S    
C37   H33   1.113722 S    
C130  C134  1.388885 A    
O6    Zn3   2.017706 S    
C184  C186  1.410498 A    
O36   C122  1.287845 A    
C178  C184  1.402101 A    
C81   H73   1.083277 S    
O38   C124  1.288485 A    
O39   C125  1.288485 A    
O42   C124  1.288951 A    
C143  C145  1.391426 A    
C11   C27   1.563039 S    
C59   C63   1.403176 A    
C29   C37   1.544621 S    
C103  H87   1.082984 S    
C130  C139  1.402544 A    
C95   H83   1.082978 S    
C191  C195  1.389485 A    
C22   C26   1.559576 S    
C71   H67   1.083187 S    
O13   Zn3   2.023677 S    
C136  H100  1.083157 S    
C106  H90   1.083228 S    
C138  C152  1.464578 S    
C165  C175  1.402956 A    
O34   C121  1.287843 A    
C71   C75   1.401788 A    
C48   H52   1.083226 S    
C73   C109  1.462914 S    
C40   H36   1.113725 S    
C190  C194  1.389485 A    
C67   H63   1.083185 S    
O5    C1    1.286073 A    
C21   C25   1.559594 S    
C102  H86   1.082998 S    
C51   C55   1.401155 A    
C177  C205  1.452022 S    
O8    C4    1.286073 A    
C34   H42   1.113323 S    
C196  C198  1.402769 A    
C10   C26   1.563027 S    
C182  C210  1.452029 S    
C148  C204  1.445351 S    
C157  H109  1.083002 S    
O15   Zn4   2.023677 S    
C132  C136  1.388885 A    
O24   C118  1.278758 A    
C45   H49   1.083302 S    
C155  C159  1.388876 A    
C78   H70   1.083190 S    
C47   H51   1.083218 S    
C167  C176  1.402953 A    
C36   H44   1.113324 S    
C183  C186  1.410497 A    
C9    C25   1.562980 S    
C96   C100  1.402903 A    
C180  C208  1.452020 S    
C9    C13   1.542579 S    
O37   Zn9   2.016585 S    
C79   C83   1.389037 A    
C153  C157  1.388880 A    
C80   C84   1.389037 A    
Zn7   O31   2.015719 S    
O41   Zn10  2.015717 S    
O31   C120  1.285775 A    
O14   C6    1.276465 A    
C43   H47   1.082976 S    
O19   Zn7   2.015950 S    
C70   C74   1.401793 A    
C68   H64   1.083189 S    
C89   H77   1.083305 S    
O29   C119  1.285776 A    
C167  C171  1.389524 A    
O27   C117  1.278530 A    
C92   H80   1.083223 S    
O10   C6    1.279203 A    
C94   H82   1.082995 S    
C91   C111  1.401340 A    
N4    O56   1.301062 A    
C4    C100  1.461093 S    
C171  C174  1.399389 A    
C13   H5    1.112613 S    
C17   C33   1.535698 S    
C65   H61   1.083271 S    
C14   H10   1.113660 S    
C101  C105  1.388970 A    
O33   C121  1.287844 A    
C144  H104  1.084519 S    
C45   C49   1.401590 A    
O47   C128  1.289620 A    
C97   C101  1.403099 A    
C178  C206  1.452024 S    
C182  C185  1.410494 A    
C177  C183  1.402101 A    
C183  C211  1.452032 S    
C207  N11   1.157313 T    
C136  C138  1.401917 A    
C32   C36   1.557428 S    
O20   C114  1.286757 A    
C119  C197  1.458365 S    
C156  H108  1.083443 S    
O26   Zn5   2.021693 S    
C55   C59   1.388806 A    
C56   C60   1.388806 A    
Zn8   O32   2.015718 S    
C147  C203  1.445352 S    
C54   H54   1.083244 S    
C11   N3    1.470060 S    
C94   C98   1.402908 A    
H17   C33   1.113264 S    
C166  C175  1.402956 A    
C135  C138  1.401916 A    
O43   C125  1.288951 A    
C92   C96   1.388993 A    
C160  C162  1.403651 A    
C74   C78   1.401949 A    
C105  C109  1.401381 A    
C158  H110  1.083000 S    
C74   C110  1.462984 S    
C42   C62   1.403079 A    
C192  C196  1.389485 A    
C82   H74   1.083186 S    
C52   C56   1.401169 A    
C23   C39   1.532583 S    
C90   C110  1.401355 A    
O35   C122  1.287842 A    
C81   C85   1.401977 A    
C134  H98   1.083156 S    
O12   Zn2   2.022625 S    
C178  C187  1.410543 A    
C90   C94   1.388993 A    
H20   C36   1.113271 S    
C191  C200  1.399433 A    
C129  H93   1.083058 S    
N3    O54   1.301062 A    
C174  C188  1.467893 S    
C66   C86   1.401965 A    
C131  H95   1.083056 S    
H14   C18   1.113500 S    
C108  H92   1.083227 S    
C132  H96   1.083056 S    
O1    C1    1.285960 A    
C193  C197  1.402767 A    
C180  C188  1.410541 A    
C154  H106  1.083442 S    
C179  C207  1.452021 S    
C21   H25   1.110425 S    
C13   C29   1.553843 S    
C132  C140  1.402542 A    
Zn11  O47   2.016316 S    
C192  H124  1.083400 S    
C179  C188  1.410540 A    
C15   C31   1.553796 S    
O38   Zn10  2.016590 S    
O45   C127  1.289620 A    
C193  H125  1.083142 S    
C107  H91   1.083218 S    
C58   C62   1.403185 A    
C195  H127  1.083142 S    
C192  C200  1.399434 A    
O46   C127  1.289619 A    
C29   C33   1.557398 S    
Zn10  O46   2.016323 S    
C103  C107  1.388974 A    
C3    C99   1.461093 S    
C1    C97   1.461097 S    
C189  H121  1.083396 S    
C9    N1    1.470065 S    
C42   C46   1.389339 A    
C191  H123  1.083398 S    
C195  C198  1.402770 A    
C83   H75   1.083182 S    
C11   H3    1.115479 S    
C12   H4    1.115480 S    
H18   C34   1.113264 S    
C49   C85   1.463115 S    
C181  C185  1.410491 A    
C141  C151  1.400351 A    
C37   H29   1.113477 S    
C48   C52   1.401461 A    
C5    C25   1.462991 S    
O22   Zn6   2.022405 S    
O25   C115  1.278557 A    
C168  H116  1.083111 S    
C17   C25   1.548234 S    
N2    O51   1.301396 A    
O6    C2    1.286073 A    
O4    Zn2   2.016562 S    
N3    O53   1.301401 A    
C14   H6    1.112614 S    
C72   H68   1.083192 S    
O17   Zn5   2.015950 S    
O16   Zn4   2.023672 S    
C12   N4    1.470062 S    
C131  C135  1.388889 A    
C44   C48   1.389342 A    
C60   C64   1.403189 A    
O24   Zn8   2.022405 S    
C31   C35   1.557434 S    
C41   H45   1.083069 S    
O33   Zn9   2.016115 S    
O34   Zn10  2.016110 S    
C148  C150  1.410467 A    
O27   Zn8   2.021692 S    
O2    Zn1   2.016562 S    
O10   Zn1   2.022625 S    
C169  H117  1.083405 S    
O17   C113  1.286755 A    
O25   Zn6   2.021692 S    
O37   C123  1.288486 A    
C8    C28   1.462984 S    
C171  H119  1.083402 S    
C44   H48   1.082986 S    
C80   H72   1.083189 S    
C189  C193  1.389485 A    
C20   C28   1.548202 S    
C142  C148  1.391422 A    
C206  N10   1.157320 T    
C29   C115  1.462453 S    
C135  H99   1.083156 S    
C22   H26   1.110425 S    
C68   C72   1.388963 A    
C24   C40   1.532581 S    
C165  H113  1.083113 S    
C146  C149  1.410467 A    
O13   C5    1.276453 A    
C167  H115  1.083110 S    
C90   H78   1.083224 S    
C13   H9    1.113660 S    
C19   H39   1.113809 S    
C190  C199  1.399427 A    
C64   C126  1.461750 S    
C202  N6    1.157257 T    
C96   H84   1.082993 S    
C129  C139  1.402542 A    
C180  C182  1.402101 A    
C209  N13   1.157316 T    
O7    C3    1.286071 A    
C23   H27   1.110430 S    
O35   Zn11  2.016115 S    
Zn9   O45   2.016316 S    
C10   N2    1.470059 S    
C41   C61   1.403169 A    
C173  C187  1.467893 S    
O40   C126  1.288488 A    
C77   C81   1.389037 A    
C172  H120  1.083403 S    
O21   C115  1.278747 A    
C76   C112  1.462984 S    
C6    C26   1.462984 S    
C38   H34   1.113723 S    
C131  C140  1.402541 A    
C18   C26   1.548196 S    
O16   C8    1.276465 A    
C122  C140  1.460411 S    
C204  N8    1.157258 T    
C16   C32   1.553805 S    
C194  C197  1.402766 A    
C91   H79   1.083212 S    
C144  C146  1.391422 A    
O30   C119  1.285773 A    
C12   C28   1.563025 S    
C165  C169  1.389524 A    
C30   C38   1.544646 S    
O11   C7    1.279202 A    
C120  C198  1.458361 S    
O12   C8    1.279202 A    
C158  C161  1.403658 A    
O1    Zn1   2.016556 S    
C156  C164  1.398412 A    
O9    Zn1   2.022615 S    
C56   H56   1.083247 S    
C121  C139  1.460411 S    
C170  H118  1.083404 S    
C23   C27   1.559580 S    
C145  C149  1.410465 A    
C40   H32   1.113478 S    
O44   C126  1.288951 A    
C212  N16   1.157323 T    
C105  H89   1.083313 S    
O11   Zn2   2.022615 S    
C143  H103  1.084515 S    
C166  H114  1.083114 S    
C99   C103  1.402983 A    
O26   C116  1.278529 A    
O39   Zn11  2.016585 S    
C39   H35   1.113724 S    
C50   C54   1.401171 A    
O21   Zn5   2.022402 S    
C84   H76   1.083186 S    
C208  N12   1.157317 T    
C101  H85   1.083068 S    
C68   C88   1.401966 A    
Zn6   O30   2.015718 S    
C24   H28   1.110428 S    
C168  C176  1.402952 A    
C179  C181  1.402101 A    
C43   C47   1.389339 A    
C46   H50   1.083228 S    
C21   C37   1.532580 S    
C92   C112  1.401351 A    
O23   C117  1.278760 A    
C150  C164  1.463108 S    
C130  H94   1.083057 S    
O48   C128  1.289619 A    
H15   C19   1.113507 S    
O2    C2    1.285958 A    
C42   H46   1.082984 S    
C67   C87   1.401958 A    
C30   C116  1.462454 S    
C170  C173  1.399392 A    
C91   C95   1.388993 A    
Zn12  O48   2.016323 S    
O14   Zn3   2.023672 S    
C89   C93   1.389002 A    
C107  C111  1.401292 A    
C58   H58   1.082992 S    
C75   C111  1.462988 S    
O18   C113  1.286759 A    
O28   C118  1.278534 A    
Zn5   O29   2.015719 S    
C166  C170  1.389524 A    
C196  H128  1.083144 S    
C65   C69   1.388967 A    
C141  C147  1.391426 A    
C20   C36   1.535686 S    
C157  C161  1.403656 A    
C153  C163  1.398413 A    
C93   H81   1.083062 S    
C11   C15   1.542594 S    
C181  C209  1.452030 S    
C24   H24   1.113733 S    
C46   C50   1.401460 A    
O43   Zn12  2.015717 S    
C50   C86   1.463045 S    
O19   C114  1.286753 A    
C72   C76   1.401796 A    
C104  C108  1.388974 A    
C98   C102  1.402999 A    
C147  C150  1.410467 A    
C155  C164  1.398410 A    
O22   C116  1.278760 A    
N4    O55   1.301403 A    
C156  C160  1.388880 A    
C168  C172  1.389524 A    
C128  C176  1.459069 S    
C43   C63   1.403074 A    
C129  C133  1.388885 A    
