data_mof_unit_64169.cif
_audit_creation_date              2012-12-10T20:58:41-0500
_audit_creation_method            fapswitch 2.2
_symmetry_space_group_name_H-M    P1
_symmetry_Int_Tables_number       1
_space_group_crystal_system       triclinic
_cell_length_a                    15.877298
_cell_length_b                    15.075526
_cell_length_c                    14.179202
_cell_angle_alpha                 89.99984
_cell_angle_beta                  89.982219
_cell_angle_gamma                 90.000456
_cell_volume                      3393.91404298

loop_
_atom_site_label
_atom_site_type_symbol
_atom_type_description
_atom_site_fract_x
_atom_site_fract_y
_atom_site_fract_z
_atom_type_partial_charge
C1    C     C_1   0.250759 0.499997 0.500052 -0.164236
C2    C     C_R   0.661075 0.500000 0.499955 0.894681
C3    C     C_R   0.500000 0.500000 0.328644 0.886987
C4    C     C_R   0.500000 0.500000 0.671356 0.886986
C5    C     C_1   0.499999 0.807138 0.500000 0.352258
C6    C     C_1   0.499999 0.192862 0.500000 0.352240
C7    C     C_1   0.500000 0.500000 0.227339 -0.184711
C8    C     C_1   0.500000 0.500000 0.772661 -0.184712
C9    C     C_1   0.500000 0.500000 0.142244 0.005330
C10   C     C_1   0.500001 0.500000 0.857755 0.005330
C11   C     C_1   0.500001 0.500000 0.042545 0.022921
C12   C     C_1   0.749241 0.500000 0.499945 -0.164179
C13   C     C_1   0.500001 0.500000 0.957455 0.022921
C14   C     C_R   0.423924 0.953113 0.497145 0.507422
C15   C     C_R   0.576072 0.046888 0.502871 0.507413
C16   C     C_R   0.576073 0.953114 0.502856 0.507435
C17   C     C_R   0.423925 0.046886 0.497130 0.507405
C18   C     C_R   0.955839 0.581505 0.498601 0.105816
C19   C     C_R   0.044163 0.418478 0.499323 0.105663
C20   C     C_R   0.044166 0.581512 0.500695 0.105718
C21   C     C_R   0.955833 0.418486 0.501352 0.105736
C22   C     C_3   0.117958 0.692375 0.592109 -0.710273
C23   C     C_R   0.913001 0.499996 0.499962 0.014905
C24   C     C_3   0.881937 0.308307 0.593648 -0.709458
C25   C     C_3   0.882052 0.691674 0.406241 -0.710748
C26   C     C_3   0.118054 0.307617 0.407957 -0.709000
C27   C     C_R   0.086999 0.499994 0.500027 0.014930
C28   C     C_1   0.823917 0.499998 0.499946 0.060242
C29   C     C_1   0.176083 0.499994 0.500047 0.060155
C30   C     C_R   0.499999 0.905052 0.500000 -0.405515
C31   C     C_R   0.499999 0.094949 0.500000 -0.405277
C32   C     C_R   0.338925 0.499999 0.500045 0.894724
F1    F     F_    0.349337 0.090819 0.494300 -0.604376
F2    F     F_    0.650662 0.909182 0.505641 -0.603756
F3    F     F_    0.650660 0.090821 0.505702 -0.604231
F4    F     F_    0.349336 0.909180 0.494360 -0.603908
H1    H     H_    0.064496 0.712665 0.460195 0.244000
H2    H     H_    0.937300 0.707485 0.361176 0.225758
H3    H     H_    0.842680 0.752151 0.413578 0.268308
H4    H     H_    0.843598 0.639618 0.371376 0.244728
H5    H     H_    0.064435 0.287321 0.539827 0.243660
H6    H     H_    0.062855 0.291474 0.362987 0.225580
H7    H     H_    0.157408 0.247192 0.415838 0.269510
H8    H     H_    0.156554 0.359404 0.372682 0.244896
H9    H     H_    0.062702 0.708574 0.637000 0.225782
H10   H     H_    0.157379 0.752766 0.584254 0.268557
H11   H     H_    0.156366 0.640564 0.627452 0.244737
H12   H     H_    0.935551 0.287034 0.461946 0.243769
H13   H     H_    0.937134 0.292521 0.638745 0.225575
H14   H     H_    0.842591 0.247818 0.586286 0.269284
H15   H     H_    0.843425 0.360343 0.628484 0.244852
H16   H     H_    0.935520 0.712963 0.537976 0.244094
N1    N     N_1   0.500000 0.270550 0.500000 -0.088151
N2    N     N_1   0.500000 0.729450 0.500000 -0.088119
N3    N     N_2   0.090596 0.662576 0.500078 -0.296311
N4    N     N_2   0.909406 0.337417 0.501387 -0.296823
N5    N     N_2   0.909415 0.662575 0.498525 -0.296096
N6    N     N_2   0.090586 0.337411 0.499969 -0.297044
O1    O     O_R   0.378020 0.573650 0.500030 -0.595688
O2    O     O_R   0.621980 0.426350 0.499970 -0.595737
O3    O     O_R   0.621980 0.573650 0.499970 -0.595648
O4    O     O_R   0.378020 0.426350 0.500030 -0.595778
O5    O     O_R   0.500000 0.573680 0.373720 -0.594163
O6    O     O_R   0.500000 0.426320 0.626280 -0.594181
O7    O     O_R   0.500000 0.573680 0.626280 -0.594167
O8    O     O_R   0.500000 0.426320 0.373720 -0.594185
Zn1   Zn    Zn3+2 0.500000 0.598370 0.500000 1.013138
Zn2   Zn    Zn3+2 0.500000 0.401630 0.500000 1.013024

loop_
_geom_bond_atom_site_label_1
_geom_bond_atom_site_label_2
_ccdc_geom_bond_type
H5    N6    S    
C21   N4    S    
O8    Zn2   S    
O5    Zn1   S    
C15   C31   A    
C22   N3    S    
C20   C27   A    
C3    O5    A    
C25   H2    S    
C27   C29   S    
C11   C13   T    
O3    Zn1   S    
C18   N5    S    
C3    C7    S    
H12   N4    S    
C2    O3    A    
O4    Zn2   S    
C4    C8    S    
C2    C12   S    
C24   H15   S    
C1    C29   T    
C22   H11   S    
C26   H8    S    
C25   H4    S    
C23   C28   S    
C25   H3    S    
C24   H14   S    
C9    C11   S    
C14   C17   A    
C26   H6    S    
C17   F1    S    
C14   C30   A    
C20   N3    S    
O6    Zn2   S    
C15   F3    S    
C22   H10   S    
C12   C28   T    
C26   H7    S    
C6    C31   S    
C18   C20   A    
O1    Zn1   S    
C21   C23   A    
C19   N6    S    
C14   F4    S    
C4    O7    A    
C17   C31   A    
C2    O2    A    
C3    O8    A    
C24   N4    S    
H16   N5    S    
C6    N1    T    
C32   O4    A    
C18   C23   A    
C25   N5    S    
C5    N2    T    
C22   H9    S    
C19   C27   A    
O2    Zn2   S    
C8    C10   T    
C5    C30   S    
C24   H13   S    
C7    C9    T    
N1    Zn2   S    
C4    O6    A    
O7    Zn1   S    
N2    Zn1   S    
C32   O1    A    
C16   F2    S    
C16   C30   A    
C26   N6    S    
C1    C32   S    
C15   C16   A    
C19   C21   A    
C10   C13   S    
H1    N3    S    
