data_mof_unit_52778.cif
_audit_creation_date              2012-12-10T17:13:12-0500
_audit_creation_method            fapswitch 2.2
_symmetry_space_group_name_H-M    P1
_symmetry_Int_Tables_number       1
_space_group_crystal_system       triclinic
_cell_length_a                    11.754053
_cell_length_b                    12.981233
_cell_length_c                    13.905136
_cell_angle_alpha                 88.733382
_cell_angle_beta                  90.139996
_cell_angle_gamma                 99.8285
_cell_volume                      2090.02256464

loop_
_atom_site_label
_atom_site_type_symbol
_atom_type_description
_atom_site_fract_x
_atom_site_fract_y
_atom_site_fract_z
_atom_type_partial_charge
C1    C     C_R   0.479207 0.299721 0.502882 0.860938
C2    C     C_R   0.520916 0.700913 0.495791 0.848106
C3    C     C_R   0.549389 0.029854 0.516469 -0.066080
C4    C     C_R   0.466664 0.978191 0.450744 -0.058764
C5    C     C_R   0.030517 0.414218 0.601907 -0.166667
C6    C     C_R   0.968191 0.580944 0.394756 -0.180358
C7    C     C_R   0.151549 0.419156 0.589432 0.116033
C8    C     C_R   0.848114 0.579360 0.409518 0.115819
C9    C     C_R   0.152420 0.533590 0.454499 0.067525
C10   C     C_R   0.846850 0.463949 0.543920 0.111166
C11   C     C_R   0.030234 0.527809 0.461041 -0.025950
C12   C     C_R   0.968871 0.468961 0.536837 -0.009065
C13   C     C_R   0.517541 0.499771 0.681613 0.839709
C14   C     C_R   0.482397 0.499978 0.318405 0.830557
C15   C     C_1   0.474550 0.506963 0.216465 -0.030001
C16   C     C_1   0.525007 0.491861 0.783565 -0.038805
C17   C     C_2   0.467543 0.525521 0.027688 0.253298
C18   C     C_2   0.530174 0.471542 0.972328 0.258101
C19   C     C_1   0.528560 0.482948 0.869485 0.094463
C20   C     C_1   0.470190 0.514993 0.130538 0.101120
C21   C     C_R   0.533992 0.815196 0.491946 -0.182281
C22   C     C_R   0.468614 0.187838 0.493035 -0.152987
C23   C     C_R   0.402084 0.039474 0.392996 0.403484
C24   C     C_R   0.641012 0.979075 0.547599 0.434130
C25   C     C_R   0.403510 0.143211 0.416176 -0.202360
C26   C     C_R   0.631688 0.872227 0.534883 -0.158024
C27   C     C_R   0.538319 0.130439 0.547119 -0.050910
C28   C     C_R   0.451452 0.867923 0.447270 -0.051666
Cu1   Cu    Cu3+1 0.615220 0.507680 0.492970 1.040604
Cu2   Cu    Cu3+1 0.384780 0.492320 0.507030 1.028961
H1    H     H_    0.699426 0.832551 0.562347 0.214269
H2    H     H_    0.357131 0.191566 0.371521 0.171802
H3    H     H_    0.797157 0.415223 0.598111 0.195737
H4    H     H_    0.201574 0.580952 0.399390 0.183726
N1    N     N_R   0.788370 0.519230 0.482390 -0.243797
N2    N     N_R   0.211630 0.480770 0.517610 -0.232544
O1    O     O_R   0.581500 0.354430 0.495010 -0.548877
O2    O     O_R   0.418500 0.645570 0.504990 -0.580788
O3    O     O_R   0.386890 0.341450 0.506880 -0.569825
O4    O     O_R   0.613110 0.658550 0.493120 -0.567774
O5    O     O_R   0.611060 0.507430 0.631070 -0.567200
O6    O     O_R   0.388940 0.492570 0.368930 -0.571232
O7    O     O_R   0.416450 0.494450 0.642940 -0.572763
O8    O     O_R   0.583550 0.505550 0.357060 -0.575135
S1    S     S_3+6 0.615295 0.383250 0.021525 0.046735
O9    O     O_2   0.709098 0.442157 0.082647 -0.228830
O10   O     O_2   0.540659 0.301710 0.082684 -0.240083
O11   O     O_3   0.674884 0.324785 0.932406 -0.508532
H5    H     H_    0.722129 0.278403 0.965365 0.394539
S2    S     S_3+6 0.381534 0.613100 0.978594 0.057161
O12   O     O_2   0.456185 0.696617 0.919504 -0.254967
O13   O     O_2   0.289936 0.554188 0.915445 -0.233201
O14   O     O_3   0.318689 0.668754 0.067749 -0.449737
H6    H     H_    0.270511 0.714285 0.034796 0.404421
C29   C     C_2   0.341410 0.807928 0.412343 0.949057
O15   O     O_2   0.341072 0.746636 0.346758 -0.545720
O16   O     O_R   0.238325 0.820833 0.456615 -0.710447
H7    H     H_    0.168657 0.774034 0.429295 0.348962
C30   C     C_2   0.576533 0.164566 0.645470 0.933980
O17   O     O_2   0.622569 0.254596 0.660027 -0.578728
O18   O     O_R   0.556957 0.092460 0.722353 -0.697205
H8    H     H_    0.585248 0.124120 0.785901 0.376860
S3    S     S_3+6 0.343312 0.001248 0.278619 0.072308
O19   O     O_2   0.412398 0.928524 0.232200 -0.190871
O20   O     O_2   0.220075 0.947509 0.289534 -0.258120
O21   O     O_3   0.347136 0.107096 0.205674 -0.462228
H9    H     H_    0.271669 0.129938 0.214386 0.365187
S4    S     S_3+6 0.777270 0.047074 0.585480 0.062771
O22   O     O_2   0.798383 0.156921 0.544673 -0.277545
O23   O     O_2   0.781363 0.049398 0.693432 -0.221538
O24   O     O_3   0.881884 0.984426 0.546584 -0.481959
H10   H     H_    0.954859 0.026582 0.569349 0.406245
C31   C     C_2   0.788206 0.641236 0.342063 0.947087
O25   O     O_2   0.770573 0.727612 0.364484 -0.534395
O26   O     O_R   0.763855 0.605701 0.248837 -0.707242
H11   H     H_    0.726425 0.656240 0.207954 0.349576
C32   C     C_2   0.211649 0.358559 0.657902 0.922797
O27   O     O_2   0.230532 0.272269 0.636487 -0.552270
O28   O     O_R   0.234682 0.395168 0.750926 -0.706495
H12   H     H_    0.272405 0.345488 0.792590 0.347417
C33   C     C_2   0.969819 0.352849 0.684050 0.891596
O29   O     O_2   0.975277 0.260077 0.694787 -0.493007
O30   O     O_R   0.907831 0.401932 0.749598 -0.711270
H13   H     H_    0.870347 0.352183 0.802094 0.378235
C34   C     C_2   0.026482 0.635381 0.308019 0.845248
O31   O     O_2   0.080722 0.588294 0.254184 -0.510018
O32   O     O_R   0.017112 0.739415 0.286933 -0.698815
H14   H     H_    0.059588 0.767028 0.225802 0.387346

loop_
_geom_bond_atom_site_label_1
_geom_bond_atom_site_label_2
_ccdc_geom_bond_type
C21   C26   A    
S3    O20   D    
C7    N2    A    
C29   O15   D    
C13   O5    A    
C33   O29   D    
O14   H6    S    
C6    C34   S    
C24   C26   A    
S4    O24   S    
C34   O31   D    
C17   C20   S    
Cu2   O2    S    
C18   C19   S    
C31   O25   D    
S1    O10   D    
C4    C28   A    
S4    O22   D    
C22   C25   A    
C9    N2    A    
S2    O13   D    
C10   N1    A    
C1    C22   S    
C1    O1    A    
C7    C32   S    
C25   H2    S    
C23   S3    S    
O21   H9    S    
S3    O21   S    
C30   O17   D    
C31   O26   S    
C3    C24   A    
C33   O30   S    
C28   C29   S    
C17   C18   D    
C32   O28   S    
C15   C20   T    
C30   O18   S    
S2    O14   S    
C34   O32   S    
C5    C12   A    
C6    C11   A    
C5    C7    A    
C4    C23   A    
C1    O3    A    
C6    C8    A    
C32   O27   D    
O28   H12   S    
C8    N1    A    
O26   H11   S    
Cu1   Cu2   S    
C2    O4    A    
C5    C33   S    
C2    O2    A    
O30   H13   S    
C2    C21   S    
S2    O12   D    
C14   O6    A    
C9    C11   A    
C10   C12   A    
O11   H5    S    
C21   C28   A    
C22   C27   A    
C29   O16   S    
Cu1   O8    S    
C9    H4    S    
Cu2   O7    S    
C3    C4    A    
C18   S1    S    
C13   O7    A    
C14   O8    A    
S1    O11   S    
Cu1   O5    S    
C17   S2    S    
C11   C12   A    
Cu1   N1    S    
Cu2   N2    S    
C3    C27   A    
O24   H10   S    
C27   C30   S    
O16   H7    S    
C16   C19   T    
Cu1   O4    S    
C8    C31   S    
Cu2   O3    S    
C10   H3    S    
C23   C25   A    
O18   H8    S    
C24   S4    S    
S3    O19   D    
S1    O9    D    
C26   H1    S    
O32   H14   S    
S4    O23   D    
C13   C16   S    
Cu1   O1    S    
C14   C15   S    
Cu2   O6    S    
