data_mof_unit_48796.cif
_audit_creation_date              2012-12-11T15:22:45-0500
_audit_creation_method            fapswitch 2.2
_symmetry_space_group_name_H-M    P1
_symmetry_Int_Tables_number       1
_space_group_crystal_system       triclinic
_cell_length_a                    22.531708
_cell_length_b                    12.968181
_cell_length_c                    26.996771
_cell_angle_alpha                 90.024434
_cell_angle_beta                  90.512798
_cell_angle_gamma                 90.014126
_cell_volume                      7888.01182545

loop_
_atom_site_label
_atom_site_type_symbol
_atom_type_description
_atom_site_fract_x
_atom_site_fract_y
_atom_site_fract_z
_atom_type_partial_charge
C1    C     C_R   0.720623 0.345767 0.178496 0.541544
C2    C     C_R   0.479059 0.255822 0.897462 -0.132590
C3    C     C_R   0.005986 0.581652 0.554774 -0.119016
C4    C     C_R   0.500350 0.087241 0.394285 -0.127148
C5    C     C_R   0.493492 0.078101 0.605163 -0.121710
C6    C     C_R   0.000350 0.587238 0.394285 -0.127145
C7    C     C_R   0.993494 0.578104 0.605162 -0.121710
C8    C     C_R   0.742611 0.948324 0.369781 0.024720
C9    C     C_R   0.265910 0.984315 0.623065 0.035688
C10   C     C_R   0.242614 0.448322 0.369779 0.024721
C11   C     C_R   0.765910 0.484314 0.623066 0.035687
C12   C     C_R   0.696505 0.893270 0.392552 -0.125041
C13   C     C_R   0.020896 0.755752 0.102601 -0.132657
C14   C     C_R   0.286478 0.891793 0.602902 -0.130192
C15   C     C_R   0.196512 0.393248 0.392547 -0.125041
C16   C     C_R   0.786480 0.391794 0.602902 -0.130191
C17   C     C_R   0.701856 0.863504 0.441875 -0.125429
C18   C     C_R   0.288086 0.879966 0.551516 -0.115342
C19   C     C_R   0.201864 0.363477 0.441870 -0.125425
C20   C     C_R   0.788088 0.379967 0.551516 -0.115343
C21   C     C_R   0.753425 0.887970 0.468677 0.034817
C22   C     C_R   0.271230 0.962120 0.520276 0.030645
C23   C     C_R   0.253428 0.387961 0.468675 0.034821
C24   C     C_R   0.979053 0.755822 0.897464 -0.132590
C25   C     C_R   0.771230 0.462119 0.520276 0.030645
C26   C     C_R   0.801158 0.935836 0.444762 -0.117537
C27   C     C_R   0.253864 0.056177 0.541060 -0.127169
C28   C     C_R   0.301156 0.435850 0.444764 -0.117537
C29   C     C_R   0.753861 0.556175 0.541060 -0.127173
C30   C     C_R   0.795907 0.965345 0.395597 -0.125902
C31   C     C_R   0.250096 0.066402 0.591842 -0.116750
C32   C     C_R   0.295906 0.465360 0.395599 -0.125901
C33   C     C_R   0.750093 0.566399 0.591842 -0.116755
C34   C     C_R   0.810209 0.835726 0.542918 -0.136335
C35   C     C_R   0.509132 0.256288 0.051598 0.027879
C36   C     C_R   0.216603 0.990010 0.441376 -0.119609
C37   C     C_R   0.310220 0.335752 0.542918 -0.136328
C38   C     C_R   0.716601 0.490006 0.441377 -0.119610
C39   C     C_R   0.721253 0.348061 0.321487 0.543894
C40   C     C_R   0.279874 0.345071 0.677434 0.532941
C41   C     C_R   0.221253 0.848061 0.321487 0.543895
C42   C     C_R   0.779873 0.845072 0.677435 0.532936
C43   C     C_R   0.817056 0.832029 0.593707 -0.123531
C44   C     C_R   0.205274 0.964594 0.392431 -0.128893
C45   C     C_R   0.317065 0.332064 0.593707 -0.123529
C46   C     C_R   0.490836 0.256327 0.948464 0.027872
C47   C     C_R   0.705273 0.464591 0.392431 -0.128893
C48   C     C_R   0.715889 0.890959 0.604639 -0.141865
C49   C     C_R   0.293662 0.857855 0.391588 -0.127888
C50   C     C_R   0.215883 0.390916 0.604636 -0.141865
C51   C     C_R   0.793662 0.357857 0.391588 -0.127888
C52   C     C_R   0.709206 0.896946 0.553206 -0.120433
C53   C     C_R   0.305491 0.884534 0.440676 -0.122627
C54   C     C_R   0.209201 0.396898 0.553203 -0.120438
C55   C     C_R   0.805491 0.384536 0.440676 -0.122627
C56   C     C_R   0.756854 0.870636 0.522200 0.023050
C57   C     C_R   0.009123 0.756288 0.051600 0.027878
C58   C     C_R   0.265620 0.947398 0.466482 0.037316
C59   C     C_R   0.256856 0.370623 0.522198 0.023053
C60   C     C_R   0.765620 0.447398 0.466482 0.037316
C61   C     C_R   0.770658 0.861458 0.624805 0.030601
C62   C     C_R   0.242009 0.894340 0.367926 0.024439
C63   C     C_R   0.270659 0.361457 0.624804 0.030591
C64   C     C_R   0.742009 0.394340 0.367926 0.024439
C65   C     C_R   0.554587 0.159068 0.321776 0.542905
C66   C     C_R   0.446299 0.158775 0.678656 0.537498
C67   C     C_R   0.054587 0.659068 0.321776 0.542905
C68   C     C_R   0.990827 0.756327 0.948467 0.027872
C69   C     C_R   0.946298 0.658775 0.678655 0.537495
C70   C     C_R   0.731754 0.001545 0.322826 0.545531
C71   C     C_R   0.269244 0.005817 0.675824 0.537011
C72   C     C_R   0.231754 0.501544 0.322826 0.545532
C73   C     C_R   0.769244 0.505817 0.675825 0.537011
C74   C     C_R   0.516494 0.068696 0.102660 -0.109883
C75   C     C_R   0.483563 0.068778 0.897284 -0.109804
C76   C     C_R   0.016486 0.568697 0.102663 -0.109877
C77   C     C_R   0.983559 0.568778 0.897286 -0.109801
C78   C     C_R   0.507153 0.067149 0.051583 -0.017883
C79   C     C_R   0.503858 0.161632 0.025806 0.006518
C80   C     C_R   0.492886 0.067192 0.948360 -0.017889
C81   C     C_R   0.007142 0.567150 0.051586 -0.017878
C82   C     C_R   0.992879 0.567193 0.948363 -0.017883
C83   C     C_R   0.497144 0.972552 0.973873 0.254171
C84   C     C_R   0.502899 0.972531 0.026011 0.254176
C85   C     C_R   0.997137 0.472553 0.973876 0.254167
C86   C     C_R   0.002888 0.472531 0.026014 0.254169
C87   C     C_3   0.540119 0.825181 0.943298 0.010265
C88   C     C_3   0.524730 0.715018 0.927419 -0.262694
C89   C     C_3   0.579483 0.645770 0.926315 -0.489763
C90   C     C_R   0.496147 0.161653 0.974197 0.006521
C91   C     C_3   0.459855 0.825180 0.056512 0.010306
C92   C     C_3   0.475180 0.714983 0.072313 -0.262826
C93   C     C_3   0.420379 0.645796 0.073397 -0.490064
C94   C     C_3   0.040125 0.325184 0.943309 0.010280
C95   C     C_3   0.024741 0.215000 0.927462 -0.262649
C96   C     C_3   0.079505 0.145766 0.926361 -0.489714
C97   C     C_3   0.959848 0.325170 0.056509 0.010292
C98   C     C_3   0.975177 0.214995 0.072344 -0.262833
C99   C     C_3   0.920393 0.145760 0.073369 -0.490064
C100  C     C_R   0.003848 0.661632 0.025808 0.006517
C101  C     C_R   0.279376 0.345799 0.821500 0.542543
C102  C     C_R   0.996138 0.661653 0.974199 0.006520
C103  C     C_R   0.504823 0.349697 0.025635 -0.125145
C104  C     C_R   0.495112 0.349716 0.974488 -0.125094
C105  C     C_R   0.004813 0.849697 0.025637 -0.125145
C106  C     C_R   0.995102 0.849716 0.974490 -0.125095
C107  C     C_R   0.736475 0.976222 0.126874 0.034195
C108  C     C_R   0.263485 0.976215 0.873116 0.033666
C109  C     C_R   0.236476 0.476220 0.126875 0.034194
C110  C     C_R   0.763487 0.476217 0.873117 0.033666
C111  C     C_R   0.757015 0.053263 0.094942 -0.116313
C112  C     C_R   0.220623 0.845767 0.178496 0.541546
C113  C     C_R   0.242828 0.053144 0.905077 -0.116492
C114  C     C_R   0.257018 0.553258 0.094943 -0.116311
C115  C     C_R   0.742832 0.553149 0.905078 -0.116492
C116  C     C_R   0.757028 0.037935 0.044398 -0.123371
C117  C     C_R   0.242811 0.037802 0.955618 -0.123228
C118  C     C_R   0.257031 0.537930 0.044399 -0.123372
C119  C     C_R   0.742816 0.537809 0.955619 -0.123231
C120  C     C_R   0.738645 0.943371 0.024431 0.035867
C121  C     C_R   0.261297 0.943315 0.975555 0.035880
C122  C     C_R   0.238648 0.443365 0.024432 0.035867
C123  C     C_R   0.779376 0.845799 0.821500 0.542540
C124  C     C_R   0.761301 0.443321 0.975557 0.035880
C125  C     C_R   0.717337 0.865807 0.056268 -0.103657
C126  C     C_R   0.282707 0.865857 0.943686 -0.103629
C127  C     C_R   0.217340 0.365802 0.056269 -0.103663
C128  C     C_R   0.782708 0.365860 0.943687 -0.103630
C129  C     C_R   0.553863 0.157102 0.177453 0.546849
C130  C     C_R   0.446142 0.157140 0.822547 0.546702
C131  C     C_R   0.053862 0.657102 0.177454 0.546849
C132  C     C_R   0.946141 0.657140 0.822547 0.546701
C133  C     C_R   0.715278 0.883007 0.107413 -0.120969
C134  C     C_R   0.473522 0.161918 0.872061 -0.017516
C135  C     C_R   0.284777 0.883085 0.892548 -0.120755
C136  C     C_R   0.215279 0.383004 0.107414 -0.120970
C137  C     C_R   0.784777 0.383087 0.892549 -0.120756
C138  C     C_R   0.703267 0.866518 0.944204 -0.126976
C139  C     C_R   0.296705 0.866509 0.055765 -0.126982
C140  C     C_R   0.203271 0.366509 0.944205 -0.126976
C141  C     C_R   0.796708 0.366513 0.055767 -0.126990
C142  C     C_R   0.711379 0.847426 0.893874 -0.143905
C143  C     C_R   0.288608 0.847416 0.106095 -0.143897
C144  C     C_R   0.211381 0.347420 0.893875 -0.143902
C145  C     C_R   0.526487 0.161833 0.127940 -0.017425
C146  C     C_R   0.788609 0.347419 0.106096 -0.143904
C147  C     C_R   0.801119 0.950329 0.895910 -0.122838
C148  C     C_R   0.198842 0.950163 0.104097 -0.122800
C149  C     C_R   0.301119 0.450329 0.895910 -0.122838
C150  C     C_R   0.698844 0.450169 0.104098 -0.122799
C151  C     C_R   0.793171 0.968951 0.945858 -0.120778
C152  C     C_R   0.206769 0.968766 0.054152 -0.120784
C153  C     C_R   0.293172 0.468949 0.945858 -0.120779
C154  C     C_R   0.706773 0.468774 0.054153 -0.120782
C155  C     C_R   0.744636 0.926098 0.970778 0.040169
C156  C     C_R   0.973519 0.661918 0.872062 -0.017519
C157  C     C_R   0.255316 0.926011 0.029209 0.040126
C158  C     C_R   0.244639 0.426092 0.970779 0.040170
C159  C     C_R   0.755320 0.426018 0.029210 0.040128
C160  C     C_R   0.761605 0.886101 0.869870 0.025554
C161  C     C_R   0.238380 0.886024 0.130121 0.025946
C162  C     C_R   0.261605 0.386099 0.869870 0.025555
C163  C     C_R   0.738381 0.386026 0.130121 0.025948
C164  C     C_R   0.529240 0.170090 0.371490 0.024074
C165  C     C_R   0.475484 0.167535 0.630223 0.019702
C166  C     C_R   0.029238 0.670089 0.371489 0.024074
C167  C     C_R   0.026482 0.661834 0.127942 -0.017428
C168  C     C_R   0.975482 0.667536 0.630222 0.019698
C169  C     C_R   0.543253 0.258241 0.399581 -0.126404
C170  C     C_R   0.475680 0.262166 0.605016 -0.140509
C171  C     C_R   0.043248 0.758243 0.399580 -0.126405
C172  C     C_R   0.975672 0.762166 0.605014 -0.140509
C173  C     C_R   0.532708 0.260441 0.450250 -0.123552
C174  C     C_R   0.486615 0.265310 0.554304 -0.126297
C175  C     C_R   0.032702 0.760444 0.450248 -0.123551
C176  C     C_R   0.986607 0.765310 0.554302 -0.126299
C177  C     C_R   0.730925 0.003675 0.178972 0.537697
C178  C     C_R   0.520903 0.255752 0.102599 -0.132656
C179  C     C_R   0.269074 0.003720 0.821031 0.538830
C180  C     C_R   0.230925 0.503674 0.178972 0.537697
C181  C     C_R   0.769074 0.503721 0.821031 0.538829
C182  C     C_R   0.506645 0.175488 0.473774 0.032877
C183  C     C_R   0.499878 0.174354 0.528293 0.036195
C184  C     C_R   0.006642 0.675488 0.473773 0.032877
C185  C     C_R   0.999874 0.674355 0.528292 0.036194
C186  C     C_R   0.488485 0.090441 0.444911 -0.118973
C187  C     C_R   0.505985 0.081649 0.554774 -0.119019
C188  C     C_R   0.988485 0.590439 0.444910 -0.118973
Cr1   Cr    Cr6+3 0.756570 0.170940 0.251190 1.008837
Cr2   Cr    Cr6+3 0.374010 0.036240 0.749520 1.021972
Cr3   Cr    Cr6+3 0.125990 0.536240 0.250480 1.018414
Cr4   Cr    Cr6+3 0.874010 0.536240 0.749520 1.021974
Cr5   Cr    Cr6+3 0.243430 0.170940 0.748810 1.011771
Cr6   Cr    Cr6+3 0.256570 0.670940 0.251190 1.008831
Cr7   Cr    Cr6+3 0.743430 0.670940 0.748810 1.011771
Cr8   Cr    Cr6+3 0.623740 0.299110 0.249580 1.010218
Cr9   Cr    Cr6+3 0.376260 0.299110 0.750420 1.010965
Cr10  Cr    Cr6+3 0.123740 0.799110 0.249580 1.010217
Cr11  Cr    Cr6+3 0.876260 0.799110 0.750420 1.010967
Cr12  Cr    Cr6+3 0.625990 0.036240 0.250480 1.018413
H1    H     H_    0.480176 0.996346 0.877461 0.181041
H2    H     H_    0.297003 0.791924 0.958074 0.099896
H3    H     H_    0.067978 0.361878 0.914397 0.126409
H4    H     H_    0.992325 0.181806 0.953853 0.168139
H5    H     H_    0.003686 0.216322 0.890075 0.167258
H6    H     H_    0.111046 0.173370 0.898026 0.147587
H7    H     H_    0.066035 0.065833 0.916700 0.150611
H8    H     H_    0.101910 0.144549 0.963191 0.136547
H9    H     H_    0.934128 0.321069 0.021243 0.176726
H10   H     H_    0.932003 0.361908 0.085422 0.126215
H11   H     H_    0.007622 0.181782 0.045981 0.168253
H12   H     H_    0.996174 0.216343 0.109753 0.166505
H13   H     H_    0.203124 0.291812 0.041849 0.099873
H14   H     H_    0.888794 0.173427 0.101644 0.147251
H15   H     H_    0.933817 0.065851 0.083062 0.150298
H16   H     H_    0.898077 0.144457 0.036505 0.136727
H17   H     H_    0.665091 0.824720 0.459526 0.097211
H18   H     H_    0.301106 0.806157 0.536346 0.108480
H19   H     H_    0.165103 0.324676 0.459518 0.097205
H20   H     H_    0.801110 0.306160 0.536346 0.108480
H21   H     H_    0.491029 0.422763 0.955271 0.097762
H22   H     H_    0.508880 0.422731 0.044900 0.097623
H23   H     H_    0.991019 0.922763 0.955273 0.097755
H24   H     H_    0.797002 0.291927 0.958075 0.099898
H25   H     H_    0.008870 0.922731 0.044902 0.097629
H26   H     H_    0.697867 0.823913 0.131614 0.110698
H27   H     H_    0.302278 0.824078 0.868329 0.111234
H28   H     H_    0.197867 0.323912 0.131615 0.110699
H29   H     H_    0.802276 0.324077 0.868330 0.111233
H30   H     H_    0.566311 0.322941 0.383198 0.133193
H31   H     H_    0.462905 0.332726 0.623552 0.125029
H32   H     H_    0.066304 0.822944 0.383196 0.133192
H33   H     H_    0.519929 0.996255 0.122438 0.180859
H34   H     H_    0.962893 0.832725 0.623549 0.125042
H35   H     H_    0.494905 0.004217 0.623827 0.128156
H36   H     H_    0.488980 0.018586 0.373394 0.120909
H37   H     H_    0.994910 0.504221 0.623828 0.128154
H38   H     H_    0.988983 0.518581 0.373394 0.120910
H39   H     H_    0.655017 0.878458 0.373262 0.128067
H40   H     H_    0.300498 0.829052 0.626747 0.110301
H41   H     H_    0.155028 0.378422 0.373255 0.128059
H42   H     H_    0.800503 0.329055 0.626747 0.110302
H43   H     H_    0.846844 0.812048 0.519801 0.115833
H44   H     H_    0.980174 0.496346 0.877463 0.181044
H45   H     H_    0.184588 0.037784 0.460313 0.100143
H46   H     H_    0.346861 0.312099 0.519803 0.115825
H47   H     H_    0.684586 0.537778 0.460313 0.100145
H48   H     H_    0.858208 0.802959 0.608957 0.133991
H49   H     H_    0.165335 0.994477 0.375029 0.125517
H50   H     H_    0.358224 0.303026 0.608958 0.133997
H51   H     H_    0.665333 0.494473 0.375030 0.125518
H52   H     H_    0.667619 0.924489 0.537761 0.110308
H53   H     H_    0.344351 0.852800 0.458973 0.097909
H54   H     H_    0.167607 0.424412 0.537756 0.110300
H55   H     H_    0.019920 0.496256 0.122441 0.180866
H56   H     H_    0.844352 0.352805 0.458972 0.097910
H57   H     H_    0.679106 0.910370 0.628447 0.107724
H58   H     H_    0.323045 0.804274 0.373214 0.124274
H59   H     H_    0.179093 0.410298 0.628443 0.107731
H60   H     H_    0.823046 0.304278 0.373213 0.124275
H61   H     H_    0.841351 0.956012 0.464835 0.103332
H62   H     H_    0.242498 0.121789 0.518042 0.115161
H63   H     H_    0.341345 0.456042 0.464839 0.103328
H64   H     H_    0.742492 0.621787 0.518043 0.115160
H65   H     H_    0.832195 0.007194 0.378879 0.127459
H66   H     H_    0.840473 0.981269 0.878583 0.128065
H67   H     H_    0.236627 0.140208 0.606816 0.143643
H68   H     H_    0.332189 0.507225 0.378884 0.127462
H69   H     H_    0.736621 0.640204 0.606816 0.143644
H70   H     H_    0.471334 0.327961 0.878167 0.121518
H71   H     H_    0.528589 0.327890 0.121939 0.121185
H72   H     H_    0.971328 0.827961 0.878169 0.121520
H73   H     H_    0.028585 0.827891 0.121941 0.121182
H74   H     H_    0.771072 0.127591 0.109001 0.131986
H75   H     H_    0.228692 0.127416 0.891050 0.131709
H76   H     H_    0.271076 0.627587 0.109001 0.131996
H77   H     H_    0.159483 0.981054 0.121435 0.127758
H78   H     H_    0.728697 0.627422 0.891050 0.131712
H79   H     H_    0.665609 0.832924 0.962544 0.087779
H80   H     H_    0.334374 0.832984 0.037413 0.087759
H81   H     H_    0.165615 0.332910 0.962546 0.087773
H82   H     H_    0.834377 0.332988 0.037414 0.087764
H83   H     H_    0.680149 0.798481 0.874351 0.111058
H84   H     H_    0.319855 0.798539 0.125602 0.110792
H85   H     H_    0.180152 0.298472 0.874353 0.111060
H86   H     H_    0.819857 0.298542 0.125604 0.110791
H87   H     H_    0.771299 0.100868 0.020981 0.101646
H88   H     H_    0.340472 0.481272 0.878581 0.128066
H89   H     H_    0.228464 0.100678 0.979054 0.101485
H90   H     H_    0.271303 0.600863 0.020982 0.101636
H91   H     H_    0.728471 0.600687 0.979055 0.101488
H92   H     H_    0.826789 0.013286 0.965304 0.096512
H93   H     H_    0.173125 0.013019 0.034728 0.096516
H94   H     H_    0.326790 0.513285 0.965303 0.096517
H95   H     H_    0.673130 0.513029 0.034729 0.096516
H96   H     H_    0.518741 0.011024 0.536315 0.097624
H97   H     H_    0.466411 0.025146 0.461624 0.103477
H98   H     H_    0.018745 0.511027 0.536316 0.097626
H99   H     H_    0.659485 0.481060 0.121435 0.127756
H100  H     H_    0.966413 0.525142 0.461623 0.103475
H101  H     H_    0.547770 0.326746 0.471233 0.104202
H102  H     H_    0.481675 0.338211 0.535217 0.098408
H103  H     H_    0.047761 0.826750 0.471231 0.104202
H104  H     H_    0.981662 0.838208 0.535214 0.098411
H105  H     H_    0.565841 0.821058 0.978559 0.176690
H106  H     H_    0.567980 0.861903 0.914400 0.126401
H107  H     H_    0.492301 0.681805 0.953789 0.168154
H108  H     H_    0.503691 0.716387 0.890028 0.167269
H109  H     H_    0.611039 0.673402 0.898004 0.147600
H110  H     H_    0.703122 0.791817 0.041848 0.099878
H111  H     H_    0.566011 0.565853 0.916624 0.150614
H112  H     H_    0.601865 0.644497 0.963149 0.136572
H113  H     H_    0.434113 0.821122 0.021256 0.176694
H114  H     H_    0.432031 0.861898 0.085445 0.126231
H115  H     H_    0.507568 0.681761 0.045905 0.168211
H116  H     H_    0.496244 0.716290 0.109696 0.166545
H117  H     H_    0.388859 0.673435 0.101740 0.147270
H118  H     H_    0.433802 0.565855 0.083031 0.150293
H119  H     H_    0.397972 0.644586 0.036571 0.136729
H120  H     H_    0.065855 0.321107 0.978567 0.176677
O1    O     O_R   0.769900 0.064540 0.196060 -0.524429
O2    O     O_R   0.433710 0.069580 0.694600 -0.517619
O3    O     O_R   0.066290 0.569580 0.305400 -0.519545
O4    O     O_R   0.933710 0.569580 0.694600 -0.517617
O5    O     O_R   0.680760 0.993330 0.302620 -0.505962
O6    O     O_R   0.319240 0.993330 0.697380 -0.498856
O7    O     O_R   0.180760 0.493330 0.302620 -0.505960
O8    O     O_R   0.819240 0.493330 0.697380 -0.498857
O9    O     O_3   0.668770 0.168760 0.250420 -0.239055
O10   O     O_3   0.331230 0.168760 0.749580 -0.243935
O11   O     O_3   0.168770 0.668760 0.250420 -0.239053
O12   O     O_R   0.230100 0.064540 0.803940 -0.522383
O13   O     O_3   0.831230 0.668760 0.749580 -0.243937
O14   O     O_R   0.750800 0.274080 0.199250 -0.508792
O15   O     O_R   0.249200 0.274080 0.800750 -0.507602
O16   O     O_R   0.250800 0.774080 0.199250 -0.508795
O17   O     O_R   0.749200 0.774080 0.800750 -0.507603
O18   O     O_R   0.669990 0.371670 0.194150 -0.523888
O19   O     O_R   0.330010 0.371670 0.805850 -0.522373
O20   O     O_R   0.169990 0.871670 0.194150 -0.523889
O21   O     O_R   0.830010 0.871670 0.805850 -0.522373
O22   O     O_R   0.574600 0.238480 0.197800 -0.500062
O23   O     O_R   0.269900 0.564540 0.196060 -0.524433
O24   O     O_R   0.425400 0.238480 0.802200 -0.499490
O25   O     O_R   0.074600 0.738480 0.197800 -0.500062
O26   O     O_R   0.925400 0.738480 0.802200 -0.499490
O27   O     O_R   0.566130 0.068680 0.194240 -0.521578
O28   O     O_R   0.433870 0.068680 0.805760 -0.521313
O29   O     O_R   0.066130 0.568680 0.194240 -0.521577
O30   O     O_R   0.933870 0.568680 0.805760 -0.521311
O31   O     O_R   0.680610 0.992490 0.199570 -0.495791
O32   O     O_R   0.319390 0.992490 0.800430 -0.495084
O33   O     O_R   0.180610 0.492490 0.199570 -0.495791
O34   O     O_R   0.730100 0.564540 0.803940 -0.522382
O35   O     O_R   0.819390 0.492490 0.800430 -0.495084
O36   O     O_R   0.770060 0.065440 0.307230 -0.521179
O37   O     O_R   0.229940 0.065440 0.692770 -0.518467
O38   O     O_R   0.270060 0.565440 0.307230 -0.521182
O39   O     O_R   0.729940 0.565440 0.692770 -0.518467
O40   O     O_R   0.750960 0.274920 0.302300 -0.502632
O41   O     O_R   0.249040 0.274920 0.697700 -0.504446
O42   O     O_R   0.250960 0.774920 0.302300 -0.502633
O43   O     O_R   0.749040 0.774920 0.697700 -0.504445
O44   O     O_R   0.670160 0.372580 0.305320 -0.527446
O45   O     O_R   0.574760 0.239320 0.300850 -0.505649
O46   O     O_R   0.329840 0.372580 0.694680 -0.519093
O47   O     O_R   0.170160 0.872580 0.305320 -0.527445
O48   O     O_R   0.829840 0.872580 0.694680 -0.519088
O49   O     O_3   0.486823 0.881097 0.948540 -0.593200
O50   O     O_3   0.513181 0.881054 0.051291 -0.593263
O51   O     O_3   0.986826 0.381097 0.948540 -0.593218
O52   O     O_3   0.013172 0.381056 0.051295 -0.593262
O53   O     O_R   0.425240 0.239320 0.699150 -0.509838
O54   O     O_R   0.074760 0.739320 0.300850 -0.505650
O55   O     O_R   0.925240 0.739320 0.699150 -0.509837
O56   O     O_R   0.566290 0.069580 0.305400 -0.519546

loop_
_geom_bond_atom_site_label_1
_geom_bond_atom_site_label_2
_ccdc_geom_bond_type
C21   C26   A    
C92   H116  S    
C34   C56   A    
C50   C63   A    
C93   H117  S    
C77   H44   S    
C54   H54   S    
Cr11  O55   S    
C7    C168  A    
C128  H24   S    
C15   H41   S    
C91   H113  S    
C126  H2    S    
C150  C163  A    
C6    H38   S    
Cr7   O43   S    
C2    C134  A    
C177  O1    A    
Cr4   O8    S    
C77   C156  A    
C96   H8    S    
Cr1   O1    S    
C148  H77   S    
C119  H91   S    
C76   H55   S    
C149  C153  A    
C182  C183  S    
C79   C90   A    
Cr8   O44   S    
C69   O4    A    
C7    H37   S    
C174  H102  S    
C25   C60   S    
C151  C155  A    
Cr4   O13   S    
C129  C145  S    
C81   C86   A    
C91   O50   S    
C13   H73   S    
C35   C178  A    
C136  H28   S    
C101  O19   A    
C130  C134  S    
C72   O38   A    
C80   C83   A    
C89   H111  S    
C70   O5    A    
C123  O21   A    
C25   C29   A    
C27   C31   A    
C9    C71   S    
C28   C32   A    
C127  C136  A    
C41   O47   A    
C47   C64   A    
C120  C125  A    
C120  C155  S    
C17   C21   A    
C108  C113  A    
C19   C23   A    
C112  C161  S    
C83   O49   S    
C16   C20   A    
C122  C158  S    
C129  O27   A    
C46   C90   A    
C99   H14   S    
C173  C182  A    
C22   C27   A    
C93   H119  S    
C94   H120  S    
C36   C44   A    
Cr2   O2    S    
C37   C45   A    
C178  H71   S    
C43   C61   A    
C86   O52   S    
C170  C174  A    
C152  C157  A    
C49   C62   A    
C34   H43   S    
C51   C64   A    
C66   O53   A    
C22   C58   S    
C53   C58   A    
C82   C85   A    
C98   H11   S    
C35   C103  A    
Cr11  O48   S    
Cr12  O56   S    
C71   O37   A    
C69   C168  S    
C131  O29   A    
Cr9   O46   S    
Cr4   O4    S    
C49   C53   A    
C70   O36   A    
C51   C55   A    
C141  H82   S    
Cr10  O25   S    
C41   O42   A    
Cr3   O11   S    
C44   H49   S    
Cr11  O13   S    
C88   C89   S    
C139  C157  A    
C71   O6    A    
C98   C99   S    
Cr10  O47   S    
C149  C162  A    
C143  C161  A    
C24   C156  A    
C16   H42   S    
C51   H60   S    
C29   C33   A    
C181  O34   A    
C122  C127  A    
C74   C145  A    
C97   C98   S    
C75   C134  A    
Cr4   O30   S    
Cr3   O33   S    
C85   C86   A    
C97   O52   S    
C23   C59   S    
C65   O45   A    
Cr11  O26   S    
C97   H9    S    
C24   H72   S    
C77   C82   A    
C13   C57   A    
C4    C186  A    
C184  C185  S    
C151  H92   S    
C118  C122  A    
Cr10  O11   S    
C140  C158  A    
Cr12  O5    S    
C139  C143  A    
C141  C159  A    
C106  H23   S    
C110  C181  S    
Cr5   O15   S    
Cr2   O32   S    
C43   H48   S    
C47   H51   S    
Cr7   O13   S    
Cr5   O37   S    
Cr7   O39   S    
C107  C177  S    
C36   H45   S    
C4    H36   S    
C147  C160  A    
C3    C185  A    
C54   C59   A    
C31   H67   S    
Cr1   O36   S    
C11   C33   A    
C108  C135  A    
C91   C92   S    
C127  H13   S    
Cr7   O34   S    
C27   H62   S    
Cr4   O35   S    
C175  H103  S    
C116  C120  A    
C108  C179  S    
C176  H104  S    
C12   C17   A    
C147  C151  A    
C83   C84   A    
C48   C52   A    
C8    C12   A    
C82   C102  A    
C30   H65   S    
C23   C28   A    
C52   H52   S    
C37   C59   A    
C109  C114  A    
C38   C60   A    
C123  O17   A    
C115  H78   S    
Cr5   O41   S    
C26   C30   A    
C115  C119  A    
C99   H16   S    
C113  C117  A    
C18   H18   S    
C179  O12   A    
C67   C166  S    
C66   C165  S    
C117  H89   S    
C18   C22   A    
C107  C111  A    
Cr5   O10   S    
C148  C152  A    
C88   H108  S    
C153  H94   S    
C28   H63   S    
C67   O3    A    
C8    C70   S    
C150  H99   S    
C152  H93   S    
C154  C159  A    
C177  O31   A    
C14   H40   S    
C109  C180  S    
C35   C79   A    
C132  C156  S    
Cr7   O17   S    
C188  H100  S    
C129  O22   A    
C169  C173  A    
C1    O18   A    
C55   C60   A    
C69   O55   A    
C172  C176  A    
C132  O26   A    
C10   C72   S    
C138  C155  A    
C87   C88   S    
C6    C166  A    
Cr6   O16   S    
Cr3   O29   S    
C131  O25   A    
Cr8   O18   S    
C113  H75   S    
C75   H1    S    
C114  H76   S    
C176  C185  A    
C26   H61   S    
C87   H106  S    
C15   C19   A    
C39   C64   S    
C50   C54   A    
C40   C63   S    
C101  C162  S    
C66   O2    A    
C68   C102  A    
C3    C7    A    
C20   C25   A    
C29   H64   S    
C169  H30   S    
C116  H87   S    
C182  C186  A    
C111  H74   S    
Cr2   O10   S    
C84   O50   S    
C145  C178  A    
C94   O51   S    
C111  C116  A    
C124  C128  A    
Cr1   O9    S    
C144  H85   S    
C92   H115  S    
C93   H118  S    
Cr5   O12   S    
C53   H53   S    
C41   C62   S    
C147  H66   S    
C112  O20   A    
C91   H114  S    
C2    H70   S    
C67   O54   A    
C154  H95   S    
C34   C43   A    
C180  O33   A    
C186  H97   S    
C133  H26   S    
C137  H29   S    
C138  C142  A    
C96   H7    S    
C101  O15   A    
Cr11  O21   S    
Cr12  O31   S    
C46   C104  A    
C37   H46   S    
C121  C126  A    
C40   O41   A    
C72   O7    A    
Cr2   O28   S    
C9    C14   A    
C130  O24   A    
C183  C187  A    
C142  H83   S    
C11   C16   A    
C139  H80   S    
C74   H33   S    
C135  H27   S    
C141  C146  A    
Cr10  O54   S    
C126  C135  A    
C11   C73   S    
C149  H88   S    
Cr3   O3    S    
C5    C187  A    
C89   H112  S    
C112  O16   A    
C42   O43   A    
C165  C170  A    
C42   O48   A    
C110  C137  A    
C140  C144  A    
C174  C183  A    
C21   C56   S    
Cr9   O19   S    
C81   C100  A    
C105  C106  A    
Cr1   O14   S    
Cr8   O45   S    
C8    C30   A    
C107  C133  A    
C130  O28   A    
C98   H12   S    
C132  O30   A    
C92   C93   S    
C94   C95   S    
C24   C68   A    
C168  C172  A    
C1    C163  S    
C144  C162  A    
C74   C78   A    
C103  C104  A    
C118  H90   S    
C40   O46   A    
C125  H110  S    
C110  C115  A    
C180  O23   A    
C175  C184  A    
C95   H5    S    
C57   C105  A    
C173  H101  S    
C138  H79   S    
C14   C18   A    
C95   C96   S    
C140  H81   S    
C119  C124  A    
C2    C46   A    
C143  H84   S    
C148  C161  A    
Cr9   O53   S    
C36   C58   A    
C10   C15   A    
C103  H22   S    
C13   C167  A    
C50   H59   S    
C124  C159  S    
C123  C160  S    
C153  C158  A    
C55   H56   S    
C76   C167  A    
C117  C121  A    
C12   H39   S    
C4    C164  A    
C5    C165  A    
Cr8   O22   S    
C75   C80   A    
Cr6   O38   S    
C48   H57   S    
C166  C171  A    
C121  C157  S    
C181  O35   A    
C109  C136  A    
C20   H20   S    
C164  C169  A    
C68   C106  A    
C65   O56   A    
Cr6   O11   S    
C87   O49   S    
C97   H10   S    
C73   O39   A    
Cr2   O6    S    
C78   C79   A    
C44   C62   A    
C95   H4    S    
C57   C100  A    
C171  C175  A    
C45   C63   A    
C184  C188  A    
C128  C137  A    
C3    H98   S    
C146  H86   S    
C10   C32   A    
C45   H50   S    
Cr10  O20   S    
C49   H58   S    
C96   H6    S    
C179  O32   A    
C170  H31   S    
C100  C102  A    
C39   O40   A    
C42   C61   S    
C38   C47   A    
C114  C118  A    
Cr6   O42   S    
C6    C188  A    
C105  H25   S    
C5    H35   S    
C19   H19   S    
C104  H21   S    
Cr1   O40   S    
C17   H17   S    
C125  C133  A    
Cr6   O23   S    
Cr12  O27   S    
C171  H32   S    
C33   H69   S    
Cr8   O9    S    
C142  C160  A    
C89   H109  S    
C76   C81   A    
C172  H34   S    
C87   H105  S    
C146  C163  A    
Cr9   O10   S    
C1    O14   A    
C48   C61   A    
Cr9   O24   S    
C99   H15   S    
C38   H47   S    
C65   C164  S    
Cr3   O7    S    
C32   H68   S    
C80   C90   A    
C39   O44   A    
C9    C31   A    
C131  C167  S    
C73   O8    A    
C78   C84   A    
C85   O51   S    
C88   H107  S    
C150  C154  A    
C94   H3    S    
C187  H96   S    
C52   C56   A    
Cr12  O9    S    
