data_mof_unit_68457.cif
_audit_creation_date              2013-03-05T15:58:24-0500
_audit_creation_method            fapswitch 2.2
_symmetry_space_group_name_H-M    P1
_symmetry_Int_Tables_number       1
_space_group_crystal_system       triclinic
_cell_length_a                    7.476783
_cell_length_b                    15.34665
_cell_length_c                    16.344113
_cell_angle_alpha                 89.999868
_cell_angle_beta                  89.997231
_cell_angle_gamma                 90.000233
_cell_volume                      1875.38190175

loop_
_atom_site_label
_atom_site_type_symbol
_atom_site_description
_atom_site_fract_x
_atom_site_fract_y
_atom_site_fract_z
_atom_type_partial_charge
O1    O     O_R   0.388780 0.834790 0.412340 -0.552994
O2    O     O_R   0.111220 0.165210 0.912340 -0.553027
O3    O     O_R   0.888780 0.665210 0.587660 -0.553026
O4    O     O_R   0.611220 0.334790 0.087660 -0.553014
O5    O     O_R   0.059040 0.845930 0.587040 -0.512888
O6    O     O_R   0.440960 0.154070 0.087040 -0.512866
O7    O     O_R   0.559040 0.654070 0.412960 -0.512862
O8    O     O_R   0.940960 0.345930 0.912960 -0.512871
C1    C     C_R   0.230982 0.870358 0.612513 1.047718
C2    C     C_R   0.269013 0.129643 0.112514 1.047793
C3    C     C_R   0.730986 0.629644 0.387485 1.047793
C4    C     C_R   0.769018 0.370357 0.887486 1.047750
O9    O     O_R   0.059070 0.845930 0.412970 -0.585493
O10   O     O_R   0.440930 0.154070 0.912970 -0.585413
O11   O     O_R   0.559070 0.654070 0.587030 -0.585410
O12   O     O_R   0.940930 0.345930 0.087030 -0.585444
O13   O     O_R   0.888760 0.665210 0.412340 -0.557531
O14   O     O_R   0.611240 0.334790 0.912340 -0.557546
O15   O     O_R   0.388760 0.834790 0.587660 -0.557539
O16   O     O_R   0.111240 0.165210 0.087660 -0.557532
C5    C     C_R   0.227678 0.868185 0.385782 1.082687
C6    C     C_R   0.272324 0.131812 0.885785 1.082814
C7    C     C_R   0.727675 0.631812 0.614215 1.082832
C8    C     C_R   0.772322 0.368187 0.114216 1.082769
O17   O     O_3   0.222280 0.690700 0.500000 -0.262086
O18   O     O_3   0.277720 0.309300 0.000000 -0.262106
O19   O     O_3   0.722280 0.809300 0.500000 -0.262115
O20   O     O_3   0.777720 0.190700 0.000000 -0.262093
V1    V     V_3+5 0.947430 0.761000 0.500000 1.423618
V2    V     V_3+5 0.552570 0.239000 0.000000 1.423647
V3    V     V_3+5 0.447430 0.739000 0.500000 1.423651
V4    V     V_3+5 0.052570 0.261000 0.000000 1.423643
C9    C     C_3   0.909494 0.571422 0.743035 0.152151
C10   C     C_3   0.590496 0.428584 0.243038 0.152145
C11   C     C_3   0.409507 0.928578 0.256957 0.152168
C12   C     C_3   0.090504 0.071423 0.756964 0.152144
C13   C     C_3   0.915682 0.499785 0.812841 0.024914
C14   C     C_3   0.584316 0.500221 0.312844 0.024881
C15   C     C_3   0.415690 0.000220 0.187154 0.024854
C16   C     C_3   0.084319 0.999787 0.687156 0.024902
H1    H     H_    0.893757 0.532491 0.871634 0.219074
H2    H     H_    0.606225 0.467515 0.371636 0.219094
H3    H     H_    0.393788 0.967517 0.128361 0.219107
H4    H     H_    0.106250 0.032496 0.628365 0.219090
C17   C     C_3   0.721156 0.461548 0.649092 0.238365
C18   C     C_3   0.778885 0.538444 0.149095 0.238346
C19   C     C_3   0.221125 0.038436 0.350901 0.238294
C20   C     C_3   0.278838 0.961550 0.850904 0.238347
C21   C     C_3   0.571640 0.566551 0.741883 -0.436820
C22   C     C_3   0.928341 0.433428 0.241887 -0.436803
C23   C     C_3   0.071667 0.933419 0.258106 -0.436778
C24   C     C_3   0.428359 0.066553 0.758115 -0.436814
C25   C     C_3   0.737748 0.559026 0.684362 -0.346324
C26   C     C_3   0.762254 0.440969 0.184365 -0.346331
C27   C     C_3   0.237751 0.940963 0.315630 -0.346342
C28   C     C_3   0.262250 0.059027 0.815635 -0.346312
H5    H     H_    0.447791 0.555210 0.708240 0.191883
H6    H     H_    0.052202 0.444744 0.208242 0.191871
H7    H     H_    0.947803 0.944720 0.291750 0.191868
H8    H     H_    0.552207 0.055210 0.791757 0.191879
H9    H     H_    0.545497 0.634281 0.761013 0.272147
H10   H     H_    0.954445 0.365698 0.261025 0.272162
H11   H     H_    0.045574 0.865690 0.238964 0.272165
H12   H     H_    0.454504 0.134283 0.738986 0.272149
C29   C     C_3   0.749852 0.438206 0.812675 -0.506854
C30   C     C_3   0.750160 0.561793 0.312675 -0.506845
C31   C     C_3   0.249841 0.061790 0.187323 -0.506845
C32   C     C_3   0.250148 0.938208 0.687322 -0.506848
C33   C     C_3   0.735305 0.390126 0.724841 0.313120
C34   C     C_3   0.764738 0.609870 0.224841 0.313121
C35   C     C_3   0.235259 0.109866 0.275158 0.313149
C36   C     C_3   0.264694 0.890128 0.775155 0.313123
C37   C     C_3   0.581416 0.503675 0.817354 0.110793
C38   C     C_3   0.918582 0.496314 0.317352 0.110805
C39   C     C_3   0.081419 0.996311 0.182645 0.110814
C40   C     C_3   0.418582 0.003679 0.682642 0.110777
H13   H     H_    0.461506 0.463223 0.815939 0.227645
H14   H     H_    0.038507 0.536757 0.315925 0.227617
H15   H     H_    0.961491 0.036753 0.184077 0.227611
H16   H     H_    0.538493 0.963229 0.684055 0.227646
N1    N     N_3   0.074508 0.572780 0.694748 -0.143728
H17   H     H_    0.179271 0.592894 0.732331 0.163063
H18   H     H_    0.105664 0.511454 0.672411 0.232061
N2    N     N_3   0.425493 0.427239 0.194753 -0.143716
H19   H     H_    0.320722 0.407129 0.232338 0.163055
H20   H     H_    0.394359 0.488570 0.172425 0.232088
N3    N     N_3   0.574511 0.927228 0.305240 -0.143711
H21   H     H_    0.679277 0.907120 0.267653 0.163053
H22   H     H_    0.605650 0.988559 0.327568 0.232094
N4    N     N_3   0.925492 0.072776 0.805252 -0.143729
H23   H     H_    0.820728 0.092900 0.767672 0.163058
H24   H     H_    0.894329 0.011446 0.827580 0.232062
N5    N     N_R   0.548207 0.455844 0.603023 0.264425
O21   O     O_R   0.543872 0.481285 0.527160 -0.314921
O22   O     O_R   0.397240 0.431543 0.635390 -0.276724
N6    N     N_R   0.951854 0.544138 0.103032 0.264410
O23   O     O_R   0.956179 0.518797 0.027139 -0.314741
O24   O     O_R   0.102825 0.568403 0.135413 -0.276870
N7    N     N_R   0.048154 0.044129 0.396962 0.264383
O25   O     O_R   0.043873 0.018901 0.472899 -0.314582
O26   O     O_R   0.897169 0.068358 0.364571 -0.276977
N8    N     N_R   0.451784 0.955847 0.896975 0.264411
O27   O     O_R   0.456107 0.981276 0.972852 -0.314909
O28   O     O_R   0.602755 0.931547 0.864611 -0.276739
N9    N     N_R   0.581919 0.329616 0.718429 0.265793
O29   O     O_R   0.573489 0.277365 0.655674 -0.203328
O30   O     O_R   0.470158 0.316868 0.777713 -0.321191
N10   N     N_R   0.918145 0.670369 0.218425 0.265789
O31   O     O_R   0.926634 0.722599 0.155649 -0.203282
O32   O     O_R   0.029876 0.683125 0.277716 -0.321189
N11   N     N_R   0.081840 0.170357 0.281578 0.265808
O33   O     O_R   0.073353 0.222586 0.344351 -0.203255
O34   O     O_R   0.970126 0.183124 0.222284 -0.321182
N12   N     N_R   0.418082 0.829620 0.781569 0.265794
O35   O     O_R   0.426510 0.777367 0.844325 -0.203320
O36   O     O_R   0.529856 0.816879 0.722288 -0.321171
N13   N     N_R   0.900633 0.655280 0.786140 0.293709
O37   O     O_R   0.796275 0.717591 0.761498 -0.242850
O38   O     O_R   0.006597 0.669580 0.848292 -0.211521
N14   N     N_R   0.599327 0.344724 0.286142 0.293705
O39   O     O_R   0.703658 0.282403 0.261492 -0.242862
O40   O     O_R   0.493355 0.330432 0.348298 -0.211523
N15   N     N_R   0.400669 0.844721 0.213849 0.293706
O41   O     O_R   0.296343 0.782398 0.238501 -0.242848
O42   O     O_R   0.506643 0.830429 0.151694 -0.211519
N16   N     N_R   0.099359 0.155281 0.713860 0.293708
O43   O     O_R   0.203725 0.217591 0.738497 -0.242841
O44   O     O_R   0.993394 0.169580 0.651708 -0.211513
N17   N     N_R   0.093143 0.461225 0.828129 0.236351
O45   O     O_R   0.179706 0.416526 0.774355 -0.320823
O46   O     O_R   0.161899 0.466617 0.900878 -0.262846
N18   N     N_R   0.406859 0.538786 0.328137 0.236334
O47   O     O_R   0.320334 0.583512 0.274372 -0.320738
O48   O     O_R   0.338080 0.533382 0.400884 -0.262827
N19   N     N_R   0.593147 0.038788 0.171867 0.236328
O49   O     O_R   0.679659 0.083518 0.225633 -0.320707
O50   O     O_R   0.661936 0.033388 0.099122 -0.262843
N20   N     N_R   0.906856 0.961231 0.671864 0.236349
O51   O     O_R   0.820295 0.916522 0.725633 -0.320809
O52   O     O_R   0.838107 0.966623 0.599113 -0.262854
N21   N     N_R   0.856202 0.442388 0.586761 0.250450
O53   O     O_R   0.945473 0.503922 0.550794 -0.380752
O54   O     O_R   0.843801 0.367464 0.549880 -0.150450
N22   N     N_R   0.643860 0.557611 0.086762 0.250451
O55   O     O_R   0.554567 0.496082 0.050803 -0.380774
O56   O     O_R   0.656293 0.632531 0.049875 -0.150444
N23   N     N_R   0.356159 0.057602 0.413231 0.250453
O57   O     O_R   0.445453 0.996073 0.449189 -0.380775
O58   O     O_R   0.343726 0.132521 0.450122 -0.150421
N24   N     N_R   0.143787 0.942388 0.913233 0.250450
O59   O     O_R   0.054512 0.003921 0.949200 -0.380739
O60   O     O_R   0.156184 0.867462 0.950113 -0.150442
N25   N     N_R   0.889550 0.331496 0.722306 0.269193
O61   O     O_R   0.021177 0.337265 0.670709 -0.168859
O62   O     O_R   0.884040 0.265274 0.771793 -0.384377
N26   N     N_R   0.610515 0.668512 0.222303 0.269186
O63   O     O_R   0.478894 0.662743 0.170707 -0.168877
O64   O     O_R   0.616043 0.734743 0.271781 -0.384381
N27   N     N_R   0.389473 0.168514 0.277696 0.269186
O65   O     O_R   0.521095 0.162752 0.329291 -0.168857
O66   O     O_R   0.383932 0.234747 0.228219 -0.384384
N28   N     N_R   0.110452 0.831495 0.777689 0.269191
O67   O     O_R   0.978816 0.837265 0.829283 -0.168866
O68   O     O_R   0.115976 0.765268 0.728207 -0.384369
N29   N     N_R   0.566656 0.558374 0.891179 0.271727
O69   O     O_R   0.670551 0.625385 0.899665 -0.229053
O70   O     O_R   0.411082 0.565574 0.925465 -0.178729
N30   N     N_R   0.933329 0.441619 0.391179 0.271735
O71   O     O_R   0.829392 0.374624 0.399679 -0.229095
O72   O     O_R   0.088915 0.434393 0.425442 -0.178748
N31   N     N_R   0.066670 0.941621 0.108816 0.271737
O73   O     O_R   0.170620 0.874633 0.100309 -0.229106
O74   O     O_R   0.911080 0.934388 0.074558 -0.178750
N32   N     N_R   0.433339 0.058380 0.608818 0.271724
O75   O     O_R   0.329451 0.125395 0.600334 -0.229022
O76   O     O_R   0.588910 0.065577 0.574528 -0.178723

loop_
_geom_bond_atom_site_label_1
_geom_bond_atom_site_label_2
_geom_bond_distance
_ccdc_geom_bond_type
O17   V3    1.839364 S    
N3    H21   1.042205 S    
O1    C5    1.379127 A    
N29   O69   1.296254 A    
C20   N24   1.464144 S    
O19   V1    1.839369 S    
O13   V1    2.099110 S    
O3    C7    1.379113 A    
N23   O57   1.297223 A    
N31   O73   1.296253 A    
O15   V3    2.099081 S    
C38   N30   1.474000 S    
N1    H17   1.042205 S    
C21   H5    1.090949 S    
N15   O41   1.298274 A    
C15   N19   1.474160 S    
C2    C31   1.612391 S    
O7    C3    1.402360 A    
N31   O74   1.295835 A    
N16   O43   1.298256 A    
C34   N26   1.463313 S    
O9    V1    2.102079 S    
N26   O63   1.299037 A    
N23   O58   1.301585 A    
O10   V2    2.102139 S    
C14   H2    1.096417 S    
N13   O38   1.306838 A    
N27   O65   1.299031 A    
O4    C8    1.379130 A    
C21   C25   1.561891 S    
N15   O42   1.306839 A    
C31   C35   1.617749 S    
C8    C26   1.602439 S    
C30   C38   1.612875 S    
C36   N12   1.479383 S    
O1    V3    2.099076 S    
C19   N7    1.498951 S    
N10   O31   1.303536 A    
O2    V4    2.099053 S    
O3    V1    2.099044 S    
C37   H13   1.090743 S    
N32   O75   1.296265 A    
C24   H8    1.090945 S    
C11   N3    1.464686 S    
N26   O64   1.299548 A    
C1    O15   1.361810 A    
C14   C30   1.558982 S    
C2    O16   1.361817 A    
N18   O47   1.289148 A    
N6    O24   1.301133 A    
O2    C6    1.379116 A    
N27   O66   1.299545 A    
C7    C25   1.602456 S    
O14   V2    2.099075 S    
N25   O62   1.299508 A    
O5    V1    2.102158 S    
C3    C30   1.612394 S    
C32   C36   1.617747 S    
O11   C7    1.379613 A    
C17   N5    1.498939 S    
O12   C8    1.379588 A    
N19   O50   1.298053 A    
C17   N21   1.464143 S    
N29   O70   1.295831 A    
C10   N2    1.464692 S    
C20   C36   1.656924 S    
N1    H18   1.036001 S    
N14   O40   1.306840 A    
N12   O35   1.303485 A    
N28   O68   1.299529 A    
C9    C25   1.613949 S    
C9    N13   1.468652 S    
C19   N23   1.464167 S    
C21   H9    1.102889 S    
C17   C33   1.656925 S    
C22   H6    1.090925 S    
N19   O49   1.289142 A    
O7    V3    2.102110 S    
N2    H19   1.042204 S    
N22   O56   1.301581 A    
C24   H12   1.102884 S    
C29   C37   1.612861 S    
C5    C27   1.602430 S    
C33   N9    1.479381 S    
O18   V4    1.839363 S    
C18   N22   1.464149 S    
C11   C27   1.613920 S    
C33   N25   1.463318 S    
C16   N20   1.474166 S    
N12   O36   1.294330 A    
O8    V4    2.102159 S    
C11   C15   1.585090 S    
O5    C1    1.402365 A    
C12   C28   1.613941 S    
N24   O60   1.301587 A    
N9    O30   1.294325 A    
C4    C29   1.612390 S    
N4    H24   1.036015 S    
N7    O25   1.300495 A    
C12   C16   1.585087 S    
O8    C4    1.402367 A    
C20   N8    1.498937 S    
N6    O23   1.300349 A    
C18   C26   1.607954 S    
O9    C5    1.379588 A    
N11   O34   1.294333 A    
N5    O21   1.300347 A    
C22   C26   1.561871 S    
C32   C40   1.612862 S    
N8    O28   1.301138 A    
C22   C38   1.567804 S    
C19   C35   1.656902 S    
N20   O52   1.298064 A    
N18   O48   1.298062 A    
C13   C29   1.558965 S    
N30   O71   1.296257 A    
O6    V2    2.102100 S    
C37   N29   1.474012 S    
C9    N1    1.464706 S    
C10   C26   1.613922 S    
N3    H22   1.035990 S    
C39   N31   1.473997 S    
C22   H10   1.102887 S    
C21   C37   1.567799 S    
C31   C39   1.612877 S    
N14   O39   1.298279 A    
C19   C27   1.607931 S    
N28   O67   1.299042 A    
O16   V4    2.099107 S    
C12   N4    1.464709 S    
C20   C28   1.607956 S    
C23   H11   1.102877 S    
C3    O13   1.361813 A    
N16   O44   1.306838 A    
N11   O33   1.303490 A    
N7    O26   1.301136 A    
C10   C14   1.585084 S    
C15   C31   1.559000 S    
C12   N16   1.468651 S    
C40   H16   1.090738 S    
C23   C39   1.567803 S    
N22   O55   1.297222 A    
C24   C40   1.567801 S    
O6    C2    1.402357 A    
C6    C28   1.602460 S    
C11   N15   1.468659 S    
O11   V3    2.102138 S    
O12   V4    2.102086 S    
C35   N27   1.463319 S    
N9    O29   1.303459 A    
C38   H14   1.090757 S    
C35   N11   1.479402 S    
O10   C6    1.379615 A    
N21   O54   1.301580 A    
N17   O45   1.289136 A    
C1    C32   1.612385 S    
O20   V2    1.839369 S    
C34   N10   1.479391 S    
N21   O53   1.297225 A    
N4    H23   1.042223 S    
C30   C34   1.617752 S    
C18   N6    1.498949 S    
C29   C33   1.617753 S    
N30   O72   1.295835 A    
N10   O32   1.294352 A    
C9    C13   1.585086 S    
C23   C27   1.561870 S    
C40   N32   1.474018 S    
C13   H1    1.096434 S    
N8    O27   1.300502 A    
N32   O76   1.295835 A    
C18   C34   1.656913 S    
N20   O51   1.289140 A    
C17   C25   1.607968 S    
C16   H4    1.096425 S    
C23   H7    1.090904 S    
C15   H3    1.096407 S    
C10   N14   1.468657 S    
N5    O22   1.301129 A    
C16   C32   1.558968 S    
C4    O14   1.361804 A    
C36   N28   1.463324 S    
N24   O59   1.297228 A    
N2    H20   1.035998 S    
N25   O61   1.299035 A    
N13   O37   1.298266 A    
C39   H15   1.090766 S    
C13   N17   1.474159 S    
O4    V2    2.099077 S    
C24   C28   1.561896 S    
C14   N18   1.474156 S    
N17   O46   1.298053 A    
