data_mof_unit_48402.cif
_audit_creation_date              2012-12-10T18:14:39-0500
_audit_creation_method            fapswitch 2.2
_symmetry_space_group_name_H-M    P1
_symmetry_Int_Tables_number       1
_space_group_crystal_system       triclinic
_cell_length_a                    10.972544
_cell_length_b                    9.793496
_cell_length_c                    27.564021
_cell_angle_alpha                 89.777919
_cell_angle_beta                  89.378305
_cell_angle_gamma                 90.570204
_cell_volume                      2961.6731806

loop_
_atom_site_label
_atom_site_type_symbol
_atom_type_description
_atom_site_fract_x
_atom_site_fract_y
_atom_site_fract_z
_atom_type_partial_charge
C1    C     C_R   0.260326 0.498935 0.502140 0.815743
C2    C     C_R   0.408076 0.564529 0.279398 0.197595
C3    C     C_R   0.515586 0.525510 0.253638 0.251462
C4    C     C_R   0.563128 0.598707 0.103672 -0.074678
C5    C     C_R   0.466393 0.662647 0.128832 -0.094763
C6    C     C_R   0.374128 0.728612 0.102167 -0.002283
C7    C     C_R   0.662230 0.546553 0.130192 -0.047373
C8    C     C_R   0.501407 0.500030 0.355186 -0.032801
C9    C     C_R   0.519128 0.502825 0.645460 -0.017726
C10   C     C_R   0.456295 0.622129 0.975433 0.007162
C11   C     C_R   0.671631 0.553225 0.975421 0.047254
C12   C     C_R   0.500280 0.499993 0.408123 0.817667
C13   C     C_R   0.564239 0.584906 0.949832 0.057587
C14   C     C_R   0.345137 0.630438 0.949017 0.133917
C15   C     C_R   0.347804 0.625323 0.898600 -0.104938
C16   C     C_R   0.455688 0.599885 0.873060 -0.063245
C17   C     C_R   0.564200 0.576599 0.898414 -0.046686
C18   C     C_R   0.671849 0.543499 0.872321 -0.088072
C19   C     C_R   0.662647 0.519029 0.821827 0.613521
C20   C     C_R   0.455149 0.588797 0.822463 0.591215
C21   C     C_R   0.467997 0.421867 0.727276 -0.001118
C22   C     C_R   0.452087 0.417583 0.676807 -0.213000
C23   C     C_R   0.737457 0.500657 0.504542 0.824206
C24   C     C_R   0.604119 0.593131 0.665283 -0.150807
C25   C     C_R   0.617795 0.603844 0.715242 -0.117438
C26   C     C_R   0.548959 0.520407 0.746704 0.273910
C27   C     C_R   0.463947 0.645543 0.026229 0.035996
C28   C     C_R   0.564695 0.595768 0.052194 0.089363
C29   C     C_R   0.668029 0.546606 0.026941 -0.003338
C30   C     C_R   0.377194 0.723217 0.051542 -0.264471
C31   C     C_R   0.763609 0.492742 0.104571 0.162827
C32   C     C_R   0.780215 0.532490 0.948735 -0.231522
C33   C     C_R   0.782561 0.531191 0.898019 -0.019172
C34   C     C_R   0.502729 0.500064 0.592251 0.871356
C35   C     C_R   0.764722 0.492607 0.054026 -0.160291
C36   C     C_3   0.072868 0.619118 0.537132 -0.400545
C37   C     C_3   0.064134 0.356555 0.526629 -0.296650
C38   C     C_3   0.930996 0.630388 0.534501 -0.275737
C39   C     C_3   0.921333 0.365467 0.533479 -0.270170
C40   C     C_3   0.065436 0.512325 0.452314 0.295154
C41   C     C_3   0.120352 0.496246 0.505590 -0.007698
C42   C     C_3   0.874734 0.500237 0.508892 -0.043975
C43   C     C_3   0.923332 0.501634 0.455562 -0.444747
C44   C     C_3   0.624685 0.085116 0.489667 -0.137183
C45   C     C_3   0.627386 0.921455 0.496821 -0.150708
C46   C     C_3   0.458268 0.083133 0.548629 -0.143383
C47   C     C_3   0.441594 0.920414 0.546016 -0.137233
C48   C     C_3   0.418736 0.082034 0.462746 -0.159639
C49   C     C_3   0.437560 0.920464 0.457682 -0.134980
C50   C     C_R   0.470773 0.664284 0.179909 0.641933
C51   C     C_R   0.653600 0.547871 0.181453 0.576838
C52   C     C_R   0.590975 0.430089 0.278485 -0.023822
C53   C     C_R   0.589654 0.427777 0.329449 -0.242972
C54   C     C_R   0.405212 0.557469 0.330098 -0.217384
Cu1   Cu    Cu3+1 0.499860 0.642410 0.500020 1.019481
Cu2   Cu    Cu3+1 0.499860 0.357590 0.500020 0.988019
H1    H     H_    0.324552 0.589336 0.349685 0.159384
H2    H     H_    0.866736 0.525507 0.966812 0.167675
H3    H     H_    0.659576 0.656027 0.641854 0.219661
H4    H     H_    0.680864 0.678795 0.729616 0.174687
H5    H     H_    0.841729 0.444532 0.036694 0.171921
H6    H     H_    0.105966 0.712351 0.518405 0.236575
H7    H     H_    0.075982 0.283058 0.496517 0.210867
H8    H     H_    0.914763 0.712836 0.507813 0.193915
H9    H     H_    0.885027 0.278479 0.512366 0.212412
H10   H     H_    0.880645 0.586514 0.434999 0.169157
H11   H     H_    0.891512 0.409163 0.436726 0.213535
H12   H     H_    0.691967 0.126552 0.515088 0.203758
H13   H     H_    0.674987 0.903234 0.530887 0.219260
H14   H     H_    0.442929 0.128963 0.427592 0.195883
H15   H     H_    0.497251 0.910289 0.425356 0.198243
H16   H     H_    0.368020 0.126064 0.557012 0.180856
H17   H     H_    0.342145 0.899362 0.544344 0.219328
H18   H     H_    0.387399 0.347474 0.662343 0.209014
H19   H     H_    0.262226 0.633008 0.879522 0.205582
H20   H     H_    0.310428 0.781226 0.032124 0.172214
H21   H     H_    0.653005 0.364425 0.349101 0.194550
N1    N     N_R   0.544031 0.574385 0.203946 -0.429942
N2    N     N_R   0.556031 0.543565 0.798154 -0.448591
N3    N     N_3   0.500250 0.143650 0.501060 -0.260389
N4    N     N_3   0.500250 0.856350 0.501060 -0.253959
O1    O     O_R   0.317570 0.620260 0.500030 -0.563703
O2    O     O_R   0.317570 0.379740 0.500030 -0.582634
O3    O     O_R   0.499900 0.620250 0.430280 -0.525148
O4    O     O_R   0.499900 0.379750 0.430280 -0.597977
O5    O     O_R   0.682190 0.620260 0.500010 -0.589442
O6    O     O_R   0.682190 0.379740 0.500010 -0.578905
O7    O     O_R   0.499860 0.620280 0.569750 -0.588837
O8    O     O_R   0.499860 0.379720 0.569750 -0.565266
O9    O     O_2   0.415969 0.765655 0.204424 -0.490081
O10   O     O_2   0.353563 0.619990 0.797697 -0.507764
O11   O     O_2   0.754395 0.532922 0.208294 -0.557608
O12   O     O_2   0.756806 0.465257 0.796836 -0.477394
C55   C     C_2   0.652379 0.315557 0.253149 0.937915
O13   O     O_2   0.741025 0.261045 0.271187 -0.564081
O14   O     O_R   0.606198 0.266967 0.209306 -0.758433
H22   H     H_    0.655304 0.188521 0.195674 0.343096
N5    N     N_3   0.865400 0.431688 0.128224 -0.550785
H23   H     H_    0.912601 0.506559 0.147571 0.279095
H24   H     H_    0.833983 0.354388 0.151587 0.268273
C56   C     C_2   0.904394 0.527068 0.874130 0.936579
O15   O     O_2   0.929329 0.605493 0.840752 -0.525035
O16   O     O_R   0.993118 0.438814 0.891801 -0.741415
H25   H     H_    0.073281 0.447362 0.873336 0.352371
C57   C     C_2   0.129292 0.636451 0.587309 0.978256
O17   O     O_2   0.188287 0.739872 0.594945 -0.476106
O18   O     O_R   0.112087 0.545498 0.625936 -0.639459
H26   H     H_    0.050147 0.471656 0.619528 0.333637
C58   C     C_2   0.129876 0.281152 0.566669 0.907043
O19   O     O_2   0.100450 0.163028 0.576066 -0.444057
O20   O     O_R   0.229746 0.337790 0.589990 -0.770107
H27   H     H_    0.264988 0.268851 0.613080 0.350165
C59   C     C_2   0.872881 0.688954 0.580445 0.903536
O21   O     O_2   0.827236 0.801920 0.578666 -0.537045
O22   O     O_R   0.884692 0.626343 0.625655 -0.725056
H28   H     H_    0.861782 0.688152 0.653656 0.356246
C60   C     C_2   0.865353 0.336918 0.583819 0.908984
O23   O     O_2   0.782740 0.407394 0.599367 -0.575673
O24   O     O_R   0.895003 0.219377 0.609762 -0.655195
H29   H     H_    0.849624 0.211264 0.641909 0.374652
N6    N     N_3   0.296253 0.590583 0.254807 -0.497442
H30   H     H_    0.234673 0.512009 0.263708 0.220703
H31   H     H_    0.259873 0.681327 0.268348 0.265051
N7    N     N_3   0.099822 0.643223 0.429644 -0.574371
H32   H     H_    0.079381 0.639510 0.392668 0.199339
H33   H     H_    0.046338 0.722149 0.443075 0.247085
N8    N     N_3   0.111301 0.403351 0.420669 -0.584355
H34   H     H_    0.065215 0.404448 0.387615 0.227488
H35   H     H_    0.202917 0.423116 0.412053 0.244071
C61   C     C_2   0.680069 0.132527 0.440396 0.896793
O25   O     O_2   0.633275 0.103483 0.401702 -0.604958
O26   O     O_R   0.796469 0.190320 0.439408 -0.776867
H36   H     H_    0.829472 0.203308 0.405156 0.336380
C62   C     C_2   0.714340 0.860924 0.458961 0.878414
O27   O     O_2   0.678726 0.789502 0.425728 -0.553276
O28   O     O_R   0.837190 0.899747 0.460310 -0.755354
H37   H     H_    0.884774 0.866540 0.431030 0.324887
C63   C     C_2   0.529415 0.129078 0.593628 0.911057
O29   O     O_2   0.636783 0.161639 0.591841 -0.553288
O30   O     O_R   0.470257 0.123333 0.638804 -0.767053
H38   H     H_    0.527092 0.143895 0.666667 0.345115
C64   C     C_2   0.479232 0.861490 0.594625 0.925791
O31   O     O_2   0.586588 0.856739 0.605551 -0.597313
O32   O     O_R   0.390514 0.827682 0.629442 -0.657519
H39   H     H_    0.426310 0.799129 0.661617 0.351967
C65   C     C_2   0.285052 0.118782 0.464708 0.886840
O33   O     O_2   0.221838 0.088792 0.499716 -0.565335
O34   O     O_R   0.229310 0.158886 0.421701 -0.762598
H40   H     H_    0.137361 0.148018 0.423413 0.355825
C66   C     C_2   0.325414 0.849451 0.439854 0.944007
O35   O     O_2   0.235129 0.841409 0.465678 -0.580836
O36   O     O_R   0.319117 0.815740 0.390708 -0.760863
H41   H     H_    0.232956 0.800862 0.379127 0.327008
C67   C     C_2   0.266406 0.793199 0.125129 0.924795
O37   O     O_2   0.232785 0.905171 0.111105 -0.573894
O38   O     O_R   0.199841 0.723151 0.161077 -0.722733
H42   H     H_    0.127482 0.776951 0.173432 0.344752
C68   C     C_2   0.400846 0.321761 0.758602 0.901907
O39   O     O_2   0.307948 0.266408 0.743892 -0.527287
O40   O     O_R   0.444996 0.287670 0.804440 -0.757759
H43   H     H_    0.391250 0.218327 0.822049 0.349106
N9    N     N_3   0.226519 0.619055 0.971341 -0.580762
H44   H     H_    0.188706 0.715914 0.975243 0.228995
H45   H     H_    0.229235 0.566084 0.004276 0.246587

loop_
_geom_bond_atom_site_label_1
_geom_bond_atom_site_label_2
_ccdc_geom_bond_type
C10   C27   A    
C15   H19   S    
C21   C26   A    
C56   O15   D    
C21   C68   S    
C53   H21   S    
O20   H27   S    
C32   H2    S    
Cu1   Cu2   S    
C52   C53   A    
C57   O18   S    
C47   C64   S    
C45   C62   S    
N9    H44   S    
C23   C42   S    
C12   O4    A    
C33   C56   S    
C28   C29   A    
C59   O21   D    
C60   O24   S    
C65   O34   S    
C5    C6    A    
C3    C52   A    
C9    C22   A    
C44   C61   S    
C15   C16   A    
C12   O3    A    
C18   C19   A    
C31   N5    S    
C49   N4    S    
Cu1   O7    S    
C55   O14   S    
C4    C28   A    
C50   O9    S    
C40   C43   S    
C16   C17   A    
C23   O5    A    
C48   C65   S    
O18   H26   S    
C24   C25   A    
C52   C55   S    
C25   H4    S    
Cu1   N4    S    
O26   H36   S    
C67   O38   S    
C19   O12   S    
C8    C12   S    
C46   C63   S    
C56   O16   S    
C23   O6    A    
C21   C22   A    
C27   C30   A    
C68   O40   S    
C39   H9    S    
C36   C41   S    
C4    C7    A    
C36   H6    S    
C50   N1    A    
C37   H7    S    
C39   C42   S    
C38   H8    S    
C37   C58   S    
C40   N7    S    
C20   O10   S    
C7    C31   A    
C45   H13   S    
C44   N3    S    
O30   H38   S    
C47   H17   S    
C2    C54   A    
C8    C54   A    
C38   C59   S    
O32   H39   S    
Cu2   O6    S    
C62   O28   S    
C1    O1    A    
C39   C60   S    
C40   N8    S    
C14   N9    S    
C61   O26   S    
N8    H35   S    
C66   O36   S    
C51   O11   S    
C30   H20   S    
C14   C15   A    
C16   C20   A    
O14   H22   S    
C17   C18   A    
C67   O37   D    
C35   H5    S    
C34   O7    A    
O34   H40   S    
Cu1   O1    S    
C19   N2    A    
N6    H30   S    
C6    C67   S    
C63   O30   S    
C49   C66   S    
C1    C41   S    
C40   C41   S    
C6    C30   A    
C11   C32   A    
N5    H24   S    
C10   C14   A    
C68   O39   D    
C31   C35   A    
C5    C50   A    
C44   H12   S    
C42   C43   S    
C22   H18   S    
N8    H34   S    
C51   N1    A    
O16   H25   S    
C44   C45   S    
Cu2   O2    S    
N7    H33   S    
C65   O33   D    
C2    N6    S    
Cu2   O8    S    
C46   C47   S    
O38   H42   S    
C20   N2    A    
C36   C57   S    
C64   O31   D    
C46   H16   S    
C45   N4    S    
C48   H14   S    
O28   H37   S    
C10   C13   A    
C8    C53   A    
O24   H29   S    
C9    C24   A    
C38   C42   S    
C62   O27   D    
C1    O2    A    
C57   O17   D    
C29   C35   A    
C26   N2    S    
Cu2   N3    S    
C13   C17   A    
O40   H43   S    
C48   N3    S    
Cu1   O5    S    
C58   O20   S    
C61   O25   D    
C25   C26   A    
C34   O8    A    
C7    C51   A    
C37   C39   S    
N9    H45   S    
C58   O19   D    
C32   C33   A    
C46   N3    S    
C11   C13   A    
C43   H10   S    
Cu2   O4    S    
C9    C34   S    
C24   H3    S    
C48   C49   S    
C36   C38   S    
C2    C3    A    
C64   O32   S    
C47   N4    S    
C37   C41   S    
C55   O13   D    
C18   C33   A    
N6    H31   S    
C63   O29   D    
C4    C5    A    
O36   H41   S    
C11   C29   A    
C43   H11   S    
N5    H23   S    
C49   H15   S    
C27   C28   A    
C66   O35   D    
Cu1   O3    S    
C60   O23   D    
C3    N1    S    
O22   H28   S    
N7    H32   S    
C59   O22   S    
C54   H1    S    
