data_mof_unit_13079.cif
_audit_creation_date              2012-12-10T18:36:23-0500
_audit_creation_method            fapswitch 2.2
_symmetry_space_group_name_H-M    P1
_symmetry_Int_Tables_number       1
_space_group_crystal_system       triclinic
_cell_length_a                    13.906026
_cell_length_b                    15.124981
_cell_length_c                    15.80716
_cell_angle_alpha                 92.071591
_cell_angle_beta                  71.032379
_cell_angle_gamma                 91.533092
_cell_volume                      3141.72049789

loop_
_atom_site_label
_atom_site_type_symbol
_atom_type_description
_atom_site_fract_x
_atom_site_fract_y
_atom_site_fract_z
_atom_type_partial_charge
C1    C     C_R   0.501135 0.669548 0.500034 0.773847
C2    C     C_R   0.590904 0.189464 0.476525 -0.251742
C3    C     C_R   0.504475 0.765270 0.498180 -0.050012
C4    C     C_R   0.496481 0.231841 0.501217 -0.085554
C5    C     C_R   0.550230 0.809933 0.417989 0.079852
C6    C     C_R   0.405374 0.179794 0.524075 0.089962
C7    C     C_R   0.548145 0.902092 0.420148 -0.220580
C8    C     C_R   0.412950 0.087770 0.518644 -0.223612
C9    C     C_R   0.506382 0.949800 0.500883 0.058671
C10   C     C_R   0.506783 0.046512 0.497817 0.062486
C11   C     C_R   0.900425 0.422012 0.467654 -0.292648
C12   C     C_R   0.498190 0.329481 0.501202 0.802575
C13   C     C_R   0.084507 0.543839 0.567594 -0.296812
C14   C     C_R   0.799538 0.427186 0.466251 0.043235
C15   C     C_R   0.187012 0.547262 0.563847 0.025006
C16   C     C_R   0.438634 0.500453 0.672339 0.792142
C17   C     C_R   0.561268 0.501309 0.327820 0.802622
C18   C     C_R   0.784941 0.570184 0.533819 0.335242
C19   C     C_R   0.230655 0.447116 0.439432 0.367934
C20   C     C_R   0.884874 0.566979 0.535409 -0.243173
C21   C     C_R   0.129063 0.443967 0.439694 -0.331045
C22   C     C_R   0.945010 0.492838 0.503028 0.093945
C23   C     C_R   0.379341 0.453819 0.092353 -0.236217
C24   C     C_R   0.053628 0.492646 0.504025 0.123121
C25   C     C_R   0.402392 0.493993 0.770689 -0.090770
C26   C     C_R   0.596653 0.497583 0.229199 -0.124298
C27   C     C_R   0.270431 0.446743 0.906055 0.148389
C28   C     C_R   0.728868 0.457161 0.089714 0.161386
C29   C     C_R   0.304011 0.460870 0.813910 -0.304180
C30   C     C_R   0.695208 0.468120 0.183036 -0.273994
C31   C     C_R   0.466505 0.516212 0.821922 0.034867
C32   C     C_R   0.530724 0.517173 0.180859 0.030411
C33   C     C_R   0.441592 0.482600 0.908744 0.006001
C34   C     C_R   0.618420 0.462322 0.905046 -0.256543
C35   C     C_R   0.555341 0.484014 0.091492 0.024861
C36   C     C_R   0.339538 0.457201 0.954099 0.142782
C37   C     C_R   0.658398 0.464577 0.043368 0.119475
C38   C     C_R   0.514798 0.475720 0.952788 0.059456
C39   C     C_R   0.482211 0.473966 0.046804 0.081736
C40   C     C_3   0.450103 0.588751 0.216696 -0.368464
C41   C     C_3   0.468749 0.667138 0.153686 -0.365557
C42   C     C_3   0.393144 0.740918 0.193781 -0.858273
C43   C     C_3   0.545873 0.590655 0.794243 -0.400742
C44   C     C_3   0.499344 0.675488 0.774437 -0.356375
C45   C     C_R   0.309680 0.442316 0.046174 -0.199223
C46   C     C_3   0.566937 0.756763 0.774170 -0.862796
C47   C     C_3   0.412060 0.951956 0.671783 -0.409420
C48   C     C_3   0.488938 0.005154 0.705098 -0.357221
C49   C     C_3   0.438932 0.042542 0.799816 -0.844820
C50   C     C_3   0.702773 0.056872 0.448309 -0.408036
C51   C     C_3   0.724209 0.015475 0.527388 -0.346993
C52   C     C_3   0.832414 0.980835 0.499876 -0.851326
C53   C     C_3   0.600390 0.762050 0.329379 -0.414565
C54   C     C_3   0.716451 0.769411 0.303131 -0.328820
C55   C     C_3   0.767720 0.719140 0.215176 -0.845254
C56   C     C_R   0.688391 0.452967 0.949969 -0.202042
C57   C     C_3   0.299033 0.217502 0.557754 -0.392654
C58   C     C_3   0.273667 0.255936 0.653553 -0.317909
C59   C     C_3   0.168494 0.297230 0.684910 -0.843444
C60   C     C_R   0.461353 0.904789 0.581854 0.113166
C61   C     C_R   0.597765 0.097441 0.475134 0.101380
C62   C     C_R   0.459864 0.812310 0.578528 -0.260956
Cu1   Cu    Cu3+1 0.403570 0.500010 0.500000 0.943379
Cu2   Cu    Cu3+1 0.596430 0.499990 0.500000 0.923765
H1    H     H_    0.232326 0.422781 0.083143 0.174062
H2    H     H_    0.252287 0.447090 0.776452 0.172932
H3    H     H_    0.354006 0.439039 0.162388 0.137373
H4    H     H_    0.644828 0.454070 0.832872 0.160070
H5    H     H_    0.423762 0.776320 0.638974 0.123007
H6    H     H_    0.660634 0.228568 0.458280 0.148881
H7    H     H_    0.578992 0.937062 0.358173 0.135232
H8    H     H_    0.344470 0.047021 0.533285 0.129558
H9    H     H_    0.660011 0.636635 0.608758 0.262569
H10   H     H_    0.733010 0.688153 0.512672 0.234630
H11   H     H_    0.278432 0.328196 0.381201 0.175143
H12   H     H_    0.766369 0.438688 0.910827 0.168910
H13   H     H_    0.308731 0.413725 0.311913 0.182030
H14   H     H_    0.314187 0.716203 0.204807 0.260463
H15   H     H_    0.400180 0.765871 0.258503 0.251445
H16   H     H_    0.408817 0.796588 0.147039 0.243034
H17   H     H_    0.547229 0.693865 0.141476 0.218195
H18   H     H_    0.460829 0.645845 0.088342 0.232875
H19   H     H_    0.372045 0.561920 0.230076 0.196469
H20   H     H_    0.452335 0.617521 0.281393 0.208720
H21   H     H_    0.573575 0.769401 0.841726 0.252483
H22   H     H_    0.643993 0.747682 0.725010 0.268619
H23   H     H_    0.942381 0.362310 0.441733 0.132731
H24   H     H_    0.532338 0.815269 0.755994 0.247187
H25   H     H_    0.487747 0.668314 0.708416 0.203650
H26   H     H_    0.424101 0.686967 0.826202 0.223164
H27   H     H_    0.576633 0.608767 0.849188 0.212997
H28   H     H_    0.611469 0.568590 0.736930 0.205271
H29   H     H_    0.119277 0.465483 0.939478 0.218559
H30   H     H_    0.155066 0.358863 0.918389 0.219879
H31   H     H_    0.871832 0.423362 0.087550 0.219555
H32   H     H_    0.867924 0.489708 0.006288 0.205408
H33   H     H_    0.375648 0.086690 0.801651 0.252468
H34   H     H_    0.030027 0.580751 0.620888 0.133707
H35   H     H_    0.409050 0.988040 0.847047 0.252239
H36   H     H_    0.495926 0.081513 0.821663 0.244787
H37   H     H_    0.552512 0.962213 0.704898 0.213006
H38   H     H_    0.520694 0.061436 0.661070 0.232612
H39   H     H_    0.351116 0.995825 0.668015 0.193243
H40   H     H_    0.373651 0.902805 0.723156 0.194493
H41   H     H_    0.844101 0.929509 0.445534 0.252624
H42   H     H_    0.888453 0.035738 0.476464 0.250118
H43   H     H_    0.845451 0.950768 0.558202 0.242822
H44   H     H_    0.713879 0.065758 0.582551 0.216578
H45   H     H_    0.768560 0.372045 0.437647 0.125960
H46   H     H_    0.671231 0.959123 0.552451 0.229814
H47   H     H_    0.711957 0.006994 0.393287 0.190455
H48   H     H_    0.762293 0.108401 0.420796 0.190153
H49   H     H_    0.747905 0.647628 0.222263 0.263953
H50   H     H_    0.743336 0.745218 0.160684 0.248092
H51   H     H_    0.851543 0.727061 0.196876 0.239264
H52   H     H_    0.740979 0.840077 0.295612 0.209879
H53   H     H_    0.741681 0.741612 0.356455 0.223939
H54   H     H_    0.577738 0.691196 0.331983 0.186301
H55   H     H_    0.574807 0.791153 0.276873 0.196641
H56   H     H_    0.208917 0.586963 0.613103 0.129789
H57   H     H_    0.167228 0.354659 0.643421 0.265186
H58   H     H_    0.109835 0.247794 0.680100 0.249463
H59   H     H_    0.149503 0.320317 0.755780 0.229104
H60   H     H_    0.275032 0.202148 0.699272 0.208271
H61   H     H_    0.330696 0.307120 0.657914 0.224464
H62   H     H_    0.288839 0.266648 0.511480 0.223007
H63   H     H_    0.241463 0.164796 0.558343 0.175853
H64   H     H_    0.915811 0.625041 0.559997 0.144257
H65   H     H_    0.110461 0.404030 0.388801 0.129064
H66   H     H_    0.747001 0.455456 0.219531 0.163606
N1    N     N_R   0.741310 0.499980 0.500000 -0.180701
N2    N     N_R   0.258690 0.500020 0.500000 -0.163205
N3    N     N_3   0.733036 0.650614 0.566804 -0.626790
N4    N     N_3   0.304657 0.393817 0.375487 -0.530780
N5    N     N_3   0.167602 0.418153 0.949579 -0.618066
N6    N     N_3   0.832815 0.434578 0.042556 -0.603842
O1    O     O_R   0.418570 0.628550 0.499990 -0.583391
O2    O     O_R   0.581430 0.371450 0.500010 -0.595223
O3    O     O_R   0.581440 0.628540 0.499990 -0.599682
O4    O     O_R   0.418560 0.371460 0.500010 -0.557310
O5    O     O_R   0.372890 0.500010 0.629830 -0.593923
O6    O     O_R   0.627110 0.499990 0.370170 -0.580678
O7    O     O_R   0.535760 0.500000 0.629840 -0.584411
O8    O     O_R   0.464240 0.500000 0.370160 -0.557934

loop_
_geom_bond_atom_site_label_1
_geom_bond_atom_site_label_2
_ccdc_geom_bond_type
C25   C31   A    
C14   H45   S    
C42   H16   S    
C23   C45   A    
C27   C29   A    
Cu1   O4    S    
C40   H20   S    
C2    C4    A    
C6    C57   S    
H11   N4    S    
C1    O1    A    
H32   N6    S    
Cu2   O2    S    
C53   C54   S    
C19   N4    S    
C34   C56   A    
C31   C43   S    
C17   O8    A    
C56   H12   S    
C17   C26   S    
C5    C53   S    
C35   C37   A    
C20   H64   S    
C7    H7    S    
C38   C39   A    
C11   C14   A    
C48   H37   S    
H10   N3    S    
C19   N2    A    
C33   C36   A    
C15   H56   S    
C18   N3    S    
C60   C62   A    
C41   C42   S    
C23   H3    S    
C13   H34   S    
C50   H47   S    
C47   C60   S    
C37   C56   A    
C15   N2    A    
C52   H43   S    
C11   H23   S    
C51   H44   S    
C54   H52   S    
Cu1   O8    S    
C12   O4    A    
C4    C12   S    
C9    C10   S    
C18   C20   A    
C1    O3    A    
C2    C61   A    
C46   H21   S    
C59   H58   S    
C52   H42   S    
C42   H15   S    
C28   N6    S    
C59   H59   S    
Cu1   O1    S    
C40   H19   S    
C18   N1    A    
C50   H48   S    
C44   C46   S    
H30   N5    S    
C46   H24   S    
C14   N1    A    
C25   C29   A    
C8    H8    S    
C47   H39   S    
C51   C52   S    
C32   C35   A    
C16   O7    A    
C4    C6    A    
C34   H4    S    
C57   H62   S    
C5    C7    A    
C53   H54   S    
C6    C8    A    
C55   H49   S    
C3    C5    A    
C58   C59   S    
C30   H66   S    
C43   H27   S    
Cu1   Cu2   S    
C62   H5    S    
C17   O6    A    
C1    C3    S    
C35   C39   A    
C43   C44   S    
C49   H35   S    
C47   C48   S    
Cu2   N1    S    
C41   H17   S    
C31   C33   A    
C50   C51   S    
Cu1   O5    S    
C36   C45   A    
Cu1   N2    S    
Cu2   O6    S    
C21   H65   S    
C48   C49   S    
C55   H50   S    
C20   C22   A    
C52   H41   S    
C42   H14   S    
C51   H46   S    
C13   C15   A    
C45   H1    S    
C22   C24   S    
C21   C24   A    
C10   C61   A    
H13   N4    S    
C44   H26   S    
C3    C62   A    
C16   C25   S    
C7    C9    A    
C54   C55   S    
C40   C41   S    
C47   H40   S    
C19   C21   A    
C34   C38   A    
C43   H28   S    
H9    N3    S    
H29   N5    S    
C57   H63   S    
C53   H55   S    
C26   C30   A    
C26   C32   A    
Cu2   O7    S    
C27   C36   A    
C11   C22   A    
C58   H60   S    
C33   C38   A    
C48   H38   S    
C9    C60   A    
C27   N5    S    
C28   C30   A    
C16   O5    A    
C49   H36   S    
C57   C58   S    
C55   H51   S    
C28   C37   A    
C23   C39   A    
C41   H18   S    
H31   N6    S    
C12   O2    A    
C32   C40   S    
C49   H33   S    
C29   H2    S    
C13   C24   A    
C58   H61   S    
C8    C10   A    
C54   H53   S    
C50   C61   S    
C2    H6    S    
C59   H57   S    
C44   H25   S    
C46   H22   S    
Cu2   O3    S    
