data_mof_unit_57442.cif
_audit_creation_date              2013-03-05T15:50:56-0500
_audit_creation_method            fapswitch 2.2
_symmetry_space_group_name_H-M    P1
_symmetry_Int_Tables_number       1
_space_group_crystal_system       triclinic
_cell_length_a                    12.042058
_cell_length_b                    12.701022
_cell_length_c                    15.804169
_cell_angle_alpha                 90.825779
_cell_angle_beta                  86.175463
_cell_angle_gamma                 94.919503
_cell_volume                      2402.83178148

loop_
_atom_site_label
_atom_site_type_symbol
_atom_site_description
_atom_site_fract_x
_atom_site_fract_y
_atom_site_fract_z
_atom_type_partial_charge
O1    O     O_R   0.421690 0.658830 0.504140 -0.636764
O2    O     O_R   0.609320 0.646410 0.494190 -0.570669
C1    C     C_R   0.523668 0.700335 0.503542 0.891400
O3    O     O_R   0.406150 0.506210 0.627840 -0.617213
O4    O     O_R   0.593770 0.493790 0.617880 -0.576447
C2    C     C_R   0.500239 0.501208 0.661356 0.954513
Zn1   Zn    Zn3+2 0.374720 0.508290 0.506640 1.022960
Zn2   Zn    Zn3+2 0.625280 0.491710 0.493360 1.061640
O5    O     O_R   0.390680 0.353590 0.505810 -0.573230
O6    O     O_R   0.578310 0.341170 0.495860 -0.603703
O7    O     O_R   0.406230 0.506210 0.382120 -0.593790
O8    O     O_R   0.593850 0.493790 0.372160 -0.604727
C3    C     C_R   0.476457 0.299672 0.497537 1.001334
C4    C     C_R   0.499782 0.499332 0.338678 0.902977
C5    C     C_3   0.398756 0.564532 0.957457 -0.250675
C6    C     C_3   0.616653 0.548100 0.947352 -0.308924
C7    C     C_3   0.610888 0.566872 0.046905 -0.266313
H1    H     H_    0.671057 0.483455 0.934794 0.198115
C8    C     C_1   0.498940 0.496189 0.250444 0.042586
C9    C     C_3   0.498675 0.499300 0.916607 -0.079757
C10   C     C_3   0.390954 0.539141 0.055411 -0.295289
C11   C     C_3   0.502161 0.494333 0.083485 -0.065903
C12   C     C_3   0.502957 0.374378 0.047432 -0.265265
C13   C     C_3   0.481695 0.376721 0.946348 -0.270506
C14   C     C_1   0.499553 0.494200 0.175465 0.113725
C15   C     C_1   0.499906 0.502447 0.824752 0.123539
C16   C     C_1   0.500486 0.502498 0.749692 0.074709
H2    H     H_    0.328912 0.470238 0.062517 0.232694
C17   C     C_R   0.459019 0.187284 0.488108 -0.069693
C18   C     C_R   0.542596 0.812649 0.511541 -0.048253
C19   C     C_R   0.583547 0.971488 0.593654 -0.124126
C20   C     C_R   0.584428 0.861417 0.584981 -0.102258
C21   C     C_R   0.508292 0.870891 0.446369 -0.189228
C22   C     C_R   0.500307 0.978733 0.456253 0.094811
C23   C     C_R   0.525119 0.026505 0.535415 0.086389
C24   C     C_R   0.487669 0.126027 0.554894 -0.089765
C25   C     C_R   0.443573 0.144295 0.406422 -0.143930
C26   C     C_R   0.460885 0.037706 0.391019 -0.082458
H3    H     H_    0.479682 0.829072 0.390554 0.170224
N1    N     N_R   0.207800 0.519340 0.515510 -0.122616
N2    N     N_R   0.792190 0.480660 0.484490 -0.154949
C27   C     C_R   0.954433 0.407576 0.414830 -0.166826
C28   C     C_R   0.837595 0.413841 0.425069 0.047458
C29   C     C_R   0.858967 0.540061 0.536435 0.029563
C30   C     C_R   0.976332 0.533295 0.532112 -0.001762
C31   C     C_R   0.024293 0.467167 0.469238 -0.007634
C32   C     C_R   0.141327 0.460888 0.463546 0.041487
C33   C     C_R   0.164014 0.584125 0.575735 -0.007062
C34   C     C_R   0.047953 0.591738 0.587043 -0.127416
H4    H     H_    0.180961 0.408930 0.418456 0.192285
H5    H     H_    0.220020 0.627847 0.617009 0.169426
H6    H     H_    0.819589 0.593301 0.580206 0.217257
C35   C     C_2   0.336043 0.619222 0.114711 1.030768
O9    O     O_2   0.245315 0.593512 0.151576 -0.528436
O10   O     O_R   0.386872 0.720420 0.128326 -0.748869
H7    H     H_    0.340915 0.763921 0.169448 0.370212
C36   C     C_2   0.285266 0.536108 0.918853 0.967478
O11   O     O_2   0.200762 0.511633 0.964146 -0.531229
O12   O     O_R   0.275950 0.546421 0.831593 -0.811183
H8    H     H_    0.197163 0.527646 0.814064 0.365679
C37   C     C_2   0.615506 0.332667 0.065089 0.447722
H9    H     H_    0.683415 0.331910 0.016651 0.112676
O13   O     O_2   0.633878 0.304397 0.136131 -0.518908
C38   C     C_2   0.464930 0.159489 0.645391 0.496829
H10   H     H_    0.463218 0.102322 0.695872 0.079240
O14   O     O_2   0.444175 0.249337 0.664913 -0.547140
C39   C     C_2   0.414494 0.211025 0.335790 0.419328
H11   H     H_    0.450135 0.198711 0.271904 0.120119
O15   O     O_2   0.347360 0.277241 0.347704 -0.554339
C40   C     C_2   0.656138 0.029019 0.655402 0.413979
H12   H     H_    0.676961 0.991367 0.712647 0.075256
O16   O     O_2   0.697800 0.118547 0.640797 -0.509327
C41   C     C_2   0.442546 0.990121 0.305830 0.877530
O17   O     O_2   0.353116 0.995453 0.274405 -0.568212
O18   O     O_R   0.528356 0.940729 0.261417 -0.749436
H13   H     H_    0.506286 0.912346 0.204091 0.383082
C42   C     C_2   0.622234 0.798976 0.654884 0.373466
H14   H     H_    0.601611 0.820803 0.720295 0.094451
O19   O     O_2   0.679005 0.724976 0.640547 -0.525296
C43   C     C_2   0.419216 0.682131 0.938297 0.510760
H15   H     H_    0.485901 0.711573 0.893992 0.126696
O20   O     O_2   0.353492 0.744883 0.964995 -0.488548
C44   C     C_2   0.002583 0.340991 0.345812 0.924989
O21   O     O_2   0.974151 0.246330 0.342565 -0.544135
O22   O     O_R   0.079372 0.387370 0.284135 -0.730053
H16   H     H_    0.105311 0.334446 0.240095 0.381536
C45   C     C_2   0.005949 0.657964 0.658235 0.916320
O23   O     O_2   0.056761 0.742648 0.674390 -0.586981
O24   O     O_R   0.911693 0.621732 0.709428 -0.757963
H17   H     H_    0.891862 0.674285 0.755616 0.374452
C46   C     C_2   0.765730 0.349772 0.368419 0.997362
O25   O     O_2   0.752135 0.382224 0.297757 -0.542349
O26   O     O_R   0.724625 0.247393 0.391879 -0.742467
H18   H     H_    0.680796 0.209454 0.346250 0.346398
C47   C     C_2   0.685976 0.635613 0.896399 1.025015
O27   O     O_2   0.658107 0.665854 0.828594 -0.652892
O28   O     O_R   0.786444 0.679204 0.926897 -0.715616
H19   H     H_    0.823758 0.738739 0.890345 0.356644
C48   C     C_2   0.604777 0.683382 0.075184 1.008020
O29   O     O_2   0.603225 0.705584 0.150931 -0.563390
O30   O     O_R   0.606691 0.765941 0.017455 -0.790584
H20   H     H_    0.603439 0.837692 0.046053 0.382248
C49   C     C_2   0.721184 0.537973 0.082979 0.945460
O31   O     O_2   0.731245 0.540504 0.159563 -0.518321
O32   O     O_R   0.812210 0.511434 0.029402 -0.755737
H21   H     H_    0.878624 0.494948 0.061580 0.394220
C50   C     C_2   0.365173 0.329647 0.920836 0.935330
O33   O     O_2   0.285910 0.311543 0.972462 -0.571864
O34   O     O_R   0.348932 0.309403 0.834962 -0.748893
H22   H     H_    0.269834 0.280304 0.824800 0.372827
C51   C     C_2   0.560123 0.303958 0.896442 0.895781
O35   O     O_2   0.551072 0.209122 0.911371 -0.561571
O36   O     O_R   0.640359 0.342893 0.833903 -0.785472
H23   H     H_    0.684328 0.285490 0.806342 0.381294
C52   C     C_2   0.417484 0.294551 0.094903 1.032532
O37   O     O_2   0.417528 0.200328 0.077130 -0.528857
O38   O     O_R   0.339306 0.326765 0.157349 -0.786810
H24   H     H_    0.287237 0.265696 0.180923 0.377234

loop_
_geom_bond_atom_site_label_1
_geom_bond_atom_site_label_2
_geom_bond_distance
_ccdc_geom_bond_type
N1    C32   1.354460 A    
C10   C35   1.534689 S    
O10   H7    1.013920 S    
O30   H20   1.013996 S    
C47   O27   1.220832 D    
C5    C36   1.546145 S    
C41   O17   1.223042 D    
C34   C45   1.482925 S    
C51   O35   1.225017 D    
C5    C43   1.524235 S    
C45   O23   1.223310 D    
O28   H19   1.013441 S    
C51   O36   1.399913 S    
C35   O9    1.224378 D    
Zn1   O7    1.979407 S    
C17   C24   1.398820 A    
C15   C16   1.185826 T    
O26   H18   1.013853 S    
C3    C17   1.431959 S    
O22   H16   1.013589 S    
O4    C2    1.289430 A    
Zn2   O6    1.947046 S    
O7    C4    1.288449 A    
C36   O12   1.399989 S    
C52   O37   1.225330 D    
N1    C33   1.358642 A    
C22   C23   1.421102 A    
C27   C31   1.410148 A    
C37   O13   1.223468 D    
O5    C3    1.285978 A    
C20   C42   1.486937 S    
Zn1   N1    2.022355 S    
C33   H5    1.082927 S    
C44   O21   1.222826 D    
C6    C7    1.585725 S    
C52   O38   1.399339 S    
C11   C14   1.451941 S    
C50   O33   1.222087 D    
C40   H12   1.083220 S    
C2    C16   1.396132 S    
C6    C9    1.603453 S    
C29   H6    1.076285 S    
C42   O19   1.218801 D    
O12   H8    1.013951 S    
O1    Zn1   1.947046 S    
C10   C11   1.591021 S    
N2    C28   1.374488 A    
C13   C51   1.548365 S    
O3    Zn1   1.978090 S    
C32   H4    1.079901 S    
C35   O10   1.395581 S    
C5    C9    1.613359 S    
C39   H11   1.085010 S    
C9    C13   1.624891 S    
Zn2   N2    2.022234 S    
O3    C2    1.289087 A    
C46   O25   1.221909 D    
C42   H14   1.084651 S    
C28   C46   1.474533 S    
O1    C1    1.293678 A    
C23   C24   1.401424 A    
C38   O14   1.219994 D    
C1    C18   1.430290 S    
O18   H13   1.013734 S    
C25   C26   1.402704 A    
C46   O26   1.397255 S    
C48   O29   1.225216 D    
C30   C34   1.421270 A    
Zn2   O8    1.978092 S    
C21   C22   1.387142 A    
C49   O32   1.401230 S    
C13   C50   1.553567 S    
C21   H3    1.083768 S    
C7    C48   1.546022 S    
C43   O20   1.222132 D    
C33   C34   1.408531 A    
C48   O30   1.397532 S    
C10   H2    1.102791 S    
O8    C4    1.289511 A    
C45   O24   1.397602 S    
N2    C29   1.362332 A    
C19   C23   1.421176 A    
C27   C28   1.414403 A    
C41   O18   1.398477 S    
C29   C30   1.420317 A    
O36   H23   1.013859 S    
C12   C37   1.540553 S    
Zn1   O5    1.990333 S    
C31   C32   1.415206 A    
C6    C47   1.535497 S    
C18   C21   1.381977 A    
C44   O22   1.398243 S    
C22   C26   1.413440 A    
C4    C8    1.395153 S    
C19   C20   1.403634 A    
O2    Zn2   1.990333 S    
C27   C44   1.488058 S    
C43   H15   1.075169 S    
O6    C3    1.291530 A    
O4    Zn2   1.979407 S    
C47   O28   1.399198 S    
O32   H21   1.013963 S    
C7    C11   1.613938 S    
C38   H10   1.084448 S    
C19   C40   1.494694 S    
O2    C1    1.285564 A    
C7    C49   1.553872 S    
C24   C38   1.500453 S    
O38   H24   1.013579 S    
C18   C20   1.410072 A    
C36   O11   1.224547 D    
C50   O34   1.401066 S    
C9    C15   1.451865 S    
C25   C39   1.489079 S    
C37   H9    1.082801 S    
C8    C14   1.184426 T    
C12   C13   1.635798 S    
C12   C52   1.546014 S    
C30   C31   1.417371 A    
C5    C10   1.580890 S    
C6    H1    1.101344 S    
C17   C25   1.411972 A    
C49   O31   1.224095 D    
C11   C12   1.619471 S    
C40   O16   1.221575 D    
C39   O15   1.219854 D    
O24   H17   1.012642 S    
O34   H22   1.013891 S    
C26   C41   1.489966 S    
