data_mof_unit_36655.cif
_audit_creation_date              2012-12-10T18:48:23-0500
_audit_creation_method            fapswitch 2.2
_symmetry_space_group_name_H-M    P1
_symmetry_Int_Tables_number       1
_space_group_crystal_system       triclinic
_cell_length_a                    10.631932
_cell_length_b                    9.907151
_cell_length_c                    11.53709
_cell_angle_alpha                 89.508719
_cell_angle_beta                  89.368884
_cell_angle_gamma                 90.640285
_cell_volume                      1215.03099421

loop_
_atom_site_label
_atom_site_type_symbol
_atom_type_description
_atom_site_fract_x
_atom_site_fract_y
_atom_site_fract_z
_atom_type_partial_charge
C1    C     C_R   0.260476 0.499128 0.499665 1.036463
C2    C     C_R   0.935272 0.576355 0.584040 0.359565
C3    C     C_R   0.934948 0.431809 0.411892 0.362230
C4    C     C_R   0.065055 0.568160 0.588099 0.362422
C5    C     C_R   0.872018 0.503168 0.498814 -0.410978
C6    C     C_R   0.127988 0.496808 0.501175 -0.412815
C7    C     C_R   0.425202 0.068318 0.576310 0.055961
C8    C     C_R   0.576139 0.929222 0.424999 0.081188
C9    C     C_R   0.575786 0.074147 0.424660 0.095090
C10   C     C_R   0.424435 0.924926 0.574809 0.140339
C11   C     C_3   0.123094 0.216419 0.352164 -0.209782
C12   C     C_R   0.739527 0.500871 0.500316 1.041418
C13   C     C_3   0.876346 0.783499 0.647285 -0.209732
C14   C     C_3   0.855467 0.458992 0.231702 -0.265657
C15   C     C_3   0.144878 0.541027 0.768159 -0.263558
C16   C     C_R   0.500218 0.500460 0.282014 0.914410
C17   C     C_R   0.499777 0.499538 0.717984 0.909550
C18   C     C_1   0.500220 0.501162 0.161534 -0.181090
C19   C     C_1   0.499747 0.498816 0.838460 -0.186214
C20   C     C_1   0.500096 0.500583 0.059333 -0.011170
C21   C     C_1   0.499854 0.499374 0.940659 -0.011877
C22   C     C_R   0.064745 0.423596 0.415957 0.360476
H1    H     H_    0.149702 0.190176 0.442625 0.136455
H2    H     H_    0.198703 0.592106 0.837312 0.184653
H3    H     H_    0.199086 0.450716 0.741512 0.126755
H4    H     H_    0.052036 0.509815 0.805690 0.183668
H5    H     H_    0.287252 0.199225 0.622751 0.214762
H6    H     H_    0.405412 0.179852 0.721966 0.220779
H7    H     H_    0.633420 0.883859 0.262220 0.166375
H8    H     H_    0.749274 0.884890 0.362321 0.143686
H9    H     H_    0.632505 0.123662 0.261675 0.164825
H10   H     H_    0.748616 0.123076 0.361493 0.188547
H11   H     H_    0.368659 0.874593 0.737662 0.182074
H12   H     H_    0.027462 0.176321 0.333714 0.179051
H13   H     H_    0.251851 0.878368 0.639019 0.202510
H14   H     H_    0.190083 0.165006 0.293356 0.173163
H15   H     H_    0.810062 0.835009 0.706707 0.172137
H16   H     H_    0.848359 0.809147 0.557075 0.142247
H17   H     H_    0.972161 0.823984 0.664405 0.180380
H18   H     H_    0.801553 0.549551 0.258236 0.137712
H19   H     H_    0.801516 0.408036 0.162567 0.183821
H20   H     H_    0.948432 0.489795 0.194196 0.183395
N1    N     N_R   0.500000 0.857200 0.500000 -0.093924
N2    N     N_R   0.500000 0.142800 0.500000 -0.097147
N3    N     N_3   0.348267 0.131940 0.661833 -0.496592
N4    N     N_3   0.655910 0.856830 0.347182 -0.403145
N5    N     N_3   0.655332 0.149678 0.346524 -0.353368
N6    N     N_3   0.344771 0.849348 0.652843 -0.349421
O1    O     O_R   0.316770 0.614620 0.499990 -0.582736
O2    O     O_3   0.868957 0.643316 0.669688 -0.587310
O3    O     O_3   0.869359 0.367575 0.324893 -0.592887
O4    O     O_3   0.130614 0.632500 0.675062 -0.592113
O5    O     O_R   0.683230 0.385380 0.500010 -0.582059
O6    O     O_R   0.683230 0.614620 0.500010 -0.603063
O7    O     O_R   0.316770 0.385380 0.499990 -0.635969
O8    O     O_R   0.500020 0.614670 0.334450 -0.612227
O9    O     O_R   0.499980 0.385330 0.665550 -0.649077
O10   O     O_R   0.499980 0.614670 0.665550 -0.582214
O11   O     O_R   0.500020 0.385330 0.334450 -0.581090
O12   O     O_3   0.131122 0.356687 0.330309 -0.586040
Zn1   Zn    Zn3+2 0.500000 0.653120 0.500000 0.991180
Zn2   Zn    Zn3+2 0.500000 0.346880 0.500000 0.965971

loop_
_geom_bond_atom_site_label_1
_geom_bond_atom_site_label_2
_ccdc_geom_bond_type
C7    C10   A    
C2    C4    A    
C16   O8    A    
C19   C21   T    
O6    Zn1   S    
O5    Zn2   S    
H7    N4    S    
C13   H15   S    
C14   O3    S    
C8    N1    A    
C17   O10   A    
C14   H20   S    
H5    N3    S    
O10   Zn1   S    
C1    O7    A    
O9    Zn2   S    
C16   C18   S    
H9    N5    S    
C15   O4    S    
C22   O12   S    
C15   H3    S    
C13   H16   S    
C4    O4    S    
C14   H19   S    
H13   N6    S    
C7    N3    S    
C11   H1    S    
C11   H14   S    
C17   C19   S    
C9    N5    S    
C18   C20   T    
C11   O12   S    
C15   H4    S    
C10   N6    S    
H10   N5    S    
C8    N4    S    
H6    N3    S    
C13   H17   S    
C2    C5    A    
O1    Zn1   S    
C14   H18   S    
C1    C6    S    
C6    C22   A    
O7    Zn2   S    
C3    C5    A    
C13   O2    S    
C20   C21   S    
N1    Zn1   S    
C5    C12   S    
C4    C6    A    
H11   N6    S    
C3    O3    S    
O8    Zn1   S    
C15   H2    S    
C9    N2    A    
C2    O2    S    
N2    Zn2   S    
C10   N1    A    
C7    N2    A    
C1    O1    A    
H8    N4    S    
C11   H12   S    
C12   O6    A    
C12   O5    A    
O11   Zn2   S    
C17   O9    A    
C8    C9    A    
C3    C22   A    
C16   O11   A    
