data_mof_unit_33541.cif
_audit_creation_date              2012-12-10T16:37:40-0500
_audit_creation_method            fapswitch 2.2
_symmetry_space_group_name_H-M    P1
_symmetry_Int_Tables_number       1
_space_group_crystal_system       triclinic
_cell_length_a                    10.884243
_cell_length_b                    10.899494
_cell_length_c                    15.413353
_cell_angle_alpha                 95.789958
_cell_angle_beta                  75.450607
_cell_angle_gamma                 98.837164
_cell_volume                      1745.16685022

loop_
_atom_site_label
_atom_site_type_symbol
_atom_type_description
_atom_site_fract_x
_atom_site_fract_y
_atom_site_fract_z
_atom_type_partial_charge
C1    C     C_R   0.158678 0.475707 0.519523 0.581972
C2    C     C_R   0.510940 0.464897 0.114980 -0.073160
C3    C     C_R   0.715371 0.402679 0.117154 -0.021319
C4    C     C_R   0.841805 0.523991 0.482161 0.537353
C5    C     C_R   0.434439 0.585409 0.839584 0.020409
C6    C     C_2   0.975652 0.546230 0.486362 0.180492
C7    C     C_2   0.025400 0.457205 0.517117 0.189476
C8    C     C_2   0.531494 0.965503 0.468376 -0.036231
C9    C     C_2   0.459776 0.038325 0.532484 0.265309
C10   C     C_R   0.470209 0.168242 0.520246 0.541920
C11   C     C_R   0.529072 0.833470 0.479980 0.572085
C12   C     C_R   0.298432 0.655291 0.979985 -0.058906
C13   C     C_R   0.556286 0.445022 0.258656 0.530383
C14   C     C_R   0.449491 0.556091 0.741673 0.515613
C15   C     C_R   0.763003 0.428475 0.025841 0.256755
C16   C     C_R   0.589489 0.423846 0.161237 0.014361
C17   C     C_R   0.321448 0.630618 0.887838 -0.095545
C18   C     C_3   0.797294 0.355950 0.169730 -0.314595
C19   C     C_3   0.613031 0.018520 0.381663 -0.390304
C20   C     C_3   0.729362 0.597103 0.761482 -0.298880
C21   C     C_R   0.381692 0.626020 0.028179 0.209409
C22   C     C_R   0.486274 0.560207 0.982429 0.008988
C23   C     C_R   0.523853 0.560561 0.886975 -0.018228
C24   C     C_R   0.558439 0.499150 0.026501 -0.027162
C25   C     C_R   0.677780 0.462093 0.978556 0.010605
C26   C     C_R   0.709387 0.461382 0.884684 0.273048
C27   C     C_R   0.647821 0.532080 0.842762 0.022302
H1    H     H_    0.413747 0.473936 0.150394 0.198386
H2    H     H_    0.685788 0.095349 0.396877 0.163837
H3    H     H_    0.298538 0.098585 0.768881 0.382167
H4    H     H_    0.672086 0.184417 0.746110 0.398535
H5    H     H_    0.955301 0.261336 0.977216 0.344095
H6    H     H_    0.174523 0.611890 0.192332 0.367746
H7    H     H_    0.819215 0.645899 0.777424 0.170284
H8    H     H_    0.756081 0.528832 0.704087 0.210826
H9    H     H_    0.681680 0.669223 0.741917 0.121389
H10   H     H_    0.040527 0.856131 0.396898 0.381897
H11   H     H_    0.251628 0.650665 0.853852 0.200259
H12   H     H_    0.215982 0.700820 0.013840 0.195018
H13   H     H_    0.737699 0.290037 0.219072 0.110566
H14   H     H_    0.871524 0.303668 0.125915 0.160350
H15   H     H_    0.843628 0.435269 0.206425 0.192725
H16   H     H_    0.088623 0.163432 0.459159 0.367994
H17   H     H_    0.664492 0.947943 0.335686 0.196402
H18   H     H_    0.551557 0.054619 0.345192 0.154716
O1    O     O_3   0.500000 0.500000 0.500000 -0.501416
O2    O     O_R   0.463530 0.379110 0.309170 -0.534532
O3    O     O_R   0.388210 0.611730 0.699360 -0.518188
O4    O     O_R   0.624720 0.532760 0.292120 -0.516895
O5    O     O_R   0.523540 0.476390 0.699360 -0.511430
O6    O     O_2   0.843708 0.274242 0.595243 -0.163125
O7    O     O_2   0.908431 0.261909 0.431678 -0.342878
O8    O     O_3   0.060504 0.200355 0.521128 -0.444862
O9    O     O_2   0.258809 0.910411 0.642621 -0.190338
O10   O     O_2   0.465171 0.938890 0.684891 -0.285700
O11   O     O_3   0.338549 0.127487 0.708021 -0.483557
O12   O     O_R   0.537910 0.240570 0.564270 -0.468056
O13   O     O_2   0.902869 0.368792 0.763681 -0.169942
O14   O     O_2   0.773058 0.230114 0.878809 -0.267242
O15   O     O_3   0.671443 0.275680 0.752595 -0.462183
O16   O     O_2   0.963066 0.549240 0.909333 -0.238999
O17   O     O_2   0.000210 0.508970 0.052201 -0.318333
O18   O     O_3   0.992137 0.324849 0.932937 -0.408820
O19   O     O_2   0.491309 0.721603 0.164645 -0.239391
O20   O     O_2   0.323102 0.826886 0.138557 -0.243662
O21   O     O_3   0.254865 0.616545 0.212351 -0.479288
O22   O     O_2   0.069777 0.769541 0.548183 -0.230481
O23   O     O_R   0.438950 0.782540 0.540270 -0.452472
O24   O     O_2   0.195636 0.684290 0.406262 -0.243162
O25   O     O_3   0.988646 0.773146 0.404223 -0.476125
O26   O     O_R   0.222350 0.398740 0.468260 -0.510556
O27   O     O_R   0.800790 0.578160 0.427210 -0.491807
O28   O     O_R   0.212140 0.566330 0.564260 -0.478908
O29   O     O_R   0.764730 0.456770 0.540270 -0.523592
O30   O     O_R   0.412790 0.208310 0.468260 -0.550412
O31   O     O_R   0.610350 0.768590 0.427210 -0.526544
S1    S     S_3+6 0.955041 0.296051 0.516069 0.066661
S2    S     S_3+6 0.379012 0.998505 0.644121 0.085671
S3    S     S_3+6 0.770475 0.330971 0.819793 0.095777
S4    S     S_3+6 0.932929 0.456267 0.979922 0.050207
S5    S     S_3+6 0.365995 0.701905 0.137531 0.029464
S6    S     S_3+6 0.062311 0.696224 0.461302 0.050449
Zn1   Zn    Zn3+2 0.580150 0.419820 0.574680 1.043802
Zn2   Zn    Zn3+2 0.401380 0.373730 0.437510 1.016616
Zn3   Zn    Zn3+2 0.631680 0.593260 0.413140 1.022117
Zn4   Zn    Zn3+2 0.386790 0.613180 0.574670 1.098789

loop_
_geom_bond_atom_site_label_1
_geom_bond_atom_site_label_2
_ccdc_geom_bond_type
O15   S3    S    
C6    S6    S    
O23   Zn4   S    
O29   Zn1   S    
O27   Zn3   S    
C11   O23   A    
C26   C27   A    
C1    O26   A    
O17   S4    D    
C11   O31   A    
C18   H15   S    
O30   Zn2   S    
C15   C25   A    
C5    C17   A    
O16   S4    D    
O11   S2    S    
C3    C18   S    
C18   H13   S    
O24   S6    D    
C20   H8    S    
H16   O8    S    
C8    C9    D    
C12   C17   A    
O5    Zn1   S    
O12   Zn1   S    
C23   C27   A    
C2    C16   A    
C9    C10   S    
C4    O29   A    
C7    S1    S    
O1    Zn3   S    
C20   H7    S    
C21   C22   A    
H6    O21   S    
O18   S4    S    
O19   S5    D    
C8    C19   S    
O4    Zn3   S    
C10   O12   A    
C24   C25   A    
C4    C6    S    
C18   H14   S    
O14   S3    D    
C13   O2    A    
O10   S2    D    
O3    Zn4   S    
C14   O3    A    
C25   C26   A    
H3    O11   S    
C12   C21   A    
H4    O15   S    
O8    S1    S    
O6    S1    D    
C10   O30   A    
O20   S5    D    
C15   S4    S    
C5    C23   A    
O2    Zn2   S    
C5    C14   S    
O13   S3    D    
C13   O4    A    
C21   S5    S    
C2    C24   A    
O1    Zn2   S    
O7    S1    D    
C19   H2    S    
C4    O27   A    
C3    C15   A    
C19   H17   S    
O26   Zn2   S    
C1    C7    S    
H5    O18   S    
C19   H18   S    
C6    C7    D    
C20   C27   S    
C26   S3    S    
C1    O28   A    
C12   H12   S    
O21   S5    S    
C14   O5    A    
C8    C11   S    
C22   C24   A    
C9    S2    S    
O25   S6    S    
O28   Zn4   S    
O1    Zn1   S    
C20   H9    S    
C17   H11   S    
O22   S6    D    
C13   C16   S    
C22   C23   A    
C2    H1    S    
O1    Zn4   S    
H10   O25   S    
O31   Zn3   S    
C3    C16   A    
O9    S2    D    
