data_mof_unit_28899.cif
_audit_creation_date              2012-12-10T20:28:45-0500
_audit_creation_method            fapswitch 2.2
_symmetry_space_group_name_H-M    P1
_symmetry_Int_Tables_number       1
_space_group_crystal_system       triclinic
_cell_length_a                    10.627838
_cell_length_b                    10.658938
_cell_length_c                    9.877424
_cell_angle_alpha                 92.035226
_cell_angle_beta                  89.972198
_cell_angle_gamma                 91.265581
_cell_volume                      1117.95040112

loop_
_atom_site_label
_atom_site_type_symbol
_atom_type_description
_atom_site_fract_x
_atom_site_fract_y
_atom_site_fract_z
_atom_type_partial_charge
C1    C     C_R   0.498870 0.260544 0.498322 0.893737
C2    C     C_R   0.396762 0.930211 0.446085 -0.207205
C3    C     C_R   0.499491 0.871892 0.503868 -0.035547
C4    C     C_R   0.260938 0.516045 0.501192 0.866982
C5    C     C_R   0.597281 0.942248 0.564443 0.077056
C6    C     C_3   0.737062 0.943829 0.537054 -0.063425
C7    C     C_3   0.733378 0.086248 0.555197 -0.296348
C8    C     C_R   0.514718 0.391375 0.065217 0.141935
C9    C     C_R   0.464493 0.603415 0.076198 -0.080176
C10   C     C_R   0.463121 0.602947 0.932290 -0.093717
C11   C     C_R   0.506800 0.390084 0.923608 0.189194
C12   C     C_R   0.072164 0.593379 0.628641 0.088110
C13   C     C_3   0.603751 0.293830 0.903444 -0.504035
C14   C     C_3   0.624494 0.304329 0.055858 -0.014617
C15   C     C_R   0.502263 0.739836 0.501543 0.873225
C16   C     C_R   0.738580 0.523067 0.502929 0.914396
C17   C     C_R   0.143534 0.634544 0.743812 -0.154572
C18   C     C_R   0.088603 0.648484 0.869842 -0.193418
C19   C     C_R   0.959605 0.641474 0.880709 -0.108380
C20   C     C_R   0.884772 0.627862 0.764438 0.174293
C21   C     C_R   0.938791 0.593963 0.635206 0.041893
C22   C     C_1   0.777417 0.157421 0.439160 0.286982
C23   C     C_R   0.130924 0.555275 0.505518 -0.127889
C24   C     C_R   0.063804 0.554250 0.384780 -0.200416
C25   C     C_R   0.935576 0.564348 0.388106 -0.136674
C26   C     C_R   0.871124 0.564078 0.511161 -0.126236
C27   C     C_R   0.593617 0.070766 0.567009 0.022444
C28   C     C_R   0.498623 0.128971 0.497346 -0.064020
C29   C     C_R   0.396822 0.060018 0.441706 -0.201329
H1    H     H_    0.109196 0.538978 0.287506 0.179578
H2    H     H_    0.918415 0.664182 0.978708 0.188139
H3    H     H_    0.886123 0.562680 0.293196 0.211039
H4    H     H_    0.319271 0.106219 0.394434 0.154769
H5    H     H_    0.319153 0.875373 0.401685 0.148355
H6    H     H_    0.794210 0.904042 0.617625 0.171650
H7    H     H_    0.776032 0.122379 0.652134 0.153790
H8    H     H_    0.440263 0.687937 0.133095 0.156922
H9    H     H_    0.438238 0.687322 0.881908 0.151669
H10   H     H_    0.561491 0.201836 0.868959 0.188137
H11   H     H_    0.683258 0.326629 0.839568 0.243410
H12   H     H_    0.606772 0.214399 0.106967 0.164814
H13   H     H_    0.241876 0.660917 0.738310 0.166382
H14   H     H_    0.145644 0.673737 0.957902 0.148388
I1    I     I_    0.783989 0.867522 0.337600 -0.362032
I2    I     I_    0.804911 0.392120 0.088839 -0.365398
I3    I     I_    0.719239 0.725642 0.802946 -0.387933
N1    N     N_R   0.499160 0.499140 0.142800 -0.095452
N2    N     N_R   0.499160 0.499180 0.857150 -0.083478
N3    N     N_1   0.813470 0.213461 0.348474 -0.146744
O1    O     O_R   0.500020 0.316790 0.614690 -0.615352
O2    O     O_R   0.500000 0.316760 0.385350 -0.611085
O3    O     O_R   0.316770 0.500020 0.614690 -0.624571
O4    O     O_R   0.316760 0.499980 0.385350 -0.625234
O5    O     O_R   0.500000 0.683240 0.614650 -0.623044
O6    O     O_R   0.499980 0.683210 0.385310 -0.616127
O7    O     O_R   0.683240 0.500020 0.614650 -0.604197
O8    O     O_R   0.683230 0.499980 0.385310 -0.578159
Zn1   Zn    Zn3+2 0.500010 0.500020 0.653130 0.965073
Zn2   Zn    Zn3+2 0.499990 0.499980 0.346870 0.984445

loop_
_geom_bond_atom_site_label_1
_geom_bond_atom_site_label_2
_ccdc_geom_bond_type
C12   C17   A    
C1    C28   S    
C21   C26   A    
C16   O7    A    
C24   C25   A    
N2    Zn1   S    
C6    C7    S    
O6    Zn2   S    
C4    O4    A    
C7    C22   S    
C11   C13   S    
C7    H7    S    
C19   C20   A    
C10   H9    S    
C10   N2    A    
C19   H2    S    
C2    H5    S    
C25   H3    S    
C9    H8    S    
C2    C3    A    
O4    Zn2   S    
C8    N1    A    
C7    C27   S    
C6    I1    S    
C13   C14   S    
C6    H6    S    
C16   C26   S    
C1    O2    A    
C12   C23   A    
C11   N2    A    
O3    Zn1   S    
C4    O3    A    
C8    C11   A    
C9    C10   A    
C28   C29   A    
O7    Zn1   S    
C17   C18   A    
C14   I2    S    
C16   O8    A    
C2    C29   A    
O5    Zn1   S    
C5    C6    S    
C14   H12   S    
C24   H1    S    
O8    Zn2   S    
C9    N1    A    
O2    Zn2   S    
C18   H14   S    
C23   C24   A    
N1    Zn2   S    
O1    Zn1   S    
C15   O5    A    
C29   H4    S    
C3    C15   S    
C20   C21   A    
C18   C19   A    
C1    O1    A    
C22   N3    T    
C27   C28   A    
C4    C23   S    
C17   H13   S    
C13   H11   S    
C8    C14   S    
C25   C26   A    
C5    C27   A    
C12   C21   A    
C20   I3    S    
C13   H10   S    
C3    C5    A    
C15   O6    A    
