data_mof_unit_50716.cif
_audit_creation_date              2012-12-10T16:44:40-0500
_audit_creation_method            fapswitch 2.2
_symmetry_space_group_name_H-M    P1
_symmetry_Int_Tables_number       1
_space_group_crystal_system       triclinic
_cell_length_a                    14.999337
_cell_length_b                    8.773669
_cell_length_c                    7.457005
_cell_angle_alpha                 102.990328
_cell_angle_beta                  94.029568
_cell_angle_gamma                 91.793604
_cell_volume                      952.737551604

loop_
_atom_site_label
_atom_site_type_symbol
_atom_type_description
_atom_site_fract_x
_atom_site_fract_y
_atom_site_fract_z
_atom_type_partial_charge
C1    C     C_R   0.497362 0.200331 0.453527 0.848353
C2    C     C_R   0.500842 0.799598 0.546215 0.839551
C3    C     C_R   0.036941 0.209682 0.422784 -0.195176
C4    C     C_R   0.961967 0.780315 0.604374 -0.189272
C5    C     C_2   0.498521 0.033045 0.426131 0.164156
C6    C     C_2   0.492765 0.965684 0.571088 0.199523
C7    C     C_R   0.329006 0.496322 0.501864 0.917353
C8    C     C_R   0.670504 0.497927 0.496842 0.940155
C9    C     C_R   0.816405 0.640187 0.542412 0.345855
C10   C     C_R   0.182089 0.351576 0.454897 0.356004
C11   C     C_R   0.766296 0.497457 0.490236 -0.256462
C12   C     C_R   0.232356 0.494544 0.505555 -0.251651
C13   C     C_R   0.807162 0.354227 0.438611 0.348262
C14   C     C_R   0.190180 0.637260 0.545295 0.356164
C15   C     C_R   0.900864 0.352364 0.452322 0.028610
C16   C     C_R   0.097258 0.637967 0.554416 0.023731
C17   C     C_R   0.952252 0.495535 0.504085 -0.020322
C18   C     C_R   0.046191 0.494728 0.508572 -0.023767
C19   C     C_R   0.909949 0.639630 0.550237 0.027132
C20   C     C_R   0.088680 0.351005 0.462389 0.022074
C21   C     C_R   0.944154 0.210392 0.417148 -0.188122
C22   C     C_R   0.054553 0.779527 0.605842 -0.201220
Cu1   Cu    Cu3+1 0.510010 0.517380 0.684380 0.996286
Cu2   Cu    Cu3+1 0.489990 0.482620 0.315620 0.963746
N1    N     N_2   0.474890 0.456420 0.038520 -0.213841
N2    N     N_2   0.525110 0.543580 0.961480 -0.218053
O1    O     O_R   0.506510 0.286130 0.619770 -0.556023
O2    O     O_R   0.493490 0.713870 0.380230 -0.584030
O3    O     O_R   0.489600 0.256770 0.308360 -0.564608
O4    O     O_R   0.510400 0.743230 0.691640 -0.569595
O5    O     O_R   0.378710 0.514640 0.655720 -0.605403
O6    O     O_R   0.621290 0.485360 0.344280 -0.613333
O7    O     O_R   0.361800 0.485290 0.344300 -0.613171
O8    O     O_R   0.638200 0.514710 0.655700 -0.563772
O9    O     O_3   0.773829 0.778741 0.599348 -0.587159
C23   C     C_3   0.749868 0.838910 0.443389 -0.281463
H1    H     H_    0.702428 0.757513 0.342363 0.162643
H2    H     H_    0.809842 0.866330 0.374641 0.158078
H3    H     H_    0.715382 0.949145 0.489773 0.234937
O10   O     O_3   0.224672 0.212921 0.399400 -0.607991
C24   C     C_3   0.220190 0.173006 0.204287 -0.388233
H4    H     H_    0.242932 0.052574 0.158560 0.166135
H5    H     H_    0.264914 0.252822 0.150853 0.188856
H6    H     H_    0.150881 0.173011 0.140134 0.175907
O11   O     O_3   0.755022 0.215905 0.391200 -0.611164
C25   C     C_3   0.739708 0.172341 0.197139 -0.281898
H7    H     H_    0.695382 0.064508 0.159944 0.222396
H8    H     H_    0.803053 0.145447 0.129998 0.157429
H9    H     H_    0.705362 0.264162 0.141025 0.196668
O12   O     O_3   0.240218 0.776007 0.568361 -0.614276
C26   C     C_3   0.238040 0.818681 0.396561 -0.355227
H10   H     H_    0.170617 0.855418 0.356973 0.186275
H11   H     H_    0.258720 0.722620 0.284681 0.163243
H12   H     H_    0.285733 0.919790 0.408867 0.197499
H13   H     H_    0.906568 0.099067 0.383825 0.170376
H14   H     H_    0.092529 0.890556 0.646652 0.184492
H15   H     H_    0.067863 0.097795 0.393450 0.175784
H16   H     H_    0.931364 0.891914 0.643636 0.185573
O13   O     O_3   0.516142 0.948074 0.252537 -0.585944
C27   C     C_3   0.435001 0.914462 0.140506 -0.223168
H17   H     H_    0.397831 0.020932 0.137261 0.144565
H18   H     H_    0.391226 0.828736 0.185724 0.142968
H19   H     H_    0.450510 0.860167 0.998436 0.234976
O14   O     O_3   0.479965 0.051863 0.747000 -0.561623
C28   C     C_3   0.387155 0.061164 0.764308 -0.319439
H20   H     H_    0.356517 0.944713 0.764187 0.207634
H21   H     H_    0.353133 0.112785 0.656103 0.178812
H22   H     H_    0.376024 0.138926 0.898577 0.162820
H23   H     H_    0.425659 0.389547 0.950347 0.228514
H24   H     H_    0.572752 0.614879 0.050197 0.241875

loop_
_geom_bond_atom_site_label_1
_geom_bond_atom_site_label_2
_ccdc_geom_bond_type
C22   H14   S    
Cu1   Cu2   S    
Cu2   O6    S    
C6    O14   S    
C7    O7    A    
Cu1   O1    S    
C4    C22   A    
Cu1   O4    S    
N1    H23   S    
Cu2   O7    S    
C13   C15   A    
C15   C21   A    
C2    O4    A    
Cu1   O8    S    
O14   C28   S    
C26   H12   S    
C1    O3    A    
C17   C18   A    
C21   H13   S    
O13   C27   S    
C16   C18   A    
C8    O8    A    
O11   C25   S    
C23   H2    S    
C13   O11   S    
C24   H5    S    
C25   H9    S    
C14   O12   S    
C10   C12   A    
C8    C11   S    
C1    C5    S    
C3    H15   S    
C27   H18   S    
O10   C24   S    
C17   C19   A    
C12   C14   A    
O12   C26   S    
C18   C20   A    
C9    C11   A    
C5    C6    D    
N2    H24   S    
C24   H6    S    
C14   C16   A    
C7    C12   S    
C3    C21   A    
C11   C13   A    
C27   H19   S    
C5    O13   S    
C9    O9    S    
C26   H10   S    
C8    O6    A    
C25   H8    S    
Cu2   O2    S    
C3    C20   A    
C28   H22   S    
C7    O5    A    
Cu2   N1    S    
C15   C17   A    
C28   H20   S    
C24   H4    S    
Cu1   N2    S    
C4    H16   S    
C1    O1    A    
C2    O2    A    
Cu2   O3    S    
C23   H1    S    
C10   O10   S    
C16   C22   A    
C26   H11   S    
N1    N2    D    
C25   H7    S    
C4    C19   A    
C9    C19   A    
C23   H3    S    
C2    C6    S    
C10   C20   A    
C27   H17   S    
C28   H21   S    
O9    C23   S    
Cu1   O5    S    
