data_mof_unit_51732.cif
_audit_creation_date              2012-12-10T17:51:32-0500
_audit_creation_method            fapswitch 2.2
_symmetry_space_group_name_H-M    P1
_symmetry_Int_Tables_number       1
_space_group_crystal_system       triclinic
_cell_length_a                    9.878353
_cell_length_b                    10.695738
_cell_length_c                    16.953775
_cell_angle_alpha                 91.800985
_cell_angle_beta                  84.606503
_cell_angle_gamma                 90.994432
_cell_volume                      1782.27450075

loop_
_atom_site_label
_atom_site_type_symbol
_atom_type_description
_atom_site_fract_x
_atom_site_fract_y
_atom_site_fract_z
_atom_type_partial_charge
C1    C     C_R   0.502070 0.738629 0.491061 0.910409
C2    C     C_R   0.532766 0.504476 0.260975 -0.087996
C3    C     C_R   0.273716 0.876147 0.428381 0.563665
C4    C     C_R   0.480337 0.504931 0.652643 0.875143
C5    C     C_R   0.144450 0.928241 0.440353 -0.201922
C6    C     C_R   0.125069 0.039073 0.484584 -0.261715
C7    C     C_R   0.236621 0.103856 0.511079 -0.172557
C8    C     C_R   0.369972 0.056315 0.495278 0.042535
C9    C     C_R   0.383580 0.933118 0.466045 -0.035612
C10   C     C_R   0.504304 0.870845 0.479209 -0.112063
C11   C     C_R   0.620524 0.937387 0.497420 -0.233057
C12   C     C_R   0.345718 0.503271 0.782936 -0.203828
C13   C     C_R   0.615201 0.064366 0.508349 -0.214043
C14   C     C_R   0.491280 0.125139 0.507279 -0.096134
C15   C     C_R   0.847864 0.673953 0.597324 -0.178797
C16   C     C_R   0.497153 0.259623 0.504809 0.874315
C17   C     C_R   0.912565 0.761367 0.643875 -0.233794
C18   C     C_R   0.052108 0.758260 0.646092 -0.185000
C19   C     C_R   0.127812 0.669351 0.600434 -0.144846
C20   C     C_R   0.066319 0.584419 0.548889 0.174289
C21   C     C_R   0.921737 0.585479 0.548127 0.174006
C22   C     C_R   0.934244 0.417764 0.454224 -0.126412
C23   C     C_R   0.419403 0.491316 0.140916 -0.174395
C24   C     C_R   0.077653 0.418337 0.453832 -0.127863
C25   C     C_R   0.519767 0.499483 0.347084 0.892893
C26   C     C_R   0.465720 0.534948 0.736922 -0.086563
C27   C     C_R   0.566186 0.608281 0.769700 -0.331452
C28   C     C_R   0.552393 0.642757 0.850216 0.578513
C29   C     C_R   0.435160 0.602708 0.896872 0.086868
C30   C     C_R   0.330528 0.537218 0.862847 -0.258698
C31   C     C_3   0.366568 0.806053 0.307690 -0.338332
C32   C     C_3   0.871103 0.482424 0.252225 -0.754509
C33   C     C_3   0.781275 0.682915 0.862663 -0.364024
C34   C     C_R   0.417931 0.473263 0.221277 -0.257815
C35   C     C_R   0.653227 0.548212 0.218020 0.196641
C36   C     C_R   0.653342 0.565557 0.136945 -0.233506
C37   C     C_R   0.536063 0.540333 0.099224 0.143489
C38   C     C_2   0.432547 0.605634 0.982783 -0.183006
C39   C     C_2   0.539372 0.560905 0.015133 -0.162936
H1    H     H_    0.653599 0.640521 0.732495 0.156524
H2    H     H_    0.853494 0.830077 0.679825 0.154473
H3    H     H_    0.325502 0.437325 0.252693 0.171476
H4    H     H_    0.101892 0.823972 0.684194 0.153063
H5    H     H_    0.233527 0.669162 0.607937 0.200002
H6    H     H_    0.136572 0.351750 0.416130 0.147490
H7    H     H_    0.631699 0.535305 0.978762 0.163190
H8    H     H_    0.240838 0.506010 0.899112 0.150601
H9    H     H_    0.329592 0.466736 0.111428 0.136882
H10   H     H_    0.265377 0.449983 0.757497 0.162331
H11   H     H_    0.338290 0.627274 0.018560 0.137934
H12   H     H_    0.744232 0.601202 0.103667 0.135770
H13   H     H_    0.475666 0.820079 0.317168 0.157731
H14   H     H_    0.325977 0.891139 0.282382 0.153574
H15   H     H_    0.359690 0.729020 0.262966 0.208036
H16   H     H_    0.815277 0.664874 0.238085 0.216638
H17   H     H_    0.956188 0.511807 0.287349 0.240838
H18   H     H_    0.824353 0.395272 0.277202 0.244311
H19   H     H_    0.912554 0.463470 0.189830 0.217967
H20   H     H_    0.820496 0.725144 0.806047 0.184821
H21   H     H_    0.791759 0.579259 0.858693 0.149767
H22   H     H_    0.846119 0.718532 0.908662 0.196099
H23   H     H_    0.715036 0.891369 0.505234 0.175618
H24   H     H_    0.059012 0.882345 0.415357 0.159184
H25   H     H_    0.023981 0.076936 0.496372 0.160952
H26   H     H_    0.215095 0.187697 0.546802 0.180278
H27   H     H_    0.708295 0.114528 0.519075 0.166757
H28   H     H_    0.884977 0.350448 0.417051 0.143729
H29   H     H_    0.740096 0.677595 0.602414 0.203353
N1    N     N_R   0.857140 0.501200 0.500750 -0.114909
N2    N     N_R   0.142740 0.501280 0.500770 -0.112823
N3    N     N_2   0.771847 0.580786 0.256017 -0.284324
O1    O     O_R   0.385310 0.683220 0.500000 -0.598660
O2    O     O_3   0.646258 0.720639 0.884678 -0.606023
O3    O     O_R   0.614640 0.683250 0.500010 -0.654953
O4    O     O_R   0.371780 0.500010 0.615800 -0.649036
O5    O     O_R   0.601110 0.500030 0.615800 -0.633070
O6    O     O_R   0.385360 0.316750 0.499990 -0.636165
O7    O     O_R   0.614690 0.316780 0.500000 -0.622130
O8    O     O_R   0.398890 0.499970 0.384200 -0.588754
O9    O     O_R   0.628220 0.499990 0.384200 -0.588005
O10   O     O_3   0.290185 0.771619 0.378412 -0.588946
Zn1   Zn    Zn3+2 0.346870 0.499980 0.499990 0.956290
Zn2   Zn    Zn3+2 0.653130 0.500020 0.500010 0.940230

loop_
_geom_bond_atom_site_label_1
_geom_bond_atom_site_label_2
_ccdc_geom_bond_type
C2    C35   A    
C25   O9    A    
C35   C36   A    
C34   H3    S    
C32   H19   S    
C31   H13   S    
C11   H23   S    
C12   H10   S    
C24   N2    A    
C7    C8    A    
C26   C27   A    
C3    C9    A    
C1    O3    A    
C36   C37   A    
C16   O6    A    
C5    C6    A    
C5    H24   S    
C18   C19   A    
C6    H25   S    
C4    O4    A    
O7    Zn2   S    
C19   C20   A    
C8    C9    A    
C29   C38   S    
C3    O10   S    
C14   C16   S    
C9    C10   A    
O3    Zn2   S    
C22   N1    A    
C2    C34   A    
C35   N3    S    
C33   H20   S    
C13   C14   A    
C20   N2    A    
C32   H18   S    
O9    Zn2   S    
C28   O2    S    
O5    Zn2   S    
C32   N3    S    
C13   H27   S    
C1    O1    A    
C30   H8    S    
C23   C37   A    
C21   N1    A    
C29   C30   A    
N1    Zn2   S    
C7    H26   S    
C27   H1    S    
C23   C34   A    
C17   C18   A    
C31   H14   S    
C36   H12   S    
C39   H7    S    
C33   O2    S    
C33   H21   S    
C22   C24   A    
C24   H6    S    
C19   H5    S    
C15   C17   A    
C28   C29   A    
C8    C14   A    
C23   H9    S    
C12   C30   A    
C25   O8    A    
C1    C10   S    
C3    C5    A    
O8    Zn1   S    
C4    C26   S    
O4    Zn1   S    
C6    C7    A    
C38   H11   S    
C31   O10   S    
C37   C39   S    
C18   H4    S    
C11   C13   A    
C38   C39   D    
O6    Zn1   S    
O1    Zn1   S    
C15   H29   S    
C2    C25   S    
C16   O7    A    
C31   H15   S    
N2    Zn1   S    
C17   H2    S    
C22   H28   S    
C4    O5    A    
C10   C11   A    
C15   C21   A    
C20   C21   A    
C33   H22   S    
C12   C26   A    
C27   C28   A    
C32   H17   S    
H16   N3    S    
