data_mof_unit_66281.cif
_audit_creation_date              2012-12-10T17:21:13-0500
_audit_creation_method            fapswitch 2.2
_symmetry_space_group_name_H-M    P1
_symmetry_Int_Tables_number       1
_space_group_crystal_system       triclinic
_cell_length_a                    10.165941
_cell_length_b                    10.747713
_cell_length_c                    10.858317
_cell_angle_alpha                 92.695473
_cell_angle_beta                  95.803552
_cell_angle_gamma                 80.516848
_cell_volume                      1163.61796066

loop_
_atom_site_label
_atom_site_type_symbol
_atom_type_description
_atom_site_fract_x
_atom_site_fract_y
_atom_site_fract_z
_atom_type_partial_charge
C1    C     C_R   0.443692 0.500274 0.267190 0.923586
C2    C     C_2   0.929600 0.505899 0.514154 0.449281
C3    C     C_R   0.500949 0.257553 0.498534 0.950745
C4    C     C_R   0.556502 0.492709 0.732241 0.958752
C5    C     C_R   0.498149 0.741859 0.493829 1.022232
C6    C     C_3   0.630247 0.047549 0.433082 0.397711
C7    C     C_3   0.631366 0.904104 0.439979 -0.021286
C8    C     C_3   0.512456 0.075002 0.631294 -0.149072
C9    C     C_3   0.369210 0.088664 0.424362 0.022104
C10   C     C_3   0.503403 0.120696 0.495525 -0.313399
C11   C     C_3   0.499035 0.877961 0.491325 -0.338256
C12   C     C_3   0.492578 0.934342 0.628474 0.530386
C13   C     C_3   0.375104 0.944033 0.408463 0.158529
C14   C     C_2   0.410461 0.495242 0.134085 -0.074044
C15   C     C_2   0.509201 0.456498 0.060722 0.295808
C16   C     C_2   0.589290 0.461630 0.859585 -0.270291
C17   C     C_2   0.512140 0.518388 0.944603 0.116500
C18   C     C_2   0.075295 0.484790 0.493719 -0.114486
Cl1   Cl    Cl    0.334892 0.918385 0.684536 -0.480754
Cl2   Cl    Cl    0.646323 0.338120 0.108004 -0.400749
Cl3   Cl    Cl    0.873532 0.612557 0.633218 -0.516500
Cl4   Cl    Cl    0.893255 0.341895 0.331068 -0.386742
Cl5   Cl    Cl    0.626643 0.096466 0.276713 -0.352720
Cl6   Cl    Cl    0.621586 0.850718 0.733999 -0.468848
Cl7   Cl    Cl    0.369966 0.885430 0.250627 -0.455273
H1    H     H_    0.281329 0.920995 0.439591 0.183706
H2    H     H_    0.655841 0.372996 0.875466 0.195396
H3    H     H_    0.115543 0.411467 0.429667 0.200389
H4    H     H_    0.121310 0.623674 0.610903 0.249785
H5    H     H_    0.713399 0.866675 0.510221 0.186645
H6    H     H_    0.614832 0.082001 0.674122 0.187294
H7    H     H_    0.288447 0.122259 0.485914 0.166760
I1    I     I_    0.826991 0.079616 0.520427 -0.099575
I2    I     I_    0.397950 0.197155 0.763524 -0.098062
I3    I     I_    0.427257 0.712968 0.928180 0.054519
I4    I     I_    0.205084 0.544661 0.064251 -0.059852
I5    I     I_    0.705934 0.792853 0.278027 0.010158
I6    I     I_    0.288038 0.195156 0.259817 -0.024244
N1    N     N_2   0.157300 0.551950 0.551120 -0.191259
N2    N     N_2   0.842730 0.448000 0.448950 0.027544
O1    O     O_R   0.568940 0.489540 0.307530 -0.547838
O2    O     O_R   0.348880 0.522880 0.340350 -0.606973
O3    O     O_R   0.610030 0.298130 0.483570 -0.570260
O4    O     O_R   0.389960 0.331470 0.516390 -0.623212
O5    O     O_R   0.651120 0.477120 0.659650 -0.570231
O6    O     O_R   0.431060 0.510460 0.692470 -0.592587
O7    O     O_R   0.610040 0.668530 0.483610 -0.584183
O8    O     O_R   0.389970 0.701870 0.516430 -0.586268
Zn1   Zn    Zn3+2 0.646940 0.477740 0.478080 1.155167
Zn2   Zn    Zn3+2 0.353060 0.522260 0.521920 1.053968

loop_
_geom_bond_atom_site_label_1
_geom_bond_atom_site_label_2
_ccdc_geom_bond_type
C6    C10   S    
C11   C12   S    
C4    C16   S    
C6    C7    S    
C8    C12   S    
C2    C18   S    
C5    O7    A    
C9    C10   S    
O6    Zn2   S    
C6    I1    S    
O5    Zn1   S    
C18   N1    D    
Cl4   N2    S    
H4    N1    S    
C2    Cl3   S    
O8    Zn2   S    
C7    I5    S    
O7    Zn1   S    
C7    H5    S    
C8    I2    S    
C7    C11   S    
C11   C13   S    
C3    O3    A    
C4    O6    A    
C16   H2    S    
C6    Cl5   S    
C12   Cl1   S    
O1    Zn1   S    
C9    I6    S    
O2    Zn2   S    
C5    C11   S    
C4    O5    A    
C14   I4    S    
C15   Cl2   S    
C13   H1    S    
C5    O8    A    
C3    O4    A    
N2    Zn1   S    
C2    N2    D    
C1    O2    A    
N1    Zn2   S    
C18   H3    S    
C8    C10   S    
O4    Zn2   S    
C3    C10   S    
C12   Cl6   S    
C14   C15   D    
O3    Zn1   S    
C9    C13   S    
C1    C14   S    
C17   I3    S    
C9    H7    S    
C15   C17   S    
C8    H6    S    
C1    O1    A    
C16   C17   D    
C13   Cl7   S    
