data_mof_unit_5139.cif
_audit_creation_date              2012-12-10T20:25:45-0500
_audit_creation_method            fapswitch 2.2
_symmetry_space_group_name_H-M    P1
_symmetry_Int_Tables_number       1
_space_group_crystal_system       triclinic
_cell_length_a                    8.564894
_cell_length_b                    10.59458
_cell_length_c                    10.006481
_cell_angle_alpha                 90.739552
_cell_angle_beta                  98.682833
_cell_angle_gamma                 91.707996
_cell_volume                      897.058149813

loop_
_atom_site_label
_atom_site_type_symbol
_atom_type_description
_atom_site_fract_x
_atom_site_fract_y
_atom_site_fract_z
_atom_type_partial_charge
C1    C     C_R   0.498517 0.261043 0.498687 0.859297
C2    C     C_R   0.371421 0.459165 0.913464 0.008872
C3    C     C_3   0.257725 0.348428 0.888220 -0.026955
C4    C     C_R   0.201687 0.497989 0.464373 0.947996
C5    C     C_3   0.247809 0.354550 0.042981 0.324273
C6    C     C_R   0.500918 0.739265 0.500545 0.942398
C7    C     C_R   0.798300 0.499676 0.535598 0.984999
C8    C     C_2   0.036042 0.492481 0.445767 -0.367704
C9    C     C_2   0.963954 0.501676 0.554265 -0.373981
C10   C     C_R   0.639584 0.069019 0.511829 0.137178
C11   C     C_R   0.497038 0.129307 0.493181 -0.074030
C12   C     C_R   0.354015 0.930944 0.452810 0.177372
C13   C     C_R   0.354838 0.062159 0.452055 -0.323942
C14   C     C_3   0.234627 0.160078 0.740689 -0.769356
C15   C     C_3   0.962395 0.315940 0.055184 -0.786956
C16   C     C_3   0.258216 0.120043 0.081848 -0.732405
C17   C     C_3   0.183126 0.814224 0.275492 -0.688557
C18   C     C_R   0.496766 0.871606 0.498102 -0.111664
C19   C     C_R   0.639533 0.940156 0.515646 0.092257
C20   C     C_3   0.774038 0.942048 0.629864 -0.453569
C21   C     C_3   0.775738 0.084974 0.623027 -0.537481
C22   C     C_R   0.370022 0.460753 0.051698 0.024430
C23   C     C_R   0.612687 0.567403 0.087951 0.171994
C24   C     C_R   0.615383 0.564590 0.944467 0.171958
H1    H     H_    0.973986 0.480394 0.343105 0.210515
H2    H     H_    0.295387 0.071361 0.724442 0.249719
H3    H     H_    0.214037 0.213129 0.645057 0.238729
H4    H     H_    0.118813 0.134918 0.771840 0.237052
H5    H     H_    0.071546 0.490509 0.035083 0.242139
H6    H     H_    0.856370 0.366723 0.074826 0.248939
H7    H     H_    0.980181 0.238380 0.128814 0.253886
H8    H     H_    0.940044 0.277226 0.950090 0.234481
H9    H     H_    0.281845 0.263011 0.224746 0.260507
H10   H     H_    0.244717 0.060324 0.169655 0.226069
H11   H     H_    0.353208 0.079085 0.032650 0.268609
H12   H     H_    0.146504 0.372829 0.822428 0.144729
H13   H     H_    0.144860 0.115081 0.011850 0.251380
H14   H     H_    0.112162 0.900145 0.443704 0.231509
H15   H     H_    0.092289 0.871096 0.214608 0.237861
H16   H     H_    0.139720 0.714574 0.272426 0.269838
H17   H     H_    0.292474 0.818904 0.227994 0.251195
H18   H     H_    0.026082 0.513539 0.656860 0.186705
H19   H     H_    0.245494 0.111015 0.424485 0.136335
H20   H     H_    0.737715 0.907605 0.725018 0.241743
H21   H     H_    0.881673 0.899789 0.600948 0.214616
H22   H     H_    0.743873 0.131860 0.714866 0.214849
H23   H     H_    0.882253 0.125716 0.586300 0.200908
H24   H     H_    0.450246 0.240284 0.841513 0.262014
I1    I     I_    0.797457 0.672747 0.871110 -0.400143
I2    I     I_    0.766239 0.699409 0.211393 -0.376181
N1    N     N_R   0.498950 0.499140 0.142680 -0.133272
N2    N     N_R   0.498950 0.499180 0.857030 -0.128716
N3    N     N_2   0.330448 0.236106 0.844757 -0.267846
N4    N     N_2   0.098280 0.402327 0.073214 -0.312839
N5    N     N_2   0.303011 0.248490 0.127378 -0.257348
N6    N     N_2   0.210239 0.859940 0.414490 -0.320676
O1    O     O_R   0.500020 0.316790 0.614690 -0.622936
O2    O     O_R   0.500000 0.316760 0.385350 -0.624512
O3    O     O_R   0.271760 0.500010 0.587850 -0.608767
O4    O     O_R   0.271740 0.499970 0.358500 -0.624012
O5    O     O_R   0.500000 0.683240 0.614650 -0.596333
O6    O     O_R   0.499980 0.683210 0.385310 -0.590603
O7    O     O_R   0.728260 0.500030 0.641500 -0.599273
O8    O     O_R   0.728240 0.499990 0.412150 -0.591292
Zn1   Zn    Zn3+2 0.500010 0.500020 0.653130 0.970310
Zn2   Zn    Zn3+2 0.499990 0.499980 0.346870 0.973684

loop_
_geom_bond_atom_site_label_1
_geom_bond_atom_site_label_2
_ccdc_geom_bond_type
C2    C22   A    
C23   C24   A    
O7    Zn1   S    
N1    Zn2   S    
H9    N5    S    
C1    O1    A    
C14   H3    S    
C11   C13   A    
C16   H13   S    
C23   N1    A    
C20   H21   S    
C1    C11   S    
C10   C19   A    
C4    C8    S    
C14   H4    S    
C4    O4    A    
C2    C3    S    
C16   N5    S    
O4    Zn2   S    
C15   H8    S    
C16   H11   S    
C1    O2    A    
O3    Zn1   S    
C15   H7    S    
C8    H1    S    
C3    N3    S    
C17   N6    S    
C7    O7    A    
C9    H18   S    
C12   N6    S    
C6    O6    A    
C2    N2    A    
C3    H12   S    
N2    Zn1   S    
C24   I1    S    
C6    O5    A    
C20   H20   S    
C5    N5    S    
C21   H22   S    
C24   N2    A    
C10   C21   S    
H24   N3    S    
C6    C18   S    
C17   H17   S    
C7    O8    A    
H5    N4    S    
O6    Zn2   S    
C15   N4    S    
O5    Zn1   S    
C5    N4    S    
C13   H19   S    
C14   N3    S    
H14   N6    S    
C12   C13   A    
C4    O3    A    
C15   H6    S    
C18   C19   A    
C17   H15   S    
C12   C18   A    
C10   C11   A    
C7    C9    S    
C8    C9    D    
C23   I2    S    
C3    C5    S    
C16   H10   S    
C20   C21   S    
O2    Zn2   S    
C14   H2    S    
C5    C22   S    
C19   C20   S    
O1    Zn1   S    
C22   N1    A    
C21   H23   S    
C17   H16   S    
O8    Zn2   S    
