data_mof_unit_20917.cif
_audit_creation_date              2012-10-26T17:12:33-0400
_audit_creation_method            fapswitch 2.2
_symmetry_space_group_name_H-M    P1
_symmetry_Int_Tables_number       1
_space_group_crystal_system       triclinic
_cell_length_a                    16.628923
_cell_length_b                    16.770399
_cell_length_c                    16.8317
_cell_angle_alpha                 68.607216
_cell_angle_beta                  68.632372
_cell_angle_gamma                 68.620252
_cell_volume                      3922.16418483

loop_
_atom_site_label
_atom_site_type_symbol
_atom_type_description
_atom_site_fract_x
_atom_site_fract_y
_atom_site_fract_z
_atom_type_partial_charge
C1    C     C_R   0.012292 0.831939 0.569256 0.858099
C2    C     C_R   0.986320 0.168500 0.430899 0.803047
C3    C     C_R   0.829343 0.567161 0.019536 0.779133
C4    C     C_R   0.171979 0.436309 0.970546 0.766573
C5    C     C_R   0.569020 0.016611 0.830416 0.752872
C6    C     C_R   0.434897 0.973581 0.171343 0.738263
C7    C     C_R   0.430869 0.170009 0.982719 0.760690
C8    C     C_R   0.564806 0.828628 0.026852 0.727403
C9    C     C_R   0.983828 0.431535 0.168915 0.778742
C10   C     C_R   0.019017 0.567516 0.829839 0.752362
C11   C     C_R   0.171583 0.972924 0.435130 0.909388
C12   C     C_R   0.827956 0.027919 0.564332 0.777015
C13   C     C_R   0.510429 0.929278 0.741228 -0.079344
C14   C     C_R   0.552853 0.908135 0.298545 -0.024848
C15   C     C_R   0.992636 0.723206 0.472854 -0.073709
C16   C     C_R   0.078337 0.252541 0.493890 -0.069504
C17   C     C_R   0.707270 0.459062 0.040219 -0.087727
C18   C     C_R   0.303107 0.543234 0.939713 -0.011476
C19   C     C_R   0.308310 0.886056 0.547616 -0.081166
C20   C     C_R   0.693834 0.062122 0.459044 -0.039584
C21   C     C_R   0.475867 0.257778 0.082683 -0.078155
C22   C     C_R   0.446762 0.700503 0.097467 -0.030459
C23   C     C_R   0.059324 0.505937 0.252226 -0.068418
C24   C     C_R   0.055454 0.457921 0.705314 -0.120871
C25   C     C_R   0.560351 0.970088 0.557173 -0.102146
C26   C     C_R   0.467821 0.938296 0.465499 -0.091805
C27   C     C_R   0.049402 0.539659 0.530994 -0.086816
C28   C     C_R   0.058024 0.435457 0.427919 -0.092205
C29   C     C_R   0.527491 0.535551 0.062078 -0.104023
C30   C     C_R   0.432172 0.443243 0.035935 -0.091142
C31   C     C_R   0.592721 0.982144 0.464529 0.057884
C32   C     C_R   0.433934 0.924102 0.558254 0.080024
C33   C     C_R   0.075815 0.445897 0.561424 0.094139
C34   C     C_R   0.049817 0.528326 0.389598 0.036677
C35   C     C_R   0.440184 0.578197 0.054320 0.069566
C36   C     C_R   0.509878 0.394035 0.067319 0.043339
C37   C     C_R   0.553431 0.952349 0.422302 0.072808
C38   C     C_R   0.481546 0.939666 0.605311 0.040263
C39   C     C_R   0.399888 0.536630 0.024476 0.064504
C40   C     C_R   0.561883 0.442883 0.072448 0.026314
C41   C     C_R   0.073394 0.392741 0.512989 0.082630
C42   C     C_R   0.044443 0.580698 0.442450 0.028461
C43   C     C_R   0.451304 0.932089 0.697461 0.208369
C44   C     C_R   0.600654 0.924248 0.343762 0.172408
C45   C     C_R   0.033168 0.673190 0.411400 0.215577
C46   C     C_R   0.080521 0.299719 0.546914 0.093498
C47   C     C_R   0.648234 0.405351 0.085475 0.229999
C48   C     C_R   0.340463 0.586967 0.970141 0.194443
C49   C     C_R   0.362317 0.882305 0.598906 0.099004
C50   C     C_R   0.653007 0.035911 0.415149 0.170932
C51   C     C_R   0.533299 0.299571 0.087380 0.162371
C52   C     C_R   0.395782 0.656619 0.083280 0.180743
C53   C     C_R   0.041291 0.564384 0.301519 0.188202
C54   C     C_R   0.100459 0.411164 0.641340 0.105346
C55   C     C_R   0.576113 0.976660 0.694482 -0.063327
C56   C     C_R   0.457579 0.934709 0.325446 -0.024124
C57   C     C_R   0.010985 0.686009 0.556329 -0.075640
C58   C     C_R   0.039249 0.298404 0.422494 0.053227
C59   C     C_R   0.674951 0.548715 0.043893 -0.079977
C60   C     C_R   0.319850 0.449159 0.969988 -0.058630
C61   C     C_R   0.329662 0.927478 0.455061 0.043773
C62   C     C_R   0.677848 0.029975 0.552460 -0.051104
C63   C     C_R   0.417733 0.305881 0.027479 -0.050001
C64   C     C_R   0.542167 0.674024 0.066422 -0.033419
C65   C     C_R   0.032873 0.427170 0.296839 -0.070860
C66   C     C_R   0.037834 0.551969 0.676969 0.059161
C67   C     C_R   0.611423 0.012004 0.736642 -0.157711
C68   C     C_R   0.400374 0.959197 0.269249 -0.154157
C69   C     C_R   0.005214 0.738476 0.609162 -0.122431
C70   C     C_R   0.999270 0.259709 0.387827 -0.123512
C71   C     C_R   0.731548 0.603523 0.025841 -0.180083
C72   C     C_R   0.270901 0.402050 0.957994 -0.221481
C73   C     C_R   0.270699 0.957451 0.399575 -0.067612
C74   C     C_R   0.728822 0.039015 0.599611 -0.208807
C75   C     C_R   0.387095 0.264250 0.987317 -0.153507
C76   C     C_R   0.599749 0.730891 0.039619 -0.161152
C77   C     C_R   0.996256 0.389045 0.259465 -0.150763
C78   C     C_R   0.018468 0.606333 0.734653 -0.149513
C79   C     C_R   0.687655 0.044555 0.687144 -0.042279
C80   C     C_R   0.306704 0.982215 0.306563 -0.093443
C81   C     C_R   0.997458 0.700089 0.700125 -0.095208
C82   C     C_R   0.970826 0.310048 0.310207 -0.088831
C83   C     C_R   0.693691 0.695584 0.013078 -0.077002
C84   C     C_R   0.312922 0.314501 0.951691 -0.036650
C85   C     C_R   0.604415 0.992838 0.601249 0.066968
C86   C     C_R   0.417838 0.934963 0.415034 0.046720
C87   C     C_R   0.035295 0.592717 0.587523 0.064518
C88   C     C_R   0.041428 0.387406 0.383457 0.041356
C89   C     C_R   0.581349 0.586059 0.059368 0.061115
C90   C     C_R   0.390129 0.399575 0.010818 0.063254
Cu1   Cu    Cu3+1 0.995180 0.995180 0.424630 1.074958
Cu2   Cu    Cu3+1 0.004820 0.004820 0.575370 1.003611
Cu3   Cu    Cu3+1 0.995180 0.424630 0.995180 1.058274
Cu4   Cu    Cu3+1 0.004820 0.575370 0.004820 1.057099
Cu5   Cu    Cu3+1 0.424630 0.995180 0.995180 1.049208
Cu6   Cu    Cu3+1 0.575370 0.004820 0.004820 1.098676
O1    O     O_R   0.124540 0.978640 0.385460 -0.595383
O2    O     O_R   0.875460 0.021360 0.614540 -0.527680
O3    O     O_R   0.978640 0.385460 0.124540 -0.524505
O4    O     O_R   0.021360 0.614540 0.875460 -0.594738
O5    O     O_R   0.385460 0.124540 0.978640 -0.530560
O6    O     O_R   0.614540 0.875460 0.021360 -0.525915
O7    O     O_R   0.614540 0.021360 0.875460 -0.529108
O8    O     O_R   0.385460 0.978640 0.124540 -0.584089
O9    O     O_R   0.875460 0.614540 0.021360 -0.528477
O10   O     O_R   0.124540 0.385460 0.978640 -0.537784
O11   O     O_R   0.021360 0.875460 0.614540 -0.567684
O12   O     O_R   0.978640 0.124540 0.385460 -0.520607
O13   O     O_R   0.013780 0.867370 0.487190 -0.605975
O14   O     O_R   0.986220 0.132630 0.512810 -0.623584
O15   O     O_R   0.867370 0.487190 0.013780 -0.598900
O16   O     O_R   0.132630 0.512810 0.986220 -0.569768
O17   O     O_R   0.487190 0.013780 0.867370 -0.595483
O18   O     O_R   0.512810 0.986220 0.132630 -0.555200
O19   O     O_R   0.512810 0.132630 0.986220 -0.589184
O20   O     O_R   0.487190 0.867370 0.013780 -0.570670
O21   O     O_R   0.986220 0.512810 0.132630 -0.596961
O22   O     O_R   0.013780 0.487190 0.867370 -0.601152
O23   O     O_R   0.132630 0.986220 0.512810 -0.605014
O24   O     O_R   0.867370 0.013780 0.487190 -0.578716
C91   C     C_2   0.519277 0.859342 0.825215 0.457678
H1    H     H_    0.576185 0.845331 0.849854 0.029048
O25   O     O_2   0.466589 0.813725 0.865436 -0.554013
C92   C     C_2   0.598943 0.848429 0.238475 0.416944
H2    H     H_    0.561026 0.813192 0.229358 0.024598
O26   O     O_2   0.677696 0.839176 0.197246 -0.522129
C93   C     C_2   0.910712 0.797184 0.460888 0.443054
H3    H     H_    0.867172 0.825841 0.515348 0.070132
O27   O     O_2   0.889908 0.825635 0.391159 -0.540709
C94   C     C_2   0.141733 0.163583 0.496602 0.430860
H4    H     H_    0.149789 0.115708 0.559044 0.057395
O28   O     O_2   0.189479 0.144986 0.427583 -0.535466
C95   C     C_2   0.768736 0.440234 0.956247 0.469198
H5    H     H_    0.788134 0.494636 0.901365 0.111404
O29   O     O_2   0.797460 0.364765 0.947682 -0.516528
C96   C     C_2   0.259686 0.592307 0.865406 0.385422
H6    H     H_    0.261663 0.556819 0.821871 0.044082
O30   O     O_2   0.219110 0.670875 0.853408 -0.575969
C97   C     C_2   0.243485 0.830842 0.588009 0.368774
H7    H     H_    0.206375 0.821789 0.657175 0.093741
O31   O     O_2   0.233120 0.792345 0.544763 -0.569620
C98   C     C_2   0.738931 0.135459 0.411045 0.402627
H8    H     H_    0.738102 0.178143 0.446896 0.018761
O32   O     O_2   0.779722 0.147391 0.332854 -0.529790
C99   C     C_2   0.462493 0.172178 0.147699 0.446667
H9    H     H_    0.403859 0.152287 0.156897 0.079670
O33   O     O_2   0.513458 0.124642 0.193661 -0.554204
C100  C     C_2   0.404123 0.760905 0.156856 0.409642
H10   H     H_    0.444849 0.770617 0.188604 0.029014
O34   O     O_2   0.324966 0.801434 0.170029 -0.567422
C101  C     C_2   0.132391 0.510077 0.168818 0.458709
H11   H     H_    0.162703 0.452967 0.141821 0.066472
O35   O     O_2   0.161015 0.575610 0.130908 -0.549459
C102  C     C_2   0.982892 0.418399 0.769772 0.489818
H12   H     H_    0.998640 0.350651 0.810800 0.084320
O36   O     O_2   0.904830 0.459629 0.773229 -0.559244
N1    N     N_3   0.357077 0.950981 0.740914 -0.571535
H13   H     H_    0.337804 0.011238 0.756777 0.218561
H14   H     H_    0.344477 0.902109 0.800227 0.275202
N2    N     N_3   0.696866 0.899579 0.319713 -0.530660
H15   H     H_    0.720324 0.931516 0.253076 0.279306
H16   H     H_    0.720436 0.830771 0.329154 0.256271
N3    N     N_3   0.086667 0.710756 0.326294 -0.551075
H17   H     H_    0.139559 0.722248 0.336269 0.227985
H18   H     H_    0.048418 0.772547 0.297412 0.271588
N4    N     N_3   0.082327 0.253597 0.636928 -0.585502
H19   H     H_    0.142623 0.203975 0.637879 0.220303
H20   H     H_    0.029545 0.223531 0.667346 0.223183
N5    N     N_3   0.657700 0.346075 0.170037 -0.568349
H21   H     H_    0.644776 0.384222 0.212725 0.209708
H22   H     H_    0.724345 0.307828 0.162550 0.270978
N6    N     N_3   0.330163 0.681068 0.935378 -0.534133
H23   H     H_    0.262195 0.714446 0.952070 0.279608
H24   H     H_    0.355799 0.696286 0.866556 0.251946
N7    N     N_3   0.356220 0.822131 0.685956 -0.570905
H25   H     H_    0.370248 0.757713 0.681224 0.222772
H26   H     H_    0.290858 0.839159 0.725592 0.233339
N8    N     N_3   0.659754 0.075591 0.322379 -0.540536
H27   H     H_    0.726828 0.059073 0.286507 0.282634
H28   H     H_    0.635689 0.144525 0.311411 0.238410
N9    N     N_3   0.616419 0.246130 0.107821 -0.526216
H29   H     H_    0.647398 0.199174 0.071135 0.255586
H30   H     H_    0.603951 0.213712 0.175173 0.276447
N10   N     N_3   0.299603 0.682234 0.109897 -0.519409
H31   H     H_    0.276630 0.749390 0.078561 0.272332
H32   H     H_    0.277715 0.672423 0.178519 0.255192
N11   N     N_3   0.995168 0.655348 0.269171 -0.534459
H33   H     H_    0.935290 0.656806 0.260800 0.233166
H34   H     H_    0.033882 0.682542 0.207063 0.273975
N12   N     N_3   0.180305 0.340802 0.650669 -0.567294
H35   H     H_    0.166477 0.297024 0.713686 0.226963
H36   H     H_    0.228054 0.368747 0.648780 0.213667
C103  C     C_2   0.720034 0.093980 0.721295 0.447742
H37   H     H_    0.705647 0.165772 0.696782 0.013940
O37   O     O_2   0.766305 0.054579 0.773276 -0.467672
C104  C     C_2   0.246916 0.041799 0.248649 0.469646
H38   H     H_    0.223521 0.014373 0.214555 0.115980
O38   O     O_2   0.223054 0.121798 0.239956 -0.512243
C105  C     C_2   0.956844 0.760670 0.758988 0.419689
H39   H     H_    0.993542 0.763467 0.799056 0.133307
O39   O     O_2   0.883528 0.813418 0.757437 -0.552186
C106  C     C_2   0.906722 0.285284 0.286988 0.454202
H40   H     H_    0.835320 0.308994 0.315269 0.020508
O40   O     O_2   0.933519 0.238153 0.236831 -0.440843
C107  C     C_2   0.751230 0.755915 0.954219 0.454084
H41   H     H_    0.755766 0.778329 0.884169 0.083465
O41   O     O_2   0.789402 0.783664 0.984140 -0.449469
C108  C     C_2   0.282460 0.280999 0.900245 0.428194
H42   H     H_    0.296680 0.307566 0.828873 0.008306
O42   O     O_2   0.237331 0.227733 0.937520 -0.490425

loop_
_geom_bond_atom_site_label_1
_geom_bond_atom_site_label_2
_ccdc_geom_bond_type
C25   C31   A    
C40   C47   A    
C14   C56   A    
C5    O7    A    
Cu4   O9    S    
C68   C80   A    
Cu3   Cu4   S    
Cu6   O6    S    
C9    O21   A    
N5    H21   S    
C39   C48   A    
C94   O28   D    
Cu5   Cu6   S    
C34   C42   A    
C13   C43   A    
C5    C67   S    
C11   O23   A    
C29   C89   A    
N8    H27   S    
C10   C78   S    
Cu2   O2    S    
N7    H26   S    
N9    H29   S    
C27   C33   A    
C26   C32   A    
N1    H13   S    
C41   C46   A    
C106  O40   D    
C14   C44   A    
N3    H18   S    
Cu2   O23   S    
C100  O34   D    
C12   C74   S    
C99   H9    S    
N6    H23   S    
Cu3   O10   S    
Cu4   O21   S    
C75   C84   A    
C60   C72   A    
C24   C54   A    
C2    O12   A    
C28   C41   A    
C8    C76   S    
N10   H31   S    
C63   C90   A    
C59   C89   A    
C7    O19   A    
C19   C49   A    
C6    O18   A    
C20   C50   A    
C1    O13   A    
C48   N6    S    
C12   O24   A    
N3    H17   S    
C3    O15   A    
C108  H42   S    
C103  O37   D    
C28   C88   A    
C101  H11   S    
Cu6   O19   S    
C18   C96   S    
C32   C38   A    
C16   C94   S    
Cu3   O3    S    
C12   O2    A    
Cu1   Cu2   S    
C30   C90   A    
N9    H30   S    
C4    O16   A    
C28   C34   A    
C105  H39   S    
C9    O3    A    
C15   C93   S    
N4    H20   S    
C15   C57   A    
Cu6   O18   S    
C64   C89   A    
C66   C78   A    
C76   C83   A    
C99   O33   D    
C24   C102  S    
C23   C53   A    
C71   C83   A    
C107  O41   D    
C80   C104  S    
C62   C85   A    
C14   C92   S    
C106  H40   S    
C20   C62   A    
C20   C98   S    
C36   C40   A    
C67   C79   A    
C100  H10   S    
C96   O30   D    
C11   C73   S    
C16   C46   A    
C66   C87   A    
C82   C106  S    
C58   C70   A    
C7    C75   S    
C50   N8    S    
C61   C73   A    
C107  H41   S    
C4    O10   A    
C1    C69   S    
C31   C37   A    
C18   C48   A    
C52   N10   S    
C42   C45   A    
N2    H16   S    
C55   C85   A    
C35   C39   A    
C93   O27   D    
N12   H35   S    
C27   C42   A    
C10   O22   A    
C25   C38   A    
C65   C77   A    
C13   C91   S    
C84   C108  S    
Cu2   O11   S    
C56   C86   A    
N7    H25   S    
C3    O9    A    
Cu4   O4    S    
Cu5   O20   S    
C26   C86   A    
C6    C68   S    
C4    C72   S    
C25   C85   A    
C64   C76   A    
C16   C58   A    
Cu1   O1    S    
C10   O4    A    
C102  H12   S    
C72   C84   A    
C36   C51   A    
C17   C59   A    
C18   C60   A    
Cu3   O15   S    
C6    O8    A    
C74   C79   A    
C17   C95   S    
C95   H5    S    
C44   N2    S    
C98   O32   D    
C21   C99   S    
Cu3   O22   S    
C15   C45   A    
C31   C50   A    
C93   H3    S    
C19   C61   A    
C21   C51   A    
C91   O25   D    
Cu5   O8    S    
C65   C88   A    
C92   O26   D    
N5    H22   S    
C33   C54   A    
C23   C101  S    
C2    O14   A    
N12   H36   S    
C46   N4    S    
C5    O17   A    
Cu1   O24   S    
C102  O36   D    
Cu1   O12   S    
C51   N9    S    
C17   C47   A    
C22   C100  S    
C104  H38   S    
C43   N1    S    
C58   C88   A    
C81   C105  S    
N8    H28   S    
C97   H7    S    
C91   H1    S    
C26   C37   A    
C3    C71   S    
C60   C90   A    
C29   C35   A    
C79   C103  S    
C30   C36   A    
C11   O1    A    
C33   C41   A    
N2    H15   S    
Cu1   O13   S    
C37   C44   A    
C94   H4    S    
C9    C77   S    
Cu2   O14   S    
C55   C67   A    
C83   C107  S    
C108  O42   D    
C56   C68   A    
C27   C87   A    
C97   O31   D    
C78   C81   A    
C23   C65   A    
N4    H19   S    
C63   C75   A    
C77   C82   A    
Cu5   O17   S    
C29   C40   A    
Cu4   O16   S    
N6    H24   S    
C73   C80   A    
N10   H32   S    
C54   N12   S    
C47   N5    S    
C22   C52   A    
C101  O35   D    
C45   N3    S    
C70   C82   A    
C105  O39   D    
C32   C49   A    
C21   C63   A    
C104  O38   D    
C69   C81   A    
C61   C86   A    
C8    O20   A    
C53   N11   S    
C1    O11   A    
C57   C87   A    
C38   C43   A    
C24   C66   A    
C34   C53   A    
N1    H14   S    
C103  H37   S    
C7    O5    A    
Cu6   O7    S    
C59   C71   A    
C35   C52   A    
C95   O29   D    
C98   H8    S    
C62   C74   A    
N11   H33   S    
C22   C64   A    
C57   C69   A    
C2    C70   S    
C8    O6    A    
N11   H34   S    
C19   C97   S    
C96   H6    S    
Cu5   O5    S    
C30   C39   A    
C92   H2    S    
C13   C55   A    
C49   N7    S    
