data_mof_unit_41608.cif
_audit_creation_date              2012-12-10T18:16:19-0500
_audit_creation_method            fapswitch 2.2
_symmetry_space_group_name_H-M    P1
_symmetry_Int_Tables_number       1
_space_group_crystal_system       triclinic
_cell_length_a                    12.815922
_cell_length_b                    13.471735
_cell_length_c                    27.731002
_cell_angle_alpha                 94.770897
_cell_angle_beta                  102.350956
_cell_angle_gamma                 83.330387
_cell_volume                      4636.96733365

loop_
_atom_site_label
_atom_site_type_symbol
_atom_type_description
_atom_site_fract_x
_atom_site_fract_y
_atom_site_fract_z
_atom_type_partial_charge
C1    C     C_R   0.440221 0.691036 0.497143 0.967548
C2    C     C_R   0.421901 0.549423 0.716219 0.333085
C3    C     C_R   0.504984 0.491762 0.746750 0.092244
C4    C     C_R   0.502704 0.492243 0.898687 -0.214726
C5    C     C_R   0.481371 0.582721 0.874663 -0.146205
C6    C     C_R   0.443253 0.671110 0.899245 0.378555
C7    C     C_R   0.525304 0.401432 0.872150 -0.148688
C8    C     C_R   0.503774 0.495790 0.645942 -0.278725
C9    C     C_R   0.493941 0.499577 0.352698 -0.398642
C10   C     C_R   0.498096 0.585202 0.027946 -0.050949
C11   C     C_R   0.497699 0.402888 0.021149 -0.073631
C12   C     C_R   0.501595 0.498722 0.593392 1.008281
C13   C     C_R   0.495877 0.494678 0.049841 -0.053135
C14   C     C_R   0.518355 0.673143 0.058884 0.393353
C15   C     C_R   0.511714 0.675544 0.108615 0.451001
C16   C     C_R   0.498504 0.587021 0.129716 -0.192729
C17   C     C_R   0.490492 0.496215 0.100170 -0.172169
C18   C     C_R   0.476421 0.407168 0.120767 -0.171795
C19   C     C_R   0.465413 0.412925 0.170348 0.575012
C20   C     C_R   0.496813 0.585495 0.180098 0.585272
C21   C     C_R   0.400365 0.551790 0.271527 0.337953
C22   C     C_R   0.413351 0.562334 0.323431 0.336953
C23   C     C_R   0.558965 0.310087 0.504690 0.892062
C24   C     C_R   0.568523 0.436392 0.330519 0.402353
C25   C     C_R   0.572001 0.447612 0.281155 0.335506
C26   C     C_R   0.483653 0.499319 0.250782 -0.043722
C27   C     C_R   0.480615 0.584037 0.975808 -0.004186
C28   C     C_R   0.500956 0.492649 0.949162 -0.052153
C29   C     C_R   0.518971 0.401826 0.972970 0.010594
C30   C     C_R   0.435540 0.669102 0.949324 0.305616
C31   C     C_R   0.559736 0.313042 0.897558 0.352811
C32   C     C_R   0.472737 0.316820 0.040570 0.493353
C33   C     C_R   0.469131 0.316947 0.090564 0.344189
C34   C     C_R   0.498583 0.499293 0.406176 1.023319
C35   C     C_R   0.563156 0.315200 0.949027 0.368790
C36   C     C_R   0.722429 0.067744 0.540555 0.471710
C37   C     C_R   0.592111 0.203270 0.508812 -0.417540
C38   C     C_R   0.293216 0.834407 0.483653 0.230605
C39   C     C_R   0.261861 0.937950 0.479542 0.237546
C40   C     C_R   0.339039 0.006256 0.491537 0.513256
C41   C     C_R   0.450222 0.972786 0.501759 -0.135295
C42   C     C_R   0.479101 0.871755 0.512847 -0.168470
C43   C     C_R   0.533670 0.037835 0.507398 -0.047244
C44   C     C_R   0.641490 0.001756 0.527254 -0.203338
C45   C     C_R   0.495399 0.580969 0.825798 0.682092
C46   C     C_R   0.665453 0.900722 0.534544 0.310896
C47   C     C_R   0.583280 0.845695 0.539264 0.404387
C48   C     C_R   0.516338 0.133860 0.489564 0.446344
C49   C     C_R   0.694986 0.169237 0.535409 0.318270
C50   C     C_R   0.403347 0.800410 0.498978 -0.183222
C51   C     C_R   0.089868 0.347457 0.425692 0.324853
C52   C     C_R   0.814497 0.611623 0.567998 0.446704
C53   C     C_R   0.914123 0.654389 0.572805 0.117430
C54   C     C_R   0.978398 0.622437 0.538152 0.460301
C55   C     C_R   0.959090 0.533480 0.509015 -0.118405
C56   C     C_R   0.514916 0.402643 0.820739 0.678734
C57   C     C_R   0.852928 0.504224 0.499823 -0.071226
C58   C     C_R   0.041587 0.474384 0.488137 -0.194385
C59   C     C_R   0.014769 0.393981 0.453340 -0.251243
C60   C     C_R   0.914703 0.359489 0.447966 0.440134
C61   C     C_R   0.832947 0.417410 0.467598 0.421311
C62   C     C_R   0.153345 0.483832 0.504093 0.599079
C63   C     C_R   0.188975 0.386749 0.432695 0.385096
C64   C     C_R   0.585759 0.433351 0.726371 0.313865
C65   C     C_R   0.581399 0.431200 0.674850 0.231714
C66   C     C_R   0.426773 0.557442 0.666624 0.213530
N1    N     N_R   0.506025 0.491654 0.798909 -0.311512
N2    N     N_R   0.480102 0.499699 0.198880 -0.343853
N3    N     N_R   0.222180 0.444690 0.474320 -0.212230
N4    N     N_R   0.776980 0.554780 0.525420 -0.140583
O1    O     O_R   0.366730 0.627160 0.487740 -0.529403
O2    O     O_2   0.512481 0.668313 0.210554 -0.513592
O3    O     O_2   0.511247 0.316018 0.792601 -0.533149
O4    O     O_2   0.439376 0.333576 0.190285 -0.541197
O5    O     O_R   0.544830 0.662520 0.504140 -0.590741
O6    O     O_R   0.410970 0.482310 0.563040 -0.599438
O7    O     O_R   0.589070 0.517670 0.579450 -0.532150
O8    O     O_R   0.455170 0.337480 0.495860 -0.599814
O9    O     O_R   0.633270 0.372840 0.512260 -0.552811
O10   O     O_R   0.410930 0.482330 0.420550 -0.578916
O11   O     O_R   0.589030 0.517690 0.436960 -0.543218
O12   O     O_2   0.499484 0.667547 0.805372 -0.524119
Zn1   Zn    Zn3+2 0.381080 0.476390 0.489050 1.064712
Zn2   Zn    Zn3+2 0.618920 0.523610 0.510950 1.069342
O13   O     O_3   0.353903 0.623506 0.637776 -0.585580
C67   C     C_3   0.398874 0.714979 0.640109 0.104479
H1    H     H_    0.469749 0.705139 0.622385 0.182243
H2    H     H_    0.423342 0.745347 0.679057 0.159962
C68   C     C_3   0.315573 0.790943 0.612303 -0.780653
H3    H     H_    0.248631 0.809738 0.632083 0.235990
H4    H     H_    0.352514 0.860266 0.609441 0.198845
H5    H     H_    0.283085 0.759116 0.574651 0.301077
O14   O     O_3   0.668429 0.381498 0.757741 -0.725875
H6    H     H_    0.679921 0.312966 0.742599 0.354966
O15   O     O_3   0.605177 0.230089 0.873653 -0.572164
C69   C     C_3   0.534855 0.154354 0.864879 0.121550
H7    H     H_    0.451881 0.183308 0.846700 0.154844
H8    H     H_    0.532407 0.121916 0.900086 0.145619
C70   C     C_3   0.575916 0.071600 0.830757 -0.758116
H9    H     H_    0.656305 0.037512 0.848969 0.248063
H10   H     H_    0.519968 0.012643 0.821862 0.198390
H11   H     H_    0.582150 0.102662 0.795730 0.283772
O16   O     O_3   0.447338 0.232277 0.010409 -0.532989
C71   C     C_3   0.335925 0.242778 0.990325 0.114472
H12   H     H_    0.310673 0.313948 0.971196 0.113418
H13   H     H_    0.289726 0.240829 0.019934 0.174531
C72   C     C_3   0.308413 0.156534 0.952498 -0.797290
H14   H     H_    0.335455 0.083896 0.969717 0.276965
H15   H     H_    0.220261 0.161269 0.938266 0.214005
H16   H     H_    0.348387 0.160659 0.921068 0.226380
O17   O     O_3   0.644095 0.370877 0.358644 -0.554458
C73   C     C_3   0.639605 0.270526 0.338413 0.202873
H17   H     H_    0.722836 0.233166 0.344041 0.213462
H18   H     H_    0.605369 0.262391 0.298037 0.176866
C74   C     C_3   0.574878 0.213678 0.364790 -0.960872
H19   H     H_    0.491930 0.250690 0.360512 0.261419
H20   H     H_    0.571753 0.135734 0.348427 0.245336
H21   H     H_    0.612313 0.210884 0.404584 0.247060
O18   O     O_3   0.457899 0.227202 0.108323 -0.691481
H22   H     H_    0.517994 0.215923 0.137090 0.367491
O19   O     O_3   0.661720 0.405150 0.263898 -0.731596
H23   H     H_    0.661597 0.431016 0.231529 0.347178
O20   O     O_3   0.619019 0.239003 0.977583 -0.712662
H24   H     H_    0.664892 0.194895 0.958472 0.360582
O21   O     O_3   0.769263 0.232912 0.558906 -0.726790
H25   H     H_    0.732339 0.283426 0.579190 0.382606
O22   O     O_3   0.765137 0.854742 0.530981 -0.794947
H26   H     H_    0.758589 0.782385 0.523353 0.332580
O23   O     O_3   0.824860 0.038174 0.565621 -0.699830
H27   H     H_    0.818109 0.993979 0.591317 0.331593
O24   O     O_3   0.338055 0.597413 0.736255 -0.719799
H28   H     H_    0.287154 0.636794 0.711147 0.370287
O25   O     O_3   0.430852 0.154493 0.450691 -0.705354
H29   H     H_    0.445484 0.209454 0.432459 0.353302
O26   O     O_3   0.217823 0.766021 0.474336 -0.706521
H30   H     H_    0.150065 0.798418 0.482700 0.368141
O27   O     O_3   0.303052 0.105584 0.498975 -0.549489
C75   C     C_3   0.301947 0.124017 0.549670 0.140551
H31   H     H_    0.384800 0.114684 0.572637 0.126419
H32   H     H_    0.250845 0.073627 0.562018 0.150558
C76   C     C_3   0.255390 0.230508 0.557983 -0.852842
H33   H     H_    0.172902 0.241956 0.535180 0.232775
H34   H     H_    0.252460 0.245477 0.597678 0.201139
H35   H     H_    0.306329 0.282679 0.547269 0.272007
O28   O     O_3   0.156054 0.975868 0.464708 -0.779027
H36   H     H_    0.118806 0.927328 0.440076 0.340196
O29   O     O_3   0.599181 0.779958 0.576264 -0.756325
H37   H     H_    0.664481 0.795492 0.600848 0.334693
O30   O     O_3   0.256024 0.361749 0.399639 -0.594480
C77   C     C_3   0.210947 0.407955 0.354690 0.137634
H38   H     H_    0.227325 0.487675 0.358541 0.208012
H39   H     H_    0.122491 0.406118 0.342890 0.168962
C78   C     C_3   0.260837 0.354417 0.313345 -0.769656
H40   H     H_    0.244003 0.274787 0.308695 0.250568
H41   H     H_    0.226617 0.390836 0.278130 0.237447
H42   H     H_    0.348737 0.357785 0.321985 0.237612
O31   O     O_3   0.896131 0.266529 0.424174 -0.577815
C79   C     C_3   0.914851 0.195057 0.460582 0.047931
H43   H     H_    0.867482 0.217402 0.489550 0.193335
H44   H     H_    0.000999 0.185771 0.479134 0.164820
C80   C     C_3   0.881796 0.094604 0.436757 -0.725126
H45   H     H_    0.930567 0.066639 0.409007 0.253384
H46   H     H_    0.894554 0.039223 0.465498 0.258779
H47   H     H_    0.795547 0.102318 0.418445 0.232357
O32   O     O_3   0.059154 0.278921 0.386313 -0.559891
C81   C     C_3   0.124385 0.186850 0.393209 0.205287
H48   H     H_    0.114499 0.152988 0.426799 0.202120
H49   H     H_    0.210899 0.194722 0.396691 0.210049
C82   C     C_3   0.091520 0.114977 0.348694 -0.801187
H50   H     H_    0.108639 0.143960 0.315156 0.249744
H51   H     H_    0.137455 0.040430 0.355060 0.214860
H52   H     H_    0.004406 0.106805 0.342426 0.269714
O33   O     O_3   0.194975 0.525874 0.550580 -0.508468
C83   C     C_3   0.187094 0.461987 0.587721 0.118895
H53   H     H_    0.268573 0.426131 0.602823 0.175920
H54   H     H_    0.133688 0.401348 0.574604 0.082972
C84   C     C_3   0.145543 0.521003 0.630328 -0.691819
H55   H     H_    0.058324 0.515559 0.625855 0.208110
H56   H     H_    0.185964 0.488652 0.665923 0.210476
H57   H     H_    0.159598 0.600984 0.632029 0.319954
O34   O     O_3   0.751874 0.625441 0.603950 -0.562699
C85   C     C_3   0.812369 0.630432 0.653193 0.150131
H58   H     H_    0.827666 0.708768 0.664938 0.172027
H59   H     H_    0.888900 0.580179 0.657884 0.163013
C86   C     C_3   0.748740 0.600542 0.688852 -0.806013
H60   H     H_    0.756484 0.518192 0.688808 0.272805
H61   H     H_    0.782681 0.629411 0.727011 0.215193
H62   H     H_    0.663346 0.631472 0.678660 0.255223
O35   O     O_3   0.396192 0.752248 0.871984 -0.566128
C87   C     C_3   0.454677 0.836089 0.887224 0.129236
H63   H     H_    0.520876 0.833079 0.866818 0.180949
H64   H     H_    0.490311 0.841733 0.927597 0.149301
C88   C     C_3   0.378958 0.930184 0.874950 -0.821298
H65   H     H_    0.308785 0.931748 0.892652 0.258639
H66   H     H_    0.421263 0.996902 0.889137 0.198102
H67   H     H_    0.350280 0.932527 0.834288 0.267431
O36   O     O_3   0.061637 0.674703 0.532914 -0.700484
H68   H     H_    0.074866 0.727749 0.559607 0.357716
O37   O     O_3   0.962571 0.704449 0.616148 -0.655824
C89   C     C_3   0.933998 0.808469 0.615081 0.095503
H69   H     H_    0.848059 0.826349 0.616381 0.165188
H70   H     H_    0.951258 0.839361 0.581999 0.217621
C90   C     C_3   0.998767 0.859756 0.660828 -0.838150
H71   H     H_    0.085852 0.842447 0.661691 0.258919
H72   H     H_    0.978281 0.942092 0.660391 0.230324
H73   H     H_    0.980477 0.833289 0.694701 0.256514
O38   O     O_3   0.732345 0.389803 0.453425 -0.660945
H74   H     H_    0.732457 0.318557 0.441907 0.362099
O39   O     O_3   0.346241 0.630285 0.346411 -0.595823
C91   C     C_3   0.338800 0.727011 0.328343 0.196227
H75   H     H_    0.267195 0.737263 0.297880 0.211259
H76   H     H_    0.411795 0.741293 0.315078 0.150715
C92   C     C_3   0.324041 0.806258 0.369033 -0.862607
H77   H     H_    0.395749 0.800405 0.399556 0.249592
H78   H     H_    0.314670 0.881940 0.354579 0.214539
H79   H     H_    0.250871 0.795990 0.382613 0.289141
O40   O     O_3   0.307032 0.594539 0.242623 -0.764258
H80   H     H_    0.302547 0.570386 0.207628 0.348496
O41   O     O_3   0.527443 0.763686 0.137360 -0.532249
C93   C     C_3   0.429498 0.826012 0.130417 0.166852
H81   H     H_    0.364867 0.788082 0.140387 0.128805
H82   H     H_    0.403893 0.847563 0.091402 0.182083
C94   C     C_3   0.444251 0.921155 0.163653 -0.706738
H83   H     H_    0.507238 0.961569 0.154173 0.270312
H84   H     H_    0.367705 0.970773 0.158526 0.205419
H85   H     H_    0.468358 0.902340 0.202999 0.261863
O42   O     O_3   0.552832 0.755929 0.043085 -0.701371
H86   H     H_    0.590847 0.733734 0.015882 0.329114
O43   O     O_3   0.377297 0.744891 0.972104 -0.747611
H87   H     H_    0.329909 0.786518 0.946839 0.364631
O44   O     O_3   0.653114 0.370681 0.651661 -0.785378
H88   H     H_    0.717236 0.346866 0.676129 0.346854

loop_
_geom_bond_atom_site_label_1
_geom_bond_atom_site_label_2
_ccdc_geom_bond_type
C10   C27   A    
C58   C62   A    
C81   H49   S    
C21   C26   A    
C22   O39   S    
C8    C66   A    
C87   H63   S    
C82   H51   S    
C41   C42   A    
O15   C69   S    
C35   O20   S    
C90   H71   S    
O11   Zn2   S    
C66   O13   S    
C71   H13   S    
O28   H36   S    
C94   H85   S    
C93   H81   S    
O20   H24   S    
O13   C67   S    
C90   H72   S    
O32   C81   S    
C54   O36   S    
C5    C6    A    
C30   O43   S    
C28   C29   A    
C64   O14   S    
C76   H34   S    
O9    Zn2   S    
C67   H2    S    
C9    C22   A    
C86   H61   S    
C45   O12   S    
C15   C16   A    
C69   C70   S    
C73   C74   S    
C17   C18   A    
C18   C19   A    
C82   H50   S    
C83   H53   S    
C73   H17   S    
O16   C71   S    
C87   C88   S    
C34   O10   A    
C85   H58   S    
C76   H33   S    
O8    Zn1   S    
O31   C79   S    
C63   O30   S    
C33   O18   S    
O29   H37   S    
C16   C17   A    
C74   H20   S    
C77   C78   S    
C69   H8    S    
C45   N1    A    
C72   H14   S    
C34   O11   A    
C57   N4    A    
C78   H41   S    
N4    Zn2   S    
C43   C48   A    
C79   C80   S    
C36   C44   A    
C8    C12   S    
C74   H21   S    
C88   H67   S    
O37   C89   S    
C78   H40   S    
C21   O40   S    
C21   C22   A    
C12   O7    A    
C27   C30   A    
C79   H44   S    
C41   C43   A    
C81   H48   S    
O36   H68   S    
C24   O17   S    
C7    C56   A    
C4    C7    A    
O6    Zn1   S    
C73   H18   S    
C71   H12   S    
C80   H46   S    
C44   C46   A    
O39   C91   S    
O1    Zn1   S    
C92   H78   S    
C38   C39   A    
C90   H73   S    
C47   O29   S    
C7    C31   A    
C65   O44   S    
O38   H74   S    
C53   O37   S    
C63   N3    A    
C46   O22   S    
O26   H30   S    
C51   C63   A    
C60   O31   S    
C94   H83   S    
O40   H80   S    
C10   C14   A    
C76   H35   S    
O41   C93   S    
C67   H1    S    
C89   H69   S    
C86   H62   S    
O7    Zn2   S    
C84   H56   S    
C25   C26   A    
O34   C85   S    
C62   O33   S    
C5    C45   A    
C67   C68   S    
C62   N3    A    
C60   C61   A    
C68   H5    S    
C85   C86   S    
C1    O5    A    
C79   H43   S    
C43   C44   A    
C69   H7    S    
O43   H87   S    
N3    Zn1   S    
O25   H29   S    
C37   C49   A    
C48   O25   S    
O42   H86   S    
C92   H77   S    
C16   C20   A    
C84   H57   S    
C40   O27   S    
C39   O28   S    
C59   C60   A    
C88   H66   S    
C2    O24   S    
C32   O16   S    
C19   N2    A    
O14   H6    S    
C1    O1    A    
C38   O26   S    
C24   C25   A    
C37   C48   A    
C57   C61   A    
C83   C84   S    
O19   H23   S    
C75   H32   S    
C42   C50   A    
C40   C41   A    
C70   H10   S    
C61   O38   S    
C11   C32   A    
C88   H65   S    
C91   H76   S    
C55   C57   A    
O21   H25   S    
C82   H52   S    
C31   C35   A    
C51   O32   S    
C68   H4    S    
C15   O41   S    
O24   H28   S    
C56   N1    A    
C39   C40   A    
C80   H47   S    
C52   C53   A    
O10   Zn1   S    
O23   H27   S    
C1    C50   S    
C92   H79   S    
C54   C55   A    
C87   H64   S    
C56   O3    S    
O17   C73   S    
C6    C30   A    
C14   C15   A    
C20   N2    A    
C19   O4    S    
C3    N1    S    
C4    C5    A    
C2    C66   A    
C10   C13   A    
O18   H22   S    
C94   H84   S    
C9    C24   A    
C53   C54   A    
O22   H26   S    
C38   C50   A    
C91   C92   S    
C49   O21   S    
O27   C75   S    
C29   C35   A    
C70   H9    S    
C13   C17   A    
C93   H82   S    
C26   N2    S    
C32   C33   A    
C12   O6    A    
C2    C3    A    
C58   C59   A    
C14   O42   S    
C23   C37   S    
O30   C77   S    
C64   C65   A    
C11   C13   A    
C86   H60   S    
C72   H15   S    
C80   H45   S    
C52   O34   S    
C89   C90   S    
C31   O15   S    
C6    O35   S    
C78   H42   S    
C72   H16   S    
C83   H54   S    
C9    C34   S    
C77   H39   S    
C42   C47   A    
C93   C94   S    
C23   O8    A    
C3    C64   A    
O35   C87   S    
O5    Zn2   S    
C18   C33   A    
C85   H59   S    
C46   C47   A    
C52   N4    A    
C75   H31   S    
C84   H55   S    
O33   C83   S    
C8    C65   A    
C70   H11   S    
C51   C59   A    
C11   C29   A    
C81   C82   S    
C89   H70   S    
C91   H75   S    
C4    C28   A    
C55   C58   A    
O44   H88   S    
C77   H38   S    
C20   O2    S    
C23   O9    A    
C68   H3    S    
C36   O23   S    
C25   O19   S    
C71   C72   S    
C36   C49   A    
C74   H19   S    
C75   C76   S    
C27   C28   A    
