data_mof_unit_6802.cif
_audit_creation_date              2013-03-05T15:42:25-0500
_audit_creation_method            fapswitch 2.2
_symmetry_space_group_name_H-M    P1
_symmetry_Int_Tables_number       1
_space_group_crystal_system       triclinic
_cell_length_a                    11.176201
_cell_length_b                    10.950944
_cell_length_c                    18.78306
_cell_angle_alpha                 89.752435
_cell_angle_beta                  90.048188
_cell_angle_gamma                 59.508592
_cell_volume                      1980.907092

loop_
_atom_site_label
_atom_site_type_symbol
_atom_site_description
_atom_site_fract_x
_atom_site_fract_y
_atom_site_fract_z
_atom_type_partial_charge
O1    O     O_R   0.507340 0.255690 0.581430 -0.539528
O2    O     O_R   0.280360 0.527380 0.578910 -0.498910
C1    C     C_R   0.286406 0.623960 0.616560 0.557724
O3    O     O_R   0.260600 0.739610 0.584580 -0.383754
O4    O     O_R   0.532370 0.695050 0.573830 -0.507226
C2    C     C_R   0.657547 0.624992 0.598931 0.553426
O5    O     O_R   0.744850 0.503430 0.576380 -0.497000
O6    O     O_R   0.699080 0.276500 0.571950 -0.470030
C3    C     C_R   0.630305 0.225564 0.601831 0.564128
O7    O     O_R   0.498860 0.256520 0.419860 -0.551982
O8    O     O_R   0.272490 0.528150 0.429140 -0.464045
C4    C     C_R   0.295848 0.618856 0.393799 0.557939
O9    O     O_R   0.252110 0.740440 0.423010 -0.486726
O10   O     O_R   0.524510 0.695820 0.424050 -0.559898
C5    C     C_R   0.643317 0.628215 0.394359 0.585829
O11   O     O_R   0.736370 0.504260 0.414810 -0.420346
O12   O     O_R   0.691220 0.277270 0.422180 -0.418820
C6    C     C_R   0.616491 0.232669 0.393950 0.545023
Cr1   Cr    Cr6+3 0.392940 0.397950 0.502230 1.043129
Cr2   Cr    Cr6+3 0.398400 0.708500 0.501260 1.093637
Cr3   Cr    Cr6+3 0.708640 0.393530 0.496460 1.169885
O13   O     O_3   0.499990 0.499990 0.499980 -0.344913
C7    C     C_3   0.652148 0.834364 0.766038 -0.231600
H1    H     H_    0.717709 0.883538 0.767936 0.122988
H2    H     H_    0.551737 0.905582 0.792435 0.182791
C8    C     C_3   0.626383 0.813112 0.687055 -0.221878
H3    H     H_    0.514767 0.874305 0.673391 0.207177
H4    H     H_    0.677027 0.855646 0.651893 0.135356
H5    H     H_    0.934782 0.653460 0.770475 0.131237
H6    H     H_    0.894642 0.628146 0.653076 0.168736
C9    C     C_3   0.872114 0.600816 0.766997 -0.242600
C10   C     C_3   0.646630 0.615764 0.801965 -0.205657
C11   C     C_3   0.731468 0.691191 0.806253 0.035980
H7    H     H_    0.700064 0.513521 0.831696 0.132750
H8    H     H_    0.543119 0.682099 0.826953 0.169142
C12   C     C_3   0.688295 0.653779 0.672314 0.046593
C13   C     C_3   0.847207 0.581573 0.687810 -0.225779
C14   C     C_3   0.628374 0.587328 0.724075 -0.215696
H9    H     H_    0.517774 0.627562 0.712609 0.143816
H10   H     H_    0.682165 0.470738 0.715744 0.114096
H11   H     H_    0.933473 0.495256 0.792727 0.153625
H12   H     H_    0.901234 0.466654 0.676025 0.148595
H13   H     H_    0.497350 0.139935 0.684904 0.155024
C15   C     C_R   0.683821 0.155597 0.822280 -0.001300
C16   C     C_R   0.784737 0.170850 0.785100 -0.016121
C17   C     C_R   0.790038 0.160077 0.709371 -0.007116
C18   C     C_R   0.578908 0.148722 0.711067 -0.170917
C19   C     C_R   0.578240 0.152844 0.783476 -0.157628
C20   C     C_R   0.876503 0.201734 0.820866 -0.118825
C21   C     C_R   0.974448 0.217148 0.783111 -0.169478
C22   C     C_R   0.988529 0.193473 0.710197 -0.068217
C23   C     C_R   0.904744 0.153968 0.673676 0.243772
C24   C     C_R   0.677316 0.161867 0.672681 0.017224
H14   H     H_    0.868106 0.222767 0.877366 0.145321
H15   H     H_    0.500710 0.137565 0.808705 0.164316
H16   H     H_    0.041345 0.244470 0.811215 0.127911
H17   H     H_    0.068450 0.200254 0.681821 0.164677
C25   C     C_R   0.202445 0.655946 0.842037 -0.056916
C26   C     C_R   0.227855 0.532708 0.806886 0.008654
C27   C     C_R   0.237239 0.527274 0.731335 -0.014982
C28   C     C_R   0.248266 0.747844 0.734831 0.173763
C29   C     C_R   0.221458 0.755528 0.806692 -0.124329
C30   C     C_R   0.240521 0.416328 0.845971 -0.077120
C31   C     C_R   0.244360 0.303055 0.811847 -0.149519
C32   C     C_R   0.239626 0.301658 0.738378 -0.165870
C33   C     C_R   0.233211 0.412270 0.698453 -0.095745
C34   C     C_R   0.250009 0.636128 0.693689 -0.035734
H18   H     H_    0.251609 0.410054 0.903300 0.133749
H19   H     H_    0.209231 0.847044 0.835142 0.195862
H20   H     H_    0.256591 0.213410 0.842468 0.125590
H21   H     H_    0.249273 0.209988 0.711851 0.148446
H22   H     H_    0.221973 0.401826 0.642694 0.181684
H23   H     H_    0.459258 0.756981 0.292310 0.105946
C35   C     C_R   0.715400 0.705362 0.182816 0.015149
C36   C     C_R   0.828734 0.631737 0.231866 0.015910
C37   C     C_R   0.801518 0.646103 0.306256 0.048698
C38   C     C_R   0.558825 0.740074 0.278315 -0.134066
C39   C     C_R   0.580598 0.760938 0.208052 -0.110154
C40   C     C_R   0.962917 0.525165 0.210896 -0.085433
C41   C     C_R   0.063659 0.443579 0.261513 -0.151352
C42   C     C_R   0.043282 0.481056 0.332719 -0.053367
C43   C     C_R   0.913957 0.589440 0.355443 0.246066
C44   C     C_R   0.666265 0.685650 0.328304 0.051728
H24   H     H_    0.990580 0.492392 0.156816 0.169798
H25   H     H_    0.492484 0.807276 0.172040 0.144944
H26   H     H_    0.162007 0.356627 0.244604 0.116703
H27   H     H_    0.128277 0.424834 0.369856 0.167342
C45   C     C_R   0.628633 0.176826 0.172032 -0.050079
C46   C     C_R   0.545820 0.145149 0.216419 0.016101
C47   C     C_R   0.577061 0.123790 0.289297 -0.022700
C48   C     C_R   0.710748 0.242352 0.274643 0.173696
C49   C     C_R   0.699554 0.236217 0.201067 -0.159841
C50   C     C_R   0.430481 0.138096 0.191187 -0.086623
C51   C     C_R   0.361882 0.092483 0.235296 -0.158168
C52   C     C_R   0.405828 0.054255 0.305381 -0.121468
C53   C     C_R   0.518456 0.060523 0.330856 -0.060784
C54   C     C_R   0.650058 0.183637 0.320130 -0.010514
H28   H     H_    0.385627 0.176326 0.139074 0.139737
H29   H     H_    0.751092 0.273009 0.165524 0.157966
H30   H     H_    0.274964 0.088001 0.213791 0.108613
H31   H     H_    0.353084 0.022092 0.341484 0.106033
H32   H     H_    0.552171 0.025930 0.385058 0.172401
H33   H     H_    0.365803 0.411965 0.294532 0.136401
C55   C     C_R   0.143449 0.677562 0.185856 0.007070
C56   C     C_R   0.109778 0.793480 0.231124 0.027125
C57   C     C_R   0.196858 0.773494 0.287538 0.041318
C58   C     C_R   0.302103 0.518659 0.274480 -0.164878
C59   C     C_R   0.247834 0.541132 0.205567 -0.156712
C60   C     C_R   0.003021 0.932761 0.216128 -0.076000
C61   C     C_R   0.021672 0.044985 0.233093 -0.078203
C62   C     C_R   0.117849 0.026245 0.283951 -0.090792
C63   C     C_R   0.201341 0.893294 0.312969 -0.079860
C64   C     C_R   0.270335 0.635528 0.317401 -0.011097
H34   H     H_    0.915944 0.951490 0.184228 0.153724
H35   H     H_    0.279178 0.452542 0.169971 0.116181
H36   H     H_    0.962991 0.146323 0.207452 0.151701
H37   H     H_    0.125253 0.115772 0.301996 0.157057
H38   H     H_    0.273450 0.886162 0.352694 0.141336
O14   O     O_R   0.089570 0.825450 0.930590 -0.515148
O15   O     O_R   0.818700 0.054260 0.929860 -0.498549
C65   C     C_R   0.700978 0.102975 0.896181 0.529393
O16   O     O_R   0.606310 0.077010 0.915520 -0.540435
O17   O     O_R   0.646730 0.806540 0.917560 -0.493394
C66   C     C_R   0.755388 0.711208 0.882647 0.553665
O18   O     O_R   0.837290 0.593240 0.915240 -0.521602
O19   O     O_R   0.065320 0.635310 0.931580 -0.521770
C67   C     C_R   0.123085 0.702643 0.908210 0.540612
O20   O     O_R   0.068470 0.828620 0.091850 -0.519494
O21   O     O_R   0.799150 0.057200 0.079350 -0.522331
C68   C     C_R   0.671184 0.110344 0.102412 0.528211
O22   O     O_R   0.585220 0.080180 0.076770 -0.533684
O23   O     O_R   0.627170 0.809480 0.067050 -0.490921
C69   C     C_R   0.734557 0.716979 0.105733 0.559070
O24   O     O_R   0.816200 0.596410 0.076500 -0.520179
O25   O     O_R   0.045770 0.638240 0.081070 -0.544078
C70   C     C_R   0.090116 0.710296 0.113744 0.529167
Cr4   Cr    Cr6+3 0.937880 0.938320 0.007620 1.002248
Cr5   Cr    Cr6+3 0.625560 0.937220 0.994510 1.002717
Cr6   Cr    Cr6+3 0.938080 0.625010 0.001190 0.983001
O26   O     O_3   0.833840 0.833520 0.001110 -0.284555
N1    N     N_R   0.946327 0.093984 0.603676 0.123857
O27   O     O_R   0.932045 0.987871 0.584668 -0.290704
O28   O     O_R   0.007150 0.138681 0.560470 -0.301777
N2    N     N_R   0.280262 0.852584 0.708668 0.053609
O29   O     O_R   0.210929 0.936612 0.656506 -0.281901
O30   O     O_R   0.340422 0.897350 0.752011 -0.458124
N3    N     N_R   0.896085 0.637943 0.427969 0.082492
O31   O     O_R   0.984291 0.559632 0.477154 -0.314435
O32   O     O_R   0.799577 0.766415 0.443745 -0.357678
N4    N     N_R   0.783615 0.309896 0.300293 0.070917
O33   O     O_R   0.782427 0.408093 0.261099 -0.401374
O34   O     O_R   0.881683 0.247911 0.347653 -0.306869

loop_
_geom_bond_atom_site_label_1
_geom_bond_atom_site_label_2
_geom_bond_distance
_ccdc_geom_bond_type
C25   C29   1.379945 A    
C19   H15   1.072598 S    
C14   H10   1.113097 S    
C50   C51   1.381965 A    
C53   H32   1.083117 S    
C52   C53   1.380248 A    
C45   C68   1.457444 S    
C36   C37   1.422563 A    
C42   C43   1.394456 A    
O25   C70   1.282766 A    
O4    Cr2   1.972959 S    
C57   C63   1.422641 A    
C16   C17   1.426612 A    
O18   Cr6   2.096600 S    
O25   Cr6   1.973963 S    
C4    O9    1.288032 A    
O17   Cr5   1.966682 S    
O8    Cr1   1.939586 S    
C8    H3    1.104853 S    
O19   C67   1.278264 A    
O4    C2    1.294080 A    
C59   H35   1.082611 S    
C12   C13   1.560837 S    
N3    O32   1.301803 A    
O21   C68   1.315410 A    
O20   C70   1.258464 A    
C40   H24   1.071111 S    
C41   C42   1.385470 A    
C38   C44   1.394871 A    
O23   Cr5   1.942055 S    
C5    O11   1.278255 A    
C35   C69   1.478131 S    
C17   C23   1.418546 A    
C15   C65   1.475156 S    
C7    C8    1.551856 S    
C13   H12   1.108524 S    
C61   C62   1.372146 A    
C58   C64   1.400795 A    
C41   H26   1.075531 S    
N3    O31   1.301702 A    
C33   H22   1.068227 S    
C45   C49   1.368998 A    
C27   C34   1.451507 A    
O23   C69   1.323966 A    
C7    C11   1.546875 S    
C11   C66   1.496671 S    
C7    H1    1.108465 S    
C9    C11   1.556766 S    
C22   H17   1.074807 S    
C6    C54   1.467815 S    
C31   H20   1.082606 S    
C55   C70   1.447780 S    
C20   H14   1.080940 S    
C47   C54   1.405564 A    
O9    Cr2   2.089704 S    
C18   C24   1.382502 A    
C55   C59   1.398546 A    
C27   C33   1.426110 A    
C26   C27   1.422316 A    
C30   C31   1.379954 A    
Cr3   O13   2.010816 S    
C51   C52   1.391017 A    
C37   C44   1.407943 A    
C55   C56   1.414586 A    
C43   N3    1.441113 S    
Cr4   O26   2.009805 S    
O19   Cr6   1.977152 S    
O1    Cr1   2.056728 S    
C35   C36   1.434744 A    
C49   H29   1.083352 S    
C57   C64   1.415800 A    
C22   C23   1.395406 A    
O14   Cr4   2.094838 S    
C10   H8    1.112365 S    
O10   Cr2   1.978770 S    
O17   C66   1.309707 A    
Cr1   O13   2.009539 S    
O1    C3    1.297014 A    
O16   Cr5   2.058309 S    
N2    O30   1.300858 A    
C37   C43   1.421102 A    
C48   C49   1.392501 A    
O6    C3    1.284548 A    
C5    C44   1.469090 S    
C21   C22   1.389131 A    
C25   C26   1.398929 A    
C38   C39   1.381133 A    
O12   Cr3   1.967706 S    
C9    C13   1.547812 S    
C29   H19   1.083690 S    
C10   H7    1.112481 S    
O20   Cr4   2.068026 S    
C51   H30   1.075690 S    
C28   C34   1.441618 A    
C28   N2    1.447979 S    
C18   C19   1.360915 A    
C16   C20   1.403686 A    
O7    Cr1   2.087342 S    
C58   C59   1.395821 A    
O12   C6    1.277771 A    
C48   C54   1.429094 A    
C65   O16   1.279566 A    
C42   H27   1.081507 S    
Cr5   O26   2.009780 S    
C60   H34   1.069378 S    
C39   H25   1.083340 S    
C8    C12   1.542457 S    
Cr2   O13   1.968017 S    
C20   C21   1.384707 A    
C10   C14   1.531967 S    
C69   O24   1.289140 A    
N4    O34   1.300585 A    
C3    C24   1.467128 S    
C1    O3    1.292447 A    
C61   H36   1.072323 S    
O24   Cr6   2.094487 S    
C15   C16   1.406825 A    
C4    C64   1.455358 S    
O5    Cr3   2.091528 S    
C56   C60   1.406501 A    
C30   H18   1.081727 S    
C9    H11   1.109171 S    
C62   C63   1.378810 A    
O2    Cr1   1.969108 S    
O10   C5    1.276487 A    
C8    H4    1.113123 S    
C1    C34   1.493214 S    
N2    O29   1.293993 A    
O6    Cr3   1.946263 S    
C48   N4    1.433922 S    
Cr6   O26   1.967604 S    
O11   Cr3   2.069923 S    
C47   C53   1.405375 A    
C2    O5    1.261351 A    
C56   C57   1.377664 A    
C26   C30   1.411354 A    
C23   N1    1.440456 S    
N4    O33   1.295056 A    
C62   H37   1.080775 S    
C10   C11   1.543699 S    
N1    O28   1.302084 A    
O2    C1    1.304673 A    
H5    C9    1.112284 S    
O22   Cr5   2.085019 S    
C32   H21   1.078071 S    
N1    O27   1.301919 A    
C31   C32   1.381377 A    
C63   H38   1.070950 S    
C14   H9    1.102023 S    
H13   C18   1.081801 S    
O7    C6    1.298898 A    
C17   C24   1.426803 A    
C12   C14   1.553330 S    
C2    C12   1.493407 S    
C68   O22   1.259675 A    
C7    H2    1.108851 S    
C46   C50   1.411577 A    
C28   C29   1.376521 A    
C21   H16   1.074646 S    
C40   C41   1.392788 A    
O3    Cr2   2.100800 S    
C52   H31   1.068043 S    
C25   C67   1.462917 S    
O21   Cr4   1.970862 S    
C45   C46   1.413038 A    
H6    C13   1.113077 S    
C32   C33   1.392379 A    
C35   C39   1.392138 A    
H23   C38   1.064659 S    
O15   C65   1.303535 A    
H33   C58   1.079570 S    
O15   Cr4   1.945236 S    
C46   C47   1.401414 A    
C60   C61   1.385121 A    
C36   C40   1.412438 A    
C50   H28   1.080443 S    
C15   C19   1.399787 A    
O8    C4    1.324092 A    
C66   O18   1.293734 A    
O14   C67   1.272621 A    
