data_mof_unit_55827.cif
_audit_creation_date              2012-12-10T17:50:46-0500
_audit_creation_method            fapswitch 2.2
_symmetry_space_group_name_H-M    P1
_symmetry_Int_Tables_number       1
_space_group_crystal_system       triclinic
_cell_length_a                    14.701649
_cell_length_b                    14.679724
_cell_length_c                    15.861457
_cell_angle_alpha                 77.289837
_cell_angle_beta                  102.773541
_cell_angle_gamma                 114.618221
_cell_volume                      3003.23484773

loop_
_atom_site_label
_atom_site_type_symbol
_atom_type_description
_atom_site_fract_x
_atom_site_fract_y
_atom_site_fract_z
_atom_type_partial_charge
C1    C     C_R   0.880472 0.312362 0.514334 0.793570
C2    C     C_R   0.359944 0.922387 0.482462 0.089938
C3    C     C_R   0.677771 0.004909 0.507618 0.169685
C4    C     C_R   0.320906 0.998061 0.473815 0.170211
C5    C     C_R   0.532672 0.052965 0.493903 0.067792
C6    C     C_R   0.466265 0.950001 0.489472 0.069444
C7    C     C_R   0.508235 0.878391 0.490904 -0.229407
C8    C     C_R   0.490133 0.125924 0.485196 -0.231157
C9    C     C_R   0.611763 0.905567 0.500005 -0.233364
C10   C     C_R   0.386443 0.098767 0.474734 -0.235522
C11   C     C_R   0.722730 0.678229 0.362877 0.397121
C12   C     C_R   0.119557 0.687694 0.485710 0.794196
C13   C     C_R   0.275037 0.318644 0.633256 0.396584
C14   C     C_R   0.800733 0.642843 0.382751 -0.037270
C15   C     C_R   0.198102 0.355333 0.615227 -0.036841
C16   C     C_R   0.999644 0.500128 0.659977 0.827075
C17   C     C_R   0.000309 0.499798 0.340023 0.828133
C18   C     C_R   0.713358 0.508457 0.485308 0.002493
C19   C     C_R   0.286813 0.491963 0.514921 0.002827
C20   C     C_R   0.628294 0.536377 0.465886 -0.113152
C21   C     C_R   0.370557 0.462173 0.532081 -0.113057
C22   C     C_R   0.633838 0.623565 0.402812 -0.000745
C23   C     C_R   0.782360 0.030521 0.516608 -0.203412
C24   C     C_R   0.364113 0.373614 0.593635 -0.002109
C25   C     C_R   0.539580 0.481650 0.508049 0.076174
C26   C     C_R   0.458785 0.516312 0.489133 0.077206
C27   C     C_R   0.468096 0.603482 0.427025 -0.302347
C28   C     C_R   0.529294 0.393110 0.568539 -0.302341
C29   C     C_R   0.551824 0.655065 0.383026 0.257597
C30   C     C_R   0.445240 0.340903 0.612009 0.259737
C31   C     C_3   0.944562 0.404455 0.035893 -0.243718
C32   C     C_3   0.054799 0.594692 0.964108 -0.243164
C33   C     C_3   0.906516 0.470830 0.959317 0.331128
C34   C     C_R   0.216281 0.972140 0.464978 -0.205182
C35   C     C_3   0.092851 0.528315 0.040661 0.331382
C36   C     C_1   0.999123 0.500462 0.749436 -0.176697
C37   C     C_1   0.000638 0.499174 0.250572 -0.176676
C38   C     C_3   0.040768 0.434645 0.993035 -0.207033
C39   C     C_3   0.958583 0.564501 0.006952 -0.206785
C40   C     C_3   0.000395 0.500342 0.916828 0.085290
C41   C     C_3   0.998992 0.498821 0.083180 0.085155
C42   C     C_1   0.999467 0.500531 0.825002 -0.044213
C43   C     C_1   0.000099 0.498844 0.175012 -0.044126
C44   C     C_R   0.813067 0.205098 0.518213 -0.048672
C45   C     C_R   0.849684 0.130289 0.521179 -0.195985
C46   C     C_R   0.186947 0.795228 0.478477 -0.049240
C47   C     C_3   0.726507 0.418871 0.962393 -0.691749
C48   C     C_3   0.272688 0.580134 0.037108 -0.693240
C49   C     C_3   0.794911 0.849874 0.344627 -0.294513
C50   C     C_3   0.202160 0.147358 0.645301 -0.292507
C51   C     C_3   0.504238 0.712192 0.232180 -0.605674
C52   C     C_3   0.491191 0.278831 0.761849 -0.605320
C53   C     C_R   0.149553 0.871295 0.466714 -0.195325
C54   C     C_R   0.709288 0.178846 0.513358 -0.248908
C55   C     C_R   0.291038 0.821159 0.486019 -0.254208
C56   C     C_R   0.639280 0.079652 0.505124 0.089889
Cu1   Cu    Cu3+1 0.081740 0.475690 0.522610 0.938340
Cu2   Cu    Cu3+1 0.918260 0.524310 0.477390 0.938926
H1    H     H_    0.283501 0.555606 0.467604 0.138545
H2    H     H_    0.075643 0.382889 0.986611 0.147221
H3    H     H_    0.640304 0.848133 0.500632 0.143234
H4    H     H_    0.357403 0.157260 0.468129 0.144015
H5    H     H_    0.316519 0.760200 0.497099 0.149025
H6    H     H_    0.685443 0.237994 0.515902 0.142097
H7    H     H_    0.069183 0.852774 0.460749 0.145897
H8    H     H_    0.929886 0.149132 0.525278 0.146055
H9    H     H_    0.811962 0.973615 0.518429 0.122977
H10   H     H_    0.186158 0.029900 0.457605 0.124236
H11   H     H_    0.463429 0.800469 0.483004 0.136873
H12   H     H_    0.717910 0.446822 0.534717 0.138564
H13   H     H_    0.534274 0.205693 0.484400 0.143173
H14   H     H_    0.788794 0.382533 0.875431 0.245539
H15   H     H_    0.652513 0.400424 0.919198 0.226770
H16   H     H_    0.741405 0.486504 0.992031 0.238384
H17   H     H_    0.722265 0.353534 0.014683 0.221425
H18   H     H_    0.210869 0.616594 0.124377 0.245676
H19   H     H_    0.346754 0.598189 0.080125 0.226572
H20   H     H_    0.277034 0.645675 0.985020 0.221681
H21   H     H_    0.257421 0.512591 0.007184 0.238403
H22   H     H_    0.873694 0.853686 0.365161 0.134745
H23   H     H_    0.130804 0.314326 0.646163 0.150527
H24   H     H_    0.762903 0.850680 0.401743 0.149366
H25   H     H_    0.798013 0.919065 0.297774 0.196180
H26   H     H_    0.236425 0.149037 0.588668 0.153003
H27   H     H_    0.123953 0.144849 0.623238 0.134693
H28   H     H_    0.196894 0.076355 0.690213 0.195904
H29   H     H_    0.524852 0.785807 0.336168 0.240856
H30   H     H_    0.512998 0.782031 0.184438 0.221032
H31   H     H_    0.422239 0.665303 0.232254 0.198947
H32   H     H_    0.540447 0.669457 0.211254 0.246292
H33   H     H_    0.470462 0.208818 0.655381 0.241731
H34   H     H_    0.867705 0.683179 0.351288 0.149670
H35   H     H_    0.481541 0.207664 0.807956 0.220916
H36   H     H_    0.455286 0.320818 0.784245 0.246166
H37   H     H_    0.573388 0.325341 0.762671 0.198148
H38   H     H_    0.410189 0.633745 0.409012 0.128027
H39   H     H_    0.586072 0.361383 0.584698 0.127859
H40   H     H_    0.898010 0.327355 0.065443 0.147488
H41   H     H_    0.101350 0.671793 0.934559 0.147639
H42   H     H_    0.923678 0.616235 0.013366 0.147496
N1    N     N_R   0.795440 0.560790 0.443380 -0.205146
N2    N     N_R   0.204560 0.439210 0.556620 -0.205439
N3    N     N_2   0.804991 0.439232 0.911589 -0.426047
N4    N     N_2   0.194471 0.559863 0.088194 -0.426347
N5    N     N_2   0.551712 0.739260 0.318182 -0.378693
N6    N     N_2   0.444152 0.254852 0.674910 -0.378670
O1    O     O_R   0.977900 0.338120 0.529810 -0.592515
O2    O     O_3   0.262606 0.230117 0.690897 -0.553863
O3    O     O_R   0.022100 0.661880 0.470190 -0.591600
O4    O     O_R   0.839850 0.379180 0.491620 -0.587444
O5    O     O_R   0.160150 0.620820 0.508380 -0.589275
O6    O     O_R   0.069010 0.479460 0.640020 -0.570549
O7    O     O_R   0.930990 0.520540 0.359980 -0.570805
O8    O     O_R   0.930960 0.520530 0.601820 -0.575120
O9    O     O_R   0.069040 0.479470 0.398180 -0.574626
O10   O     O_3   0.733426 0.764497 0.302538 -0.553143

loop_
_geom_bond_atom_site_label_1
_geom_bond_atom_site_label_2
_ccdc_geom_bond_type
C28   H39   S    
C18   H12   S    
C21   C26   A    
H18   N4    S    
C23   C45   A    
C22   C29   A    
C27   C29   A    
Cu2   O3    S    
C5    C56   A    
C36   C42   T    
Cu1   O9    S    
C17   O7    A    
C15   H23   S    
C10   H4    S    
C25   C28   A    
Cu1   N2    S    
C16   O6    A    
C26   C27   A    
C33   C39   S    
C9    H3    S    
C48   H21   S    
C19   C21   A    
C2    C55   A    
C51   H32   S    
C5    C6    A    
C19   N2    A    
C31   H40   S    
Cu1   O6    S    
C20   C25   A    
C48   H20   S    
C48   N4    S    
C52   H37   S    
C32   C39   S    
C23   H9    S    
C49   H24   S    
C50   H27   S    
C3    C23   A    
C55   H5    S    
C46   C55   A    
Cu2   O7    S    
C31   C33   S    
C52   H36   S    
C53   H7    S    
C40   C42   S    
C52   N6    S    
C33   N3    S    
C30   N6    S    
C50   O2    S    
C41   C43   S    
H33   N6    S    
C29   N5    S    
C27   H38   S    
C2    C6    A    
C13   O2    S    
C12   O3    A    
C54   C56   A    
C4    C34   A    
C33   C40   S    
C47   N3    S    
C50   H26   S    
C32   C35   S    
C35   C38   S    
C47   H15   S    
C39   C41   S    
C35   N4    S    
C34   H10   S    
C14   N1    A    
C19   H1    S    
C25   C26   A    
C13   C24   A    
C18   N1    A    
C48   H19   S    
C37   C43   T    
C2    C4    A    
C3    C9    A    
C1    O4    A    
C3    C56   A    
C1    C44   S    
H29   N5    S    
C51   N5    S    
C52   H35   S    
Cu2   N1    S    
C17   C37   S    
C11   O10   S    
C14   H34   S    
C1    O1    A    
C38   H2    S    
C12   C46   S    
Cu1   O1    S    
C20   C22   A    
C13   C15   A    
C4    C10   A    
C44   C45   A    
C17   O9    A    
C7    C9    A    
C8    H13   S    
C31   C41   S    
Cu2   O4    S    
C47   H16   S    
C16   O8    A    
C51   H30   S    
C7    H11   S    
C5    C8    A    
C31   C38   S    
C6    C7    A    
H14   N3    S    
C11   C22   A    
C32   H41   S    
C49   H25   S    
C28   C30   A    
C47   H17   S    
C16   C36   S    
C38   C40   S    
C39   H42   S    
Cu1   O5    S    
C54   H6    S    
C46   C53   A    
C11   C14   A    
C18   C20   A    
C32   C40   S    
C15   N2    A    
C35   C41   S    
C24   C30   A    
C50   H28   S    
C44   C54   A    
C49   O10   S    
C34   C53   A    
C8    C10   A    
C21   C24   A    
C45   H8    S    
Cu2   O8    S    
C49   H22   S    
Cu1   Cu2   S    
C12   O5    A    
C51   H31   S    
