data_mof_unit_20082.cif
_audit_creation_date              2012-12-11T17:06:29-0500
_audit_creation_method            fapswitch 2.2
_symmetry_space_group_name_H-M    P1
_symmetry_Int_Tables_number       1
_space_group_crystal_system       triclinic
_cell_length_a                    6.96324
_cell_length_b                    14.581993
_cell_length_c                    15.905077
_cell_angle_alpha                 90.459605
_cell_angle_beta                  89.957795
_cell_angle_gamma                 90.013151
_cell_volume                      1614.91595038

loop_
_atom_site_label
_atom_site_type_symbol
_atom_type_description
_atom_site_fract_x
_atom_site_fract_y
_atom_site_fract_z
_atom_type_partial_charge
O1    O     O_R   0.494400 0.415450 0.412630 -0.536323
O2    O     O_R   0.823940 0.405730 0.586760 -0.543980
O3    O     O_R   0.994240 0.584550 0.587370 -0.539614
C1    C     C_R   0.655218 0.384386 0.615947 0.698349
O4    O     O_R   0.824110 0.404430 0.413240 -0.542370
O5    O     O_R   0.994420 0.583240 0.412620 -0.540304
C2    C     C_R   0.655387 0.382113 0.384356 0.706249
O6    O     O_R   0.494230 0.416760 0.587380 -0.537348
O7    O     O_3   0.660800 0.558670 0.500000 -0.370849
V1    V     V_3+5 0.935650 0.489120 0.500000 1.387980
O8    O     O_R   0.324140 0.594270 0.413240 -0.539431
C3    C     C_R   0.155127 0.616349 0.384492 0.693322
O9    O     O_R   0.323960 0.595570 0.586760 -0.541547
C4    C     C_R   0.155150 0.616357 0.616448 0.685059
V2    V     V_3+5 0.435660 0.510880 0.500000 1.394564
O10   O     O_3   0.160640 0.441330 0.500000 -0.370589
C5    C     C_3   0.955601 0.725912 0.721757 -0.153849
C6    C     C_3   0.031929 0.713169 0.812574 -0.160877
H1    H     H_    0.947713 0.685272 0.865854 0.106246
H2    H     H_    0.808324 0.708792 0.699931 0.113502
C7    C     C_3   0.122674 0.809603 0.809513 -0.020285
C8    C     C_3   0.048238 0.821958 0.719407 0.122349
C9    C     C_3   0.235884 0.780874 0.683544 -0.153293
C10   C     C_3   0.311483 0.768335 0.774522 -0.140972
C11   C     C_3   0.220429 0.671342 0.776913 -0.138545
C12   C     C_3   0.144170 0.685185 0.686979 -0.021790
H3    H     H_    0.320810 0.807528 0.629926 0.099332
H4    H     H_    0.458724 0.785772 0.796151 0.114650
H5    H     H_    0.292056 0.608447 0.800141 0.100384
C13   C     C_R   0.274978 0.750751 0.187135 0.092347
C14   C     C_R   0.118436 0.810337 0.179034 -0.105636
C15   C     C_R   0.965963 0.800019 0.236446 -0.163327
H6    H     H_    0.842731 0.844768 0.232985 0.133343
C16   C     C_R   0.977472 0.736595 0.302747 -0.178409
H7    H     H_    0.861658 0.733553 0.347937 0.130198
C17   C     C_R   0.142462 0.682097 0.313989 -0.108784
C18   C     C_R   0.286793 0.688313 0.252941 0.098243
C19   C     C_3   0.496284 0.704979 0.263979 -0.413600
C20   C     C_3   0.483493 0.772605 0.192042 -0.392780
H8    H     H_    0.583457 0.643239 0.248546 0.169737
H9    H     H_    0.528866 0.738136 0.325498 0.173546
H10   H     H_    0.562656 0.749809 0.134871 0.169559
H11   H     H_    0.509411 0.844897 0.211693 0.177689
C21   C     C_R   0.491043 0.316487 0.742077 0.100023
C22   C     C_R   0.648036 0.319723 0.687156 -0.110107
C23   C     C_R   0.803279 0.261105 0.704099 -0.185388
H12   H     H_    0.927959 0.261651 0.663891 0.143360
C24   C     C_R   0.792666 0.196065 0.768799 -0.187568
H13   H     H_    0.910761 0.149276 0.777383 0.145237
C25   C     C_R   0.625343 0.186571 0.817528 -0.109484
C26   C     C_R   0.479609 0.251281 0.805518 0.105356
C27   C     C_3   0.270785 0.236797 0.791021 -0.418510
C28   C     C_3   0.283121 0.308223 0.722241 -0.402112
H14   H     H_    0.182595 0.259130 0.845744 0.174821
H15   H     H_    0.240560 0.166737 0.766696 0.168500
H16   H     H_    0.202900 0.372199 0.737286 0.166710
H17   H     H_    0.258813 0.279737 0.658077 0.170684
C29   C     C_R   0.498872 0.246849 0.312390 0.040082
C30   C     C_R   0.647866 0.311267 0.317152 -0.102773
C31   C     C_R   0.796193 0.303580 0.257086 -0.184887
H18   H     H_    0.916398 0.350525 0.258939 0.122131
C32   C     C_R   0.784001 0.239464 0.190375 -0.203336
H19   H     H_    0.895774 0.238520 0.143088 0.130406
C33   C     C_R   0.623714 0.180920 0.182109 -0.166233
C34   C     C_R   0.487698 0.183130 0.246959 0.155157
C35   C     C_3   0.274285 0.188952 0.243927 0.177996
C36   C     C_3   0.286335 0.258838 0.315669 -0.432116
H20   H     H_    0.219153 0.215915 0.183346 0.080017
H21   H     H_    0.224287 0.234472 0.375937 0.191251
H22   H     H_    0.242115 0.328988 0.297041 0.139429
O11   O     O_R   0.771650 0.079500 0.908680 -0.542193
O12   O     O_R   0.441690 0.091800 0.082800 -0.534679
O13   O     O_R   0.271460 0.912980 0.083410 -0.531490
C37   C     C_R   0.610703 0.114157 0.111650 0.713278
O14   O     O_R   0.441930 0.090510 0.909280 -0.542992
O15   O     O_R   0.271690 0.911670 0.908660 -0.541832
C38   C     C_R   0.611169 0.113610 0.881515 0.687694
O16   O     O_R   0.771410 0.080810 0.083440 -0.537211
O17   O     O_3   0.605100 0.937580 0.996050 -0.372086
V3    V     V_3+5 0.330220 0.007110 0.996030 1.412722
O18   O     O_R   0.941980 0.900620 0.909250 -0.543070
C39   C     C_R   0.110998 0.879173 0.879891 0.671536
O19   O     O_R   0.941740 0.901920 0.082770 -0.545442
C40   C     C_R   0.110443 0.880235 0.111852 0.721878
V4    V     V_3+5 0.830220 0.985300 0.996000 1.394816
O20   O     O_3   0.105210 0.054870 0.996020 -0.370379
O21   O     O_3   0.190797 0.106052 0.268758 -0.633782
H23   H     H_    0.050068 0.116248 0.267475 0.301501
C41   C     C_3   0.946977 0.904422 0.681026 -0.384981
C42   C     C_3   0.081740 0.987148 0.674099 -0.304569
C43   C     C_3   0.001712 0.057937 0.613325 -0.773023
H24   H     H_    0.001197 0.029645 0.548271 0.234681
H25   H     H_    0.852591 0.076934 0.630875 0.237372
H26   H     H_    0.093517 0.120159 0.614566 0.210312
H27   H     H_    0.100824 0.018499 0.737353 0.172583
H28   H     H_    0.225393 0.965866 0.650688 0.194458
H29   H     H_    0.895816 0.883765 0.617434 0.180481
H30   H     H_    0.819902 0.922786 0.719987 0.163631

loop_
_geom_bond_atom_site_label_1
_geom_bond_atom_site_label_2
_ccdc_geom_bond_type
C35   H20   S    
O21   H23   S    
C6    C7    S    
O11   C38   A    
C1    O6    A    
O18   C39   A    
C42   H27   S    
V4    O20   S    
C27   C28   S    
C32   H19   S    
C5    C12   S    
C17   C18   A    
C16   H7    S    
O5    C3    A    
C19   C20   S    
V2    O10   S    
C5    H2    S    
C31   C32   A    
C6    H1    S    
C9    C12   S    
V3    O20   S    
O11   V4    S    
O8    V2    S    
C21   C28   S    
C8    C41   S    
O19   C40   A    
C32   C33   A    
C9    C10   S    
O1    V2    S    
C9    H3    S    
C3    C17   S    
O14   V3    S    
O13   C40   A    
C27   H15   S    
C24   C25   A    
C35   C36   S    
C30   C31   A    
O9    C4    A    
C6    C11   S    
C2    C30   S    
C27   H14   S    
C25   C26   A    
C20   H10   S    
C1    C22   S    
C11   H5    S    
C23   C24   A    
C26   C27   S    
C10   H4    S    
C10   C11   S    
C19   H9    S    
O12   C37   A    
O15   C39   A    
C43   H24   S    
O4    C2    A    
C28   H17   S    
C20   H11   S    
C29   C30   A    
C22   C23   A    
C14   C40   S    
C13   C18   A    
C41   H29   S    
C31   H18   S    
C36   H21   S    
C15   C16   A    
O2    C1    A    
C18   C19   S    
C43   H25   S    
C29   C34   A    
C14   C15   A    
C5    C6    S    
C4    C12   S    
O14   C38   A    
O3    C4    A    
O16   V4    S    
C24   H13   S    
O19   V4    S    
O6    V2    S    
O9    V2    S    
O2    V1    S    
C25   C38   S    
O17   V4    S    
C21   C22   A    
C21   C26   A    
O7    V1    S    
C28   H16   S    
C23   H12   S    
O1    C2    A    
O15   V3    S    
O5    V1    S    
O8    C3    A    
C42   H28   S    
C5    C8    S    
C41   H30   S    
C36   H22   S    
C15   H6    S    
C11   C12   S    
O4    V1    S    
O12   V3    S    
O3    V1    S    
V1    O10   S    
C33   C34   A    
C43   H26   S    
C19   H8    S    
C42   C43   S    
C13   C14   A    
C35   O21   S    
O13   V3    S    
C13   C20   S    
C16   C17   A    
O7    V2    S    
O17   V3    S    
C29   C36   S    
C7    C39   S    
C34   C35   S    
C37   O16   A    
C7    C10   S    
C33   C37   S    
C8    C9    S    
C41   C42   S    
C7    C8    S    
O18   V4    S    
