data_mof_unit_15915.cif
_audit_creation_date              2013-03-05T15:47:26-0500
_audit_creation_method            fapswitch 2.2
_symmetry_space_group_name_H-M    P1
_symmetry_Int_Tables_number       1
_space_group_crystal_system       triclinic
_cell_length_a                    18.442101
_cell_length_b                    18.338998
_cell_length_c                    11.668106
_cell_angle_alpha                 89.992178
_cell_angle_beta                  76.134824
_cell_angle_gamma                 89.995623
_cell_volume                      3831.28097328

loop_
_atom_site_label
_atom_site_type_symbol
_atom_site_description
_atom_site_fract_x
_atom_site_fract_y
_atom_site_fract_z
_atom_type_partial_charge
O1    O     O_R   0.430030 0.075530 0.417420 -0.529372
O2    O     O_R   0.569970 0.924470 0.582580 -0.529328
O3    O     O_R   0.569970 0.075530 0.582580 -0.529035
O4    O     O_R   0.430030 0.924470 0.417420 -0.529143
O5    O     O_R   0.930030 0.575530 0.417420 -0.529401
O6    O     O_R   0.069970 0.424470 0.582580 -0.529419
O7    O     O_R   0.069970 0.575530 0.582580 -0.529071
O8    O     O_R   0.930030 0.424470 0.417420 -0.528977
O9    O     O_R   0.416860 0.075510 0.614610 -0.585315
O10   O     O_R   0.583140 0.924490 0.385390 -0.585359
O11   O     O_R   0.583140 0.075510 0.385390 -0.585272
O12   O     O_R   0.416860 0.924490 0.614610 -0.585328
O13   O     O_R   0.916860 0.575510 0.614610 -0.585353
O14   O     O_R   0.083140 0.424490 0.385390 -0.585323
O15   O     O_R   0.083140 0.575510 0.385390 -0.585296
O16   O     O_R   0.916860 0.424490 0.614610 -0.585251
C1    C     C_R   0.400498 0.101101 0.521104 0.944064
C2    C     C_R   0.599505 0.898901 0.478893 0.944120
C3    C     C_R   0.599523 0.101087 0.478876 0.943985
C4    C     C_R   0.400484 0.898907 0.521120 0.944223
C5    C     C_R   0.900497 0.601100 0.521105 0.944053
C6    C     C_R   0.099501 0.398899 0.478897 0.944021
C7    C     C_R   0.099522 0.601090 0.478876 0.944169
C8    C     C_R   0.900475 0.398913 0.521125 0.943977
C9    C     C_R   0.410922 0.999953 0.866250 0.051469
C10   C     C_R   0.589078 0.000049 0.133751 0.051740
C11   C     C_R   0.910922 0.499949 0.866249 0.051749
C12   C     C_R   0.089078 0.500049 0.133751 0.051554
Cu1   Cu    Cu3+1 0.507800 0.000000 0.383250 1.098181
Cu2   Cu    Cu3+1 0.492200 0.000000 0.616750 1.098177
Cu3   Cu    Cu3+1 0.007800 0.500000 0.383250 1.098182
Cu4   Cu    Cu3+1 0.992200 0.500000 0.616750 1.098181
C13   C     C_R   0.401397 0.999940 0.989639 0.636974
C14   C     C_R   0.598603 0.000063 0.010361 0.637118
C15   C     C_R   0.901397 0.499935 0.989639 0.637119
C16   C     C_R   0.098603 0.500062 0.010361 0.636973
H1    H     H_    0.637675 0.000080 0.170429 0.172539
H2    H     H_    0.362325 0.999924 0.829571 0.172533
H3    H     H_    0.137675 0.500080 0.170429 0.172538
H4    H     H_    0.862325 0.499916 0.829571 0.172542
C17   C     C_R   0.542447 0.000034 0.837726 0.171899
C18   C     C_R   0.457553 0.999966 0.162274 0.171713
C19   C     C_R   0.042447 0.500035 0.837726 0.171718
C20   C     C_R   0.957553 0.499965 0.162274 0.171896
C21   C     C_R   0.651973 0.161465 0.468205 -0.304168
C22   C     C_R   0.348060 0.838510 0.531770 -0.304175
C23   C     C_R   0.348097 0.161512 0.531717 -0.304318
C24   C     C_R   0.651915 0.838495 0.468269 -0.304185
C25   C     C_R   0.151977 0.661465 0.468203 -0.304137
C26   C     C_R   0.848014 0.338542 0.531803 -0.304149
C27   C     C_R   0.848099 0.661512 0.531719 -0.304268
C28   C     C_R   0.151897 0.338486 0.468289 -0.304362
C29   C     C_R   0.296507 0.724604 0.621216 0.302612
C30   C     C_R   0.703734 0.275220 0.378438 0.302660
C31   C     C_R   0.703242 0.724433 0.379186 0.302600
C32   C     C_R   0.296811 0.275602 0.620739 0.302592
C33   C     C_R   0.796202 0.224819 0.621647 0.302660
C34   C     C_R   0.203629 0.775307 0.378623 0.302656
C35   C     C_R   0.203155 0.224378 0.379312 0.302591
C36   C     C_R   0.796817 0.775603 0.620736 0.302592
C37   C     C_R   0.347244 0.782174 0.613903 0.161035
C38   C     C_R   0.652945 0.217692 0.385831 0.161025
C39   C     C_R   0.652542 0.782039 0.386440 0.161019
C40   C     C_R   0.347508 0.217994 0.613486 0.160898
C41   C     C_R   0.846998 0.282344 0.614244 0.161043
C42   C     C_R   0.152877 0.717750 0.385951 0.161050
C43   C     C_R   0.152459 0.281986 0.386561 0.160869
C44   C     C_R   0.847514 0.717995 0.613485 0.160963
C45   C     C_R   0.299166 0.837551 0.457099 0.636550
C46   C     C_R   0.700763 0.162501 0.543044 0.636753
C47   C     C_R   0.700991 0.837662 0.542640 0.636055
C48   C     C_R   0.299000 0.162331 0.457381 0.636107
C49   C     C_R   0.799240 0.337497 0.456937 0.636728
C50   C     C_R   0.200852 0.662433 0.542906 0.636511
C51   C     C_R   0.201006 0.337675 0.542608 0.636124
C52   C     C_R   0.799008 0.662337 0.457372 0.636089
C53   C     C_R   0.250910 0.778421 0.458127 -0.223542
C54   C     C_R   0.749037 0.221618 0.541973 -0.223553
C55   C     C_R   0.749272 0.778544 0.541618 -0.223526
C56   C     C_R   0.250723 0.221452 0.458396 -0.223551
C57   C     C_R   0.750929 0.278403 0.458067 -0.223615
C58   C     C_R   0.249168 0.721525 0.541796 -0.223592
C59   C     C_R   0.249262 0.278540 0.541626 -0.223514
C60   C     C_R   0.750758 0.721474 0.458348 -0.223489
N1    N     N_R   0.519530 0.000000 0.207810 -0.255519
N2    N     N_R   0.480470 0.000000 0.792190 -0.255520
N3    N     N_R   0.019530 0.500000 0.207810 -0.255521
N4    N     N_R   0.980470 0.500000 0.792190 -0.255518
H5    H     H_    0.402863 0.999934 0.222497 0.248636
H6    H     H_    0.597136 0.000065 0.777504 0.248664
H7    H     H_    0.902863 0.499934 0.222496 0.248668
H8    H     H_    0.097136 0.500067 0.777503 0.248647
C61   C     C_R   0.535807 0.000025 0.961509 -0.183647
C62   C     C_R   0.464193 0.999977 0.038491 -0.183624
C63   C     C_R   0.035807 0.500024 0.961509 -0.183645
C64   C     C_R   0.964193 0.499974 0.038491 -0.183649
F1    F     F_    0.702261 0.103754 0.613609 -0.574103
F2    F     F_    0.297567 0.896372 0.386730 -0.574063
F3    F     F_    0.297263 0.103402 0.387323 -0.574159
F4    F     F_    0.702707 0.896579 0.612736 -0.574262
F5    F     F_    0.202352 0.603666 0.613426 -0.574089
F6    F     F_    0.797811 0.396203 0.386257 -0.574110
F7    F     F_    0.797237 0.603389 0.387366 -0.574251
F8    F     F_    0.202782 0.396628 0.612601 -0.574156
N5    N     N_R   0.601710 0.217348 0.310503 0.172012
O17   O     O_R   0.626521 0.219692 0.196364 -0.239656
O18   O     O_R   0.530057 0.218626 0.356107 -0.302934
N6    N     N_R   0.398608 0.782431 0.689024 0.171949
O19   O     O_R   0.373950 0.779697 0.803168 -0.239564
O20   O     O_R   0.470239 0.781389 0.643193 -0.303318
N7    N     N_R   0.399065 0.217835 0.688288 0.172004
O21   O     O_R   0.374625 0.220790 0.802454 -0.239639
O22   O     O_R   0.470658 0.218719 0.642123 -0.303876
N8    N     N_R   0.601034 0.782227 0.311558 0.172008
O23   O     O_R   0.625531 0.779331 0.197398 -0.239719
O24   O     O_R   0.529431 0.781312 0.357637 -0.303681
N9    N     N_R   0.101608 0.717432 0.310677 0.172005
O25   O     O_R   0.126380 0.719919 0.196539 -0.239759
O26   O     O_R   0.029961 0.718618 0.356339 -0.303025
N10   N     N_R   0.898182 0.282725 0.689654 0.172061
O27   O     O_R   0.873310 0.280518 0.803790 -0.239758
O28   O     O_R   0.969843 0.281377 0.644140 -0.302768
N11   N     N_R   0.899076 0.717844 0.688278 0.171972
O29   O     O_R   0.874645 0.720853 0.802442 -0.239619
O30   O     O_R   0.970669 0.718700 0.642103 -0.303899
N12   N     N_R   0.100865 0.282116 0.311819 0.171973
O31   O     O_R   0.125261 0.279070 0.197652 -0.239568
O32   O     O_R   0.029279 0.281278 0.358049 -0.304015
N13   N     N_R   0.793617 0.169843 0.709973 0.230215
O33   O     O_R   0.851274 0.128197 0.706081 -0.185542
O34   O     O_R   0.737430 0.167580 0.801899 -0.196365
N14   N     N_R   0.206031 0.830426 0.290574 0.230257
O35   O     O_R   0.148353 0.872126 0.294989 -0.185626
O36   O     O_R   0.262062 0.832792 0.198426 -0.196296
N15   N     N_R   0.205144 0.168972 0.291876 0.230243
O37   O     O_R   0.147400 0.127194 0.297380 -0.186049
O38   O     O_R   0.260809 0.166393 0.199210 -0.195972
N16   N     N_R   0.794803 0.830990 0.708211 0.230225
O39   O     O_R   0.852551 0.872751 0.702799 -0.186095
O40   O     O_R   0.739109 0.833564 0.800836 -0.195969
N17   N     N_R   0.294248 0.669389 0.709062 0.230283
O41   O     O_R   0.351887 0.627546 0.704119 -0.185738
O42   O     O_R   0.238433 0.667055 0.801532 -0.195888
N18   N     N_R   0.706237 0.330251 0.290228 0.230251
O43   O     O_R   0.648639 0.372045 0.294530 -0.185608
O44   O     O_R   0.762257 0.332436 0.198047 -0.196158
N19   N     N_R   0.705330 0.669096 0.291606 0.230201
O45   O     O_R   0.647547 0.627433 0.296703 -0.185997
O46   O     O_R   0.761153 0.666481 0.199174 -0.196174
N20   N     N_R   0.294772 0.330972 0.708251 0.230226
O47   O     O_R   0.352552 0.372661 0.702997 -0.185977
O48   O     O_R   0.239004 0.333591 0.800763 -0.196109
F9    F     F_    0.331257 0.999891 0.060393 -0.550309
F10   F     F_    0.668743 0.000114 0.939607 -0.550249
F11   F     F_    0.831257 0.499881 0.060393 -0.550247
F12   F     F_    0.168743 0.500114 0.939607 -0.550297

loop_
_geom_bond_atom_site_label_1
_geom_bond_atom_site_label_2
_geom_bond_distance
_ccdc_geom_bond_type
O6    Cu4   1.964796 S    
C36   C55   1.418414 A    
C61   C62   1.408033 A    
C25   C50   1.396090 A    
C46   C54   1.401051 A    
C45   C53   1.401098 A    
O13   Cu4   1.965977 S    
C30   N18   1.434209 S    
N19   O45   1.301024 A    
C54   C57   1.423911 A    
C14   C61   1.408002 A    
O14   Cu3   1.965977 S    
C28   C51   1.396003 A    
C13   C62   1.408002 A    
C52   C60   1.401113 A    
C47   C55   1.401117 A    
N8    O23   1.301092 A    
N11   O29   1.301094 A    
C38   N5    1.436453 S    
C15   C64   1.408002 A    
C17   N2    1.371052 A    
N5    O18   1.301095 A    
O11   C3    1.288136 A    
N12   O31   1.301092 A    
C19   N4    1.371049 A    
C33   N13   1.434251 S    
N19   O46   1.301240 A    
C15   F11   1.357561 S    
N9    O26   1.301091 A    
C55   C60   1.423956 A    
C13   F9    1.357562 S    
N11   O30   1.301088 A    
O2    C2    1.290172 A    
O6    C6    1.290131 A    
C21   C38   1.406717 A    
N6    O19   1.301097 A    
C37   N6    1.436502 S    
C22   C45   1.396073 A    
C34   C53   1.418388 A    
C35   C43   1.399786 A    
C39   N8    1.436506 S    
C29   C37   1.399777 A    
C34   C42   1.399757 A    
C17   C61   1.419946 A    
C63   C64   1.408032 A    
C34   N14   1.434255 S    
N14   O35   1.300987 A    
C42   N9    1.436469 S    
C31   C39   1.399790 A    
C19   C63   1.419947 A    
C32   C40   1.399796 A    
O3    C3    1.290234 A    
Cu2   N2    2.006237 S    
C20   N3    1.371052 A    
Cu1   N1    2.006236 S    
O4    Cu1   1.964874 S    
C46   F1    1.360154 S    
C45   F2    1.360169 S    
C52   F7    1.360144 S    
O15   C7    1.288140 A    
C17   H6    1.082287 S    
C36   C44   1.399778 A    
O16   C8    1.288139 A    
C10   C14   1.407997 A    
C50   C58   1.401114 A    
C56   C59   1.423951 A    
C44   N11   1.436516 S    
C49   C57   1.401053 A    
N10   O28   1.301093 A    
C14   F10   1.357561 S    
C8    C26   1.455909 S    
Cu3   N3    2.006236 S    
C25   C42   1.406725 A    
C22   C37   1.406718 A    
N15   O37   1.300979 A    
C27   C52   1.395993 A    
N18   O44   1.301242 A    
C26   C49   1.396111 A    
C23   C40   1.406639 A    
C40   N7    1.436503 S    
C30   C38   1.399719 A    
C12   H3    1.081760 S    
C11   C15   1.407996 A    
C29   C58   1.418399 A    
O3    Cu2   1.964873 S    
Cu1   Cu2   2.670208 S    
C20   C64   1.419946 A    
C9    H2    1.081759 S    
C31   N19   1.434228 S    
Cu3   Cu4   2.670208 S    
C11   H4    1.081760 S    
O12   C4    1.288147 A    
C12   N3    1.364049 A    
O1    Cu1   1.964795 S    
O13   C5    1.288121 A    
N7    O22   1.301084 A    
C18   N1    1.371051 A    
C28   C43   1.406633 A    
O11   Cu1   1.966130 S    
C20   H7    1.082289 S    
N16   O40   1.301229 A    
O9    Cu2   1.965977 S    
C50   F5    1.360136 S    
O9    C1    1.288132 A    
C49   F6    1.360169 S    
C51   F8    1.360144 S    
N20   O48   1.301224 A    
C43   N12   1.436519 S    
C24   C47   1.396002 A    
C32   N20   1.434231 S    
C5    C27   1.455715 S    
N10   O27   1.301075 A    
C16   F12   1.357561 S    
C32   C59   1.418420 A    
C6    C28   1.455707 S    
N13   O33   1.301050 A    
C47   F4    1.360140 S    
N15   O38   1.301227 A    
N12   O32   1.301084 A    
O7    Cu4   1.964873 S    
N7    O21   1.301091 A    
O12   Cu2   1.966133 S    
C21   C46   1.396095 A    
C18   C62   1.419946 A    
O8    Cu3   1.964874 S    
C33   C54   1.418401 A    
C1    C23   1.455724 S    
C33   C41   1.399744 A    
N18   O43   1.301008 A    
C24   C39   1.406660 A    
C2    C24   1.455745 S    
C35   C56   1.418409 A    
N8    O24   1.301083 A    
C3    C21   1.455877 S    
C10   H1    1.081760 S    
O15   Cu3   1.966130 S    
O16   Cu4   1.966133 S    
N5    O17   1.301075 A    
O1    C1    1.290143 A    
C19   H8    1.082289 S    
O2    Cu2   1.964796 S    
C18   H5    1.082290 S    
O14   C6    1.288135 A    
N17   O42   1.301231 A    
C48   C56   1.401123 A    
N17   O41   1.301004 A    
C16   C63   1.408002 A    
C51   C59   1.401128 A    
C53   C58   1.423909 A    
O10   C2    1.288119 A    
C10   N1    1.364051 A    
O7    C7    1.290241 A    
C35   N15   1.434206 S    
C9    N2    1.364051 A    
O8    C8    1.290246 A    
C41   N10   1.436440 S    
N6    O20   1.301092 A    
C29   N17   1.434209 S    
C27   C44   1.406646 A    
C11   N4    1.364051 A    
C26   C41   1.406736 A    
C23   C48   1.395994 A    
C7    C25   1.455917 S    
N16   O39   1.301010 A    
O4    C4    1.290204 A    
O10   Cu1   1.965977 S    
O5    C5    1.290151 A    
C12   C16   1.407997 A    
N14   O36   1.301228 A    
C9    C13   1.407997 A    
N20   O47   1.300986 A    
N13   O34   1.301245 A    
C31   C60   1.418419 A    
N9    O25   1.301084 A    
C30   C57   1.418393 A    
C4    C22   1.455867 S    
C36   N16   1.434212 S    
O5    Cu3   1.964795 S    
C48   F3    1.360134 S    
Cu4   N4    2.006237 S    
