data_mof_unit_31323.cif
_audit_creation_date              2012-12-10T17:01:38-0500
_audit_creation_method            fapswitch 2.2
_symmetry_space_group_name_H-M    P1
_symmetry_Int_Tables_number       1
_space_group_crystal_system       triclinic
_cell_length_a                    9.824746
_cell_length_b                    10.943169
_cell_length_c                    13.000541
_cell_angle_alpha                 90.202764
_cell_angle_beta                  75.663088
_cell_angle_gamma                 111.274966
_cell_volume                      1256.13853391

loop_
_atom_site_label
_atom_site_type_symbol
_atom_type_description
_atom_site_fract_x
_atom_site_fract_y
_atom_site_fract_z
_atom_type_partial_charge
C1    C     C_R   0.438519 0.252548 0.510243 0.817273
C2    C     C_R   0.561695 0.747503 0.489885 0.833200
C3    C     C_2   0.083155 0.511821 0.491560 -0.082097
C4    C     C_2   0.916871 0.488463 0.508662 -0.086557
C5    C     C_R   0.473273 0.495355 0.702743 0.818563
C6    C     C_R   0.527222 0.506693 0.297208 0.812329
C7    C     C_R   0.544119 0.516336 0.182798 -0.102495
C8    C     C_R   0.457265 0.491278 0.817094 -0.101725
C9    C     C_R   0.294741 0.435484 0.998446 0.155606
C10   C     C_R   0.706652 0.580318 0.001643 0.155632
C11   C     C_R   0.313180 0.442207 0.888180 -0.185705
C12   C     C_R   0.688209 0.569173 0.111936 -0.188285
C13   C     C_R   0.586134 0.536227 0.854421 -0.288128
C14   C     C_R   0.415447 0.474801 0.145347 -0.285629
C15   C     C_R   0.574425 0.532994 0.963634 0.085670
C16   C     C_R   0.427137 0.480996 0.036244 0.086047
C17   C     C_2   0.401691 0.110040 0.522776 -0.064355
C18   C     C_2   0.597508 0.890191 0.484794 -0.066451
C19   C     C_2   0.508531 0.068787 0.539271 -0.203257
C20   C     C_2   0.490322 0.930318 0.542671 -0.213947
Cu1   Cu    Cu3+1 0.647370 0.522180 0.481340 0.917210
Cu2   Cu    Cu3+1 0.352630 0.477820 0.518660 0.923860
H1    H     H_    0.306073 0.436087 0.202857 0.157742
H2    H     H_    0.695548 0.573718 0.796818 0.158086
H3    H     H_    0.785427 0.602556 0.144215 0.170966
H4    H     H_    0.215790 0.407956 0.856128 0.171752
H5    H     H_    0.383246 0.859077 0.590005 0.174292
H6    H     H_    0.617791 0.139745 0.543410 0.161560
H7    H     H_    0.834274 0.412621 0.569903 0.158719
H8    H     H_    0.165752 0.587822 0.430436 0.160058
H9    H     H_    0.949914 0.627857 0.396460 0.182728
H10   H     H_    0.050067 0.372180 0.603553 0.186222
N1    N     N_2   0.131210 0.444490 0.546730 -0.284442
N2    N     N_2   0.868790 0.555510 0.453270 -0.288667
O1    O     O_R   0.578710 0.332530 0.490040 -0.581376
O2    O     O_R   0.421290 0.667470 0.509960 -0.584856
O3    O     O_R   0.329810 0.295070 0.521560 -0.573774
O4    O     O_R   0.670190 0.704930 0.478440 -0.580941
O5    O     O_R   0.604230 0.515670 0.637800 -0.579059
O6    O     O_R   0.395770 0.484330 0.362200 -0.580621
O7    O     O_R   0.355330 0.478200 0.669330 -0.583441
O8    O     O_R   0.644670 0.521800 0.330670 -0.582916
C21   C     C_3   0.136708 0.380408 0.076122 -0.417092
C22   C     C_3   0.002353 0.327384 0.027038 -0.867038
H11   H     H_    0.997779 0.406437 0.976356 0.256574
H12   H     H_    0.009739 0.244428 0.979434 0.250775
H13   H     H_    0.895354 0.290015 0.091816 0.249450
H14   H     H_    0.130344 0.297674 0.128617 0.208881
H15   H     H_    0.120713 0.458939 0.126534 0.202362
C23   C     C_3   0.864430 0.641918 0.924257 -0.412718
C24   C     C_3   0.997324 0.701279 0.974038 -0.862229
H16   H     H_    0.981802 0.779974 0.024334 0.251497
H17   H     H_    0.009394 0.624201 0.022243 0.254494
H18   H     H_    0.103884 0.745869 0.909613 0.247442
H19   H     H_    0.886459 0.565964 0.873084 0.201398
H20   H     H_    0.865803 0.723056 0.872365 0.203350
C25   C     C_3   0.745633 0.989804 0.413652 -0.408889
C26   C     C_3   0.844824 0.931281 0.334552 -0.327191
C27   C     C_3   0.970978 0.038186 0.253359 -0.894699
H21   H     H_    0.921868 0.085026 0.204455 0.263316
H22   H     H_    0.042638 0.114381 0.294533 0.255788
H23   H     H_    0.043275 0.993774 0.199462 0.245008
H24   H     H_    0.898821 0.883046 0.378017 0.236024
H25   H     H_    0.774641 0.857652 0.290754 0.218660
H26   H     H_    0.716164 0.056069 0.365971 0.222396
H27   H     H_    0.813537 0.050943 0.465195 0.194005
C28   C     C_3   0.248206 0.015703 0.513420 -0.384198
C29   C     C_3   0.133863 0.971145 0.623298 -0.349407
C30   C     C_3   0.980535 0.874643 0.614210 -0.826659
H28   H     H_    0.933243 0.921999 0.564269 0.254704
H29   H     H_    0.992311 0.785530 0.578336 0.258758
H30   H     H_    0.900162 0.844003 0.694703 0.232781
H31   H     H_    0.176463 0.922592 0.676072 0.218380
H32   H     H_    0.118487 0.058327 0.660864 0.224222
H33   H     H_    0.204249 0.065179 0.462223 0.198477
H34   H     H_    0.258992 0.928923 0.472630 0.202588

loop_
_geom_bond_atom_site_label_1
_geom_bond_atom_site_label_2
_ccdc_geom_bond_type
C14   H1    S    
C30   H30   S    
C21   C22   S    
C24   H16   S    
C8    C13   A    
Cu1   O1    S    
C20   H5    S    
C5    C8    S    
Cu2   O2    S    
C21   H14   S    
C2    O4    A    
C18   C25   S    
C1    C17   S    
C19   C20   S    
Cu1   O5    S    
C22   H13   S    
C1    O3    A    
C25   H27   S    
C24   H18   S    
Cu2   O6    S    
H10   N1    S    
C13   C15   A    
C23   C24   S    
C29   H31   S    
H9    N2    S    
C27   H21   S    
Cu1   Cu2   S    
C19   H6    S    
C9    C11   A    
C25   C26   S    
C6    C7    S    
C10   C12   A    
C8    C11   A    
C28   H34   S    
C3    H8    S    
C17   C28   S    
C17   C19   D    
C9    C16   A    
C22   H12   S    
C18   C20   D    
C10   C15   A    
C5    O5    A    
C14   C16   A    
C26   H25   S    
C30   H28   S    
C4    N2    D    
C7    C12   A    
C9    C21   S    
Cu2   O7    S    
C2    C18   S    
C15   C16   A    
C3    N1    D    
C12   H3    S    
C29   H32   S    
C28   C29   S    
C10   C23   S    
C6    O6    A    
C28   H33   S    
C22   H11   S    
C1    O1    A    
C23   H20   S    
C6    O8    A    
C27   H22   S    
C2    O2    A    
C26   H24   S    
C30   H29   S    
Cu2   N1    S    
C5    O7    A    
C21   H15   S    
C27   H23   S    
Cu1   N2    S    
C11   H4    S    
C26   C27   S    
C29   C30   S    
Cu2   O3    S    
Cu1   O8    S    
C7    C14   A    
Cu1   O4    S    
C23   H19   S    
C13   H2    S    
C25   H26   S    
C4    H7    S    
C24   H17   S    
C3    C4    S    
