data_mof_unit_38749.cif
_audit_creation_date              2012-12-10T20:55:46-0500
_audit_creation_method            fapswitch 2.2
_symmetry_space_group_name_H-M    P1
_symmetry_Int_Tables_number       1
_space_group_crystal_system       triclinic
_cell_length_a                    15.837495
_cell_length_b                    15.033476
_cell_length_c                    10.76394
_cell_angle_alpha                 90.078442
_cell_angle_beta                  90.006775
_cell_angle_gamma                 89.9978
_cell_volume                      2562.81204982

loop_
_atom_site_label
_atom_site_type_symbol
_atom_type_description
_atom_site_fract_x
_atom_site_fract_y
_atom_site_fract_z
_atom_type_partial_charge
C1    C     C_1   0.250480 0.499996 0.499874 -0.178737
C2    C     C_1   0.749514 0.499989 0.500164 -0.179535
C3    C     C_R   0.500925 0.499883 0.873328 -0.177060
C4    C     C_R   0.501062 0.499624 0.126678 -0.174195
C5    C     C_R   0.500170 0.905065 0.500443 0.093466
C6    C     C_R   0.500268 0.094969 0.500686 0.089642
C7    C     C_R   0.562508 0.953035 0.435881 -0.120774
C8    C     C_R   0.438072 0.047024 0.565563 -0.145805
C9    C     C_R   0.437916 0.953154 0.565207 -0.114851
C10   C     C_R   0.562443 0.046900 0.435750 -0.093046
C11   C     C_R   0.956168 0.503521 0.387028 -0.182533
C12   C     C_R   0.043817 0.496482 0.613003 -0.184062
C13   C     C_R   0.043712 0.503476 0.386957 -0.180901
C14   C     C_R   0.956273 0.496435 0.613069 -0.181560
C15   C     C_R   0.338830 0.500000 0.499908 0.918036
C16   C     C_R   0.661168 0.499997 0.500127 0.919756
C17   C     C_R   0.499677 0.499910 0.259303 0.914579
C18   C     C_R   0.500706 0.500013 0.740690 0.917542
C19   C     C_R   0.913124 0.499978 0.500083 0.175548
C20   C     C_R   0.086863 0.499981 0.499946 0.175087
C21   C     C_1   0.500069 0.807244 0.500189 0.033342
C22   C     C_1   0.500130 0.192768 0.500366 0.081982
C23   C     C_1   0.824350 0.499983 0.500147 -0.079390
C24   C     C_1   0.175641 0.499989 0.499886 -0.078893
C25   C     C_R   0.555035 0.658716 0.106248 0.090010
C26   C     C_R   0.554454 0.340287 0.894321 0.124167
C27   C     C_R   0.449093 0.659790 0.895300 0.092163
C28   C     C_R   0.446749 0.340513 0.103911 0.168888
C29   C     C_R   0.528794 0.741244 0.054976 -0.082266
C30   C     C_R   0.529530 0.258151 0.948420 -0.129147
C31   C     C_R   0.476784 0.741768 0.946895 -0.072718
C32   C     C_R   0.471516 0.258190 0.049389 -0.085390
C33   C     C_R   0.486519 0.580048 0.940333 0.038067
C34   C     C_R   0.486521 0.419384 0.060005 0.010413
C35   C     C_R   0.516622 0.579685 0.060358 0.041709
C36   C     C_R   0.515673 0.419482 0.939369 0.028347
H1    H     H_    0.077638 0.506156 0.299574 0.139065
H2    H     H_    0.922346 0.493675 0.700446 0.138188
H3    H     H_    0.922159 0.506281 0.299705 0.138090
H4    H     H_    0.077824 0.493804 0.700332 0.138088
H5    H     H_    0.611096 0.081989 0.384842 0.144927
H6    H     H_    0.388976 0.918100 0.615499 0.121987
H7    H     H_    0.389387 0.082210 0.616413 0.130218
H8    H     H_    0.611390 0.917890 0.385458 0.125056
N1    N     N_1   0.500000 0.270550 0.500000 -0.102834
N2    N     N_1   0.500000 0.729450 0.500000 -0.109037
O1    O     O_R   0.378020 0.573650 0.500040 -0.615207
O2    O     O_R   0.621980 0.426350 0.499960 -0.620233
O3    O     O_R   0.621980 0.573650 0.499960 -0.616573
O4    O     O_R   0.378020 0.426350 0.500040 -0.619629
O5    O     O_R   0.499990 0.573670 0.316780 -0.618548
O6    O     O_R   0.500010 0.426330 0.683220 -0.631123
O7    O     O_R   0.500010 0.573670 0.683220 -0.617927
O8    O     O_R   0.499990 0.426330 0.316780 -0.617280
Zn1   Zn    Zn3+2 0.500000 0.598370 0.500000 0.951348
Zn2   Zn    Zn3+2 0.500000 0.401630 0.500000 0.955724
C37   C     C_2   0.438259 0.172435 0.098088 0.463556
H9    H     H_    0.425789 0.117472 0.035299 0.122304
O9    O     O_2   0.426517 0.161707 0.209183 -0.578171
C38   C     C_2   0.460244 0.825849 0.877106 0.487712
H10   H     H_    0.405176 0.833151 0.818512 0.004009
O10   O     O_2   0.511342 0.886672 0.877777 -0.512335
C39   C     C_2   0.561768 0.173306 0.894546 0.361996
H11   H     H_    0.574554 0.168895 0.795633 0.064609
O11   O     O_2   0.577345 0.109073 0.959952 -0.512908
C40   C     C_2   0.546651 0.824994 0.125071 0.515548
H12   H     H_    0.602688 0.832020 0.181727 0.008958
O12   O     O_2   0.495673 0.885931 0.126640 -0.515353
C41   C     C_3   0.635528 0.655910 0.185509 -0.391131
C42   C     C_3   0.690651 0.573297 0.166030 -0.844511
H13   H     H_    0.662271 0.513202 0.207959 0.246892
H14   H     H_    0.701466 0.562106 0.065346 0.257416
H15   H     H_    0.752863 0.583654 0.211480 0.241566
H16   H     H_    0.677235 0.711736 0.157623 0.185016
H17   H     H_    0.621403 0.666093 0.285280 0.239904
C43   C     C_3   0.635113 0.343400 0.815031 -0.382191
C44   C     C_3   0.692791 0.422594 0.843406 -0.859193
H18   H     H_    0.665031 0.486056 0.811070 0.246313
H19   H     H_    0.705444 0.426343 0.944710 0.261252
H20   H     H_    0.753921 0.413767 0.794321 0.244548
H21   H     H_    0.674754 0.284154 0.834560 0.198086
H22   H     H_    0.621016 0.339644 0.714588 0.238228
C45   C     C_3   0.367908 0.658550 0.817435 -0.386679
C46   C     C_3   0.311535 0.577044 0.837673 -0.851943
H23   H     H_    0.338880 0.516210 0.796090 0.244733
H24   H     H_    0.300754 0.566678 0.938489 0.259560
H25   H     H_    0.249407 0.588266 0.792416 0.243109
H26   H     H_    0.327430 0.715220 0.846210 0.183647
H27   H     H_    0.381285 0.668449 0.717410 0.239477
C47   C     C_3   0.364914 0.344806 0.180390 -0.321003
C48   C     C_3   0.308159 0.424097 0.149032 -0.936236
H28   H     H_    0.335916 0.487699 0.181114 0.255884
H29   H     H_    0.296901 0.426800 0.047317 0.263885
H30   H     H_    0.246325 0.416233 0.196467 0.255698
H31   H     H_    0.325198 0.285731 0.160131 0.212318
H32   H     H_    0.377465 0.342124 0.281349 0.259245

loop_
_geom_bond_atom_site_label_1
_geom_bond_atom_site_label_2
_ccdc_geom_bond_type
C7    C10   A    
C40   O12   D    
C39   O11   D    
C46   H25   S    
C15   O1    A    
C16   O2    A    
C47   C48   S    
C18   O6    A    
C47   H31   S    
C44   H18   S    
C27   C33   A    
C11   C19   A    
C9    H6    S    
C46   H24   S    
C37   O9    D    
C14   H2    S    
C3    C33   A    
C6    C22   S    
C3    C18   S    
C38   O10   D    
C15   O4    A    
C18   O7    A    
C46   H23   S    
C20   C24   S    
N1    Zn2   S    
C8    C9    A    
N2    Zn1   S    
C26   C43   S    
C8    H7    S    
C41   H17   S    
C42   H13   S    
C1    C15   S    
C2    C16   S    
C13   H1    S    
C44   H19   S    
C45   H26   S    
C4    C35   A    
C28   C34   A    
C30   C39   S    
C10   H5    S    
C17   O5    A    
C32   C37   S    
C4    C34   A    
O7    Zn1   S    
C25   C29   A    
C45   H27   S    
O8    Zn2   S    
C27   C31   A    
C28   C32   A    
C43   C44   S    
C43   H22   S    
C48   H28   S    
C5    C7    A    
C6    C8    A    
O3    Zn1   S    
O4    Zn2   S    
C29   C40   S    
C38   H10   S    
C31   C38   S    
C12   H4    S    
C19   C23   S    
C5    C9    A    
C48   H29   S    
C45   C46   S    
C12   C20   A    
C42   H15   S    
C41   H16   S    
C7    H8    S    
C16   O3    A    
C11   H3    S    
C25   C35   A    
C4    C17   S    
C26   C36   A    
C12   C14   A    
C26   C30   A    
C25   C41   S    
O1    Zn1   S    
C21   N2    T    
C44   H20   S    
O2    Zn2   S    
C13   C20   A    
C14   C19   A    
C43   H21   S    
C6    C10   A    
C28   C47   S    
C47   H32   S    
C27   C45   S    
C29   C31   A    
C48   H30   S    
C30   C32   A    
C11   C13   A    
C37   H9    S    
C3    C36   A    
C33   C35   A    
C34   C36   A    
C40   H12   S    
O5    Zn1   S    
C41   C42   S    
C39   H11   S    
C22   N1    T    
C5    C21   S    
C1    C24   T    
C2    C23   T    
C42   H14   S    
C17   O8    A    
O6    Zn2   S    
