data_mof_unit_38947.cif
_audit_creation_date              2012-12-10T17:28:35-0500
_audit_creation_method            fapswitch 2.2
_symmetry_space_group_name_H-M    P1
_symmetry_Int_Tables_number       1
_space_group_crystal_system       triclinic
_cell_length_a                    10.62393
_cell_length_b                    12.094964
_cell_length_c                    12.800974
_cell_angle_alpha                 94.380465
_cell_angle_beta                  90.971544
_cell_angle_gamma                 87.343085
_cell_volume                      1638.15802075

loop_
_atom_site_label
_atom_site_type_symbol
_atom_type_description
_atom_site_fract_x
_atom_site_fract_y
_atom_site_fract_z
_atom_type_partial_charge
C1    C     C_R   0.499556 0.522806 0.700195 0.866673
C2    C     C_R   0.444339 0.544136 0.131872 -0.217811
C3    C     C_R   0.538079 0.456374 0.974708 0.024003
C4    C     C_R   0.461920 0.543626 0.025291 0.024003
C5    C     C_R   0.389355 0.946061 0.393601 0.393308
C6    C     C_R   0.610645 0.053939 0.606399 0.393308
C7    C     C_R   0.399528 0.832776 0.406926 -0.103677
C8    C     C_R   0.600472 0.167224 0.593074 -0.103676
C9    C     C_R   0.548354 0.860007 0.545571 0.524972
C10   C     C_R   0.451646 0.139993 0.454429 0.524972
C11   C     C_R   0.540860 0.977907 0.539147 -0.208151
C12   C     C_R   0.500444 0.477194 0.299805 0.866674
C13   C     C_R   0.459140 0.022093 0.460853 -0.208151
C14   C     C_R   0.738739 0.500996 0.499810 0.863091
C15   C     C_R   0.261260 0.499004 0.500189 0.863091
C16   C     C_R   0.872256 0.508728 0.693840 -0.098345
C17   C     C_R   0.127744 0.491272 0.306160 -0.098345
C18   C     C_R   0.939339 0.509874 0.788413 -0.078795
C19   C     C_R   0.060661 0.490126 0.211587 -0.078795
C20   C     C_R   0.070301 0.506704 0.788452 -0.092997
C21   C     C_R   0.929699 0.493297 0.211548 -0.092997
C22   C     C_R   0.134202 0.502209 0.693904 -0.131868
C23   C     C_R   0.503599 0.462307 0.188142 -0.131265
C24   C     C_R   0.865797 0.497791 0.306096 -0.131868
C25   C     C_R   0.067395 0.500774 0.596959 0.067443
C26   C     C_R   0.932604 0.499226 0.403041 0.067443
C27   C     C_R   0.935887 0.504051 0.596929 0.074774
C28   C     C_R   0.064113 0.495949 0.403071 0.074774
C29   C     C_R   0.128874 0.496971 0.500031 -0.148687
C30   C     C_R   0.871126 0.503029 0.499968 -0.148687
C31   C     C_R   0.496401 0.537693 0.811857 -0.131265
C32   C     C_R   0.406658 0.628954 0.968221 0.391452
C33   C     C_R   0.593341 0.371045 0.031779 0.391452
C34   C     C_R   0.424670 0.625353 0.861182 -0.200012
C35   C     C_R   0.575330 0.374646 0.138818 -0.200012
C36   C     C_R   0.555661 0.455864 0.868128 -0.217811
Cl1   Cl    Cl    0.289820 0.979400 0.287707 -0.422806
Cl2   Cl    Cl    0.710179 0.020600 0.712293 -0.422806
Cl3   Cl    Cl    0.311625 0.739858 0.026093 -0.530476
Cl4   Cl    Cl    0.688375 0.260141 0.973907 -0.530475
Cl5   Cl    Cl    0.348857 0.206494 0.367503 -0.470432
Cl6   Cl    Cl    0.651143 0.793506 0.632497 -0.470432
H1    H     H_    0.877398 0.492181 0.138155 0.154027
H2    H     H_    0.612625 0.390250 0.827190 0.209242
H3    H     H_    0.621570 0.311890 0.184006 0.206172
H4    H     H_    0.378430 0.688110 0.815994 0.206172
H5    H     H_    0.653499 0.224708 0.643484 0.192552
H6    H     H_    0.346500 0.775292 0.356516 0.192552
H7    H     H_    0.122602 0.507820 0.861845 0.154027
H8    H     H_    0.770564 0.511960 0.697533 0.127684
H9    H     H_    0.229436 0.488040 0.302467 0.127684
H10   H     H_    0.889510 0.513402 0.861771 0.154361
H11   H     H_    0.110490 0.486599 0.138229 0.154361
H12   H     H_    0.235935 0.499806 0.697625 0.123321
H13   H     H_    0.764065 0.500194 0.302375 0.123321
H14   H     H_    0.387375 0.609750 0.172810 0.209242
N1    N     N_R   0.523130 0.207800 0.519340 -0.168587
N2    N     N_R   0.476870 0.792200 0.480660 -0.168587
O1    O     O_R   0.506170 0.421700 0.658830 -0.631440
O2    O     O_R   0.493830 0.578300 0.341170 -0.631440
O3    O     O_R   0.491330 0.609310 0.646410 -0.568775
O4    O     O_R   0.508670 0.390690 0.353590 -0.568775
O5    O     O_R   0.690650 0.406190 0.506220 -0.623039
O6    O     O_R   0.309350 0.593810 0.493780 -0.623038
O7    O     O_R   0.675800 0.593810 0.493800 -0.562258
O8    O     O_R   0.324200 0.406190 0.506200 -0.562258
Zn1   Zn    Zn3+2 0.509910 0.374730 0.508290 1.016345
Zn2   Zn    Zn3+2 0.490090 0.625270 0.491710 1.016345

loop_
_geom_bond_atom_site_label_1
_geom_bond_atom_site_label_2
_ccdc_geom_bond_type
C19   C21   A    
C2    C4    A    
C15   O6    A    
C6    Cl2   S    
C15   C29   S    
C20   H7    S    
C34   H4    S    
C5    Cl1   S    
C8    N1    A    
C25   C27   A    
C11   C13   A    
C7    N2    A    
C5    C13   A    
C12   C23   S    
O7    Zn2   S    
O1    Zn1   S    
C7    H6    S    
C19   H11   S    
C16   C27   A    
O8    Zn1   S    
C8    H5    S    
C18   H10   S    
C22   H12   S    
C14   C30   S    
C2    H14   S    
C15   O8    A    
C27   C30   A    
C9    C11   A    
O3    Zn2   S    
C17   H9    S    
C9    Cl6   S    
C4    C32   A    
C3    C36   A    
N1    Zn1   S    
C10   Cl5   S    
C14   O5    A    
O6    Zn2   S    
N2    Zn2   S    
C28   C29   A    
C17   C19   A    
C14   O7    A    
C16   H8    S    
C26   C30   A    
C23   C35   A    
C1    O1    A    
C25   C29   A    
O5    Zn1   S    
C36   H2    S    
C33   Cl4   S    
O4    Zn1   S    
C12   O4    A    
C20   C22   A    
C6    C11   A    
C1    O3    A    
C3    C4    A    
C12   O2    A    
C1    C31   S    
C10   N1    A    
C31   C34   A    
O2    Zn2   S    
C18   C20   A    
C16   C18   A    
C9    N2    A    
C21   C24   A    
C2    C23   A    
C32   Cl3   S    
C3    C33   A    
C5    C7    A    
C6    C8    A    
C33   C35   A    
C32   C34   A    
C31   C36   A    
C17   C28   A    
C26   C28   A    
C10   C13   A    
C21   H1    S    
C24   C26   A    
C24   H13   S    
C22   C25   A    
C35   H3    S    
