data_mof_unit_67666.cif
_audit_creation_date              2013-03-05T16:47:43-0500
_audit_creation_method            fapswitch 2.2
_symmetry_space_group_name_H-M    P1
_symmetry_Int_Tables_number       1
_space_group_crystal_system       triclinic
_cell_length_a                    10.965371
_cell_length_b                    13.054656
_cell_length_c                    11.836547
_cell_angle_alpha                 98.474113
_cell_angle_beta                  93.77579
_cell_angle_gamma                 94.981431
_cell_volume                      1664.23633411

loop_
_atom_site_label
_atom_site_type_symbol
_atom_site_description
_atom_site_fract_x
_atom_site_fract_y
_atom_site_fract_z
_atom_type_partial_charge
O1    O     O_R   0.506570 0.354460 0.582000 -0.557442
O2    O     O_R   0.493430 0.645540 0.418000 -0.556348
O3    O     O_R   0.490940 0.341410 0.386200 -0.615268
O4    O     O_R   0.509060 0.658590 0.613800 -0.617347
C1    C     C_R   0.500141 0.299621 0.479009 0.835140
C2    C     C_R   0.501307 0.700437 0.520949 0.832119
O5    O     O_R   0.327460 0.506540 0.597900 -0.596349
O6    O     O_R   0.672540 0.493460 0.402100 -0.594159
O7    O     O_R   0.311830 0.493480 0.402100 -0.559355
O8    O     O_R   0.688170 0.506520 0.597900 -0.561271
C3    C     C_R   0.262512 0.501557 0.499253 0.823930
C4    C     C_R   0.737586 0.500244 0.500993 0.826865
Cu1   Cu    Cu3+1 0.509250 0.507730 0.615930 0.965392
Cu2   Cu    Cu3+1 0.490750 0.492270 0.384070 0.967771
H1    H     H_    0.147913 0.420286 0.954453 0.162066
H2    H     H_    0.869003 0.587987 0.048332 0.162979
C5    C     C_R   0.158352 0.528398 0.108960 -0.196346
C6    C     C_R   0.854931 0.478998 0.894722 -0.194545
H3    H     H_    0.194220 0.592438 0.068422 0.154910
H4    H     H_    0.826959 0.414317 0.937861 0.151517
C7    C     C_R   0.142390 0.543314 0.225862 0.394589
C8    C     C_R   0.866357 0.463310 0.777176 0.394233
C9    C     C_R   0.092248 0.459793 0.277370 -0.005619
C10   C     C_R   0.907179 0.547651 0.722636 0.001574
C11   C     C_R   0.065145 0.359812 0.210762 -0.082769
C12   C     C_R   0.924659 0.649675 0.785391 -0.085531
C13   C     C_R   0.092348 0.344507 0.094979 0.003444
C14   C     C_R   0.906046 0.665065 0.903708 0.001502
C15   C     C_R   0.131491 0.430368 0.043855 -0.236786
C16   C     C_R   0.878333 0.578214 0.957632 -0.237547
C17   C     C_R   0.923752 0.475716 0.401088 -0.228530
C18   C     C_R   0.076721 0.531838 0.599825 -0.236838
H5    H     H_    0.865089 0.450649 0.324031 0.152890
H6    H     H_    0.135303 0.557878 0.677149 0.142241
C19   C     C_R   0.871788 0.500505 0.504180 -0.033376
C20   C     C_R   0.128575 0.505140 0.496526 -0.037742
C21   C     C_R   0.950025 0.526924 0.606096 0.075045
C22   C     C_R   0.050124 0.480451 0.394399 0.067585
C23   C     C_R   0.504477 0.814001 0.534118 -0.061477
C24   C     C_R   0.501015 0.186207 0.465461 -0.056121
C25   C     C_R   0.457078 0.016134 0.348098 0.002481
C26   C     C_R   0.553617 0.983889 0.650577 0.002485
C27   C     C_R   0.463497 0.124440 0.359605 -0.268292
C28   C     C_R   0.544632 0.875511 0.639368 -0.267825
C29   C     C_R   0.540593 0.139597 0.557984 -0.242002
C30   C     C_R   0.466780 0.860994 0.441441 -0.237048
C31   C     C_R   0.527323 0.031389 0.552366 0.079156
C32   C     C_R   0.482850 0.968959 0.446512 0.083835
H7    H     H_    0.424254 0.812119 0.365661 0.198525
H8    H     H_    0.580783 0.188982 0.634451 0.196661
H9    H     H_    0.567987 0.839393 0.713726 0.148681
H10   H     H_    0.439486 0.160296 0.285215 0.148949
N1    N     N_R   0.523180 0.519350 0.790130 -0.193091
N2    N     N_R   0.476820 0.480650 0.209870 -0.193326
C33   C     C_R   0.404093 0.383098 0.026069 -0.327323
C34   C     C_R   0.597183 0.616068 0.973867 -0.322567
C35   C     C_R   0.409865 0.397128 0.146171 0.076504
C36   C     C_R   0.591055 0.602342 0.853827 0.076479
C37   C     C_R   0.542440 0.551982 0.154770 0.149146
C38   C     C_R   0.457613 0.447785 0.845089 0.147801
C39   C     C_R   0.535082 0.542679 0.032550 0.019401
C40   C     C_R   0.465169 0.456939 0.967305 0.018101
H11   H     H_    0.640028 0.659227 0.811390 0.118009
H12   H     H_    0.361225 0.340119 0.188641 0.121024
H13   H     H_    0.350026 0.314511 0.980473 0.168699
H14   H     H_    0.651771 0.684354 0.019515 0.167831
C41   C     C_R   0.368428 0.366018 0.779465 0.150001
C42   C     C_R   0.247710 0.387548 0.756283 -0.146512
C43   C     C_R   0.160501 0.310234 0.698238 -0.149234
C44   C     C_R   0.191061 0.208631 0.671212 -0.114986
C45   C     C_R   0.308118 0.184350 0.703642 -0.132461
C46   C     C_R   0.396373 0.262842 0.758836 -0.141997
H15   H     H_    0.222048 0.464290 0.785130 0.110635
H16   H     H_    0.069073 0.328602 0.676121 0.198767
H17   H     H_    0.122979 0.147949 0.629412 0.116422
H18   H     H_    0.329460 0.104697 0.685850 0.140257
H19   H     H_    0.486051 0.244460 0.787155 0.162107
C47   C     C_R   0.634349 0.631538 0.219765 0.155704
C48   C     C_R   0.609710 0.735392 0.243046 -0.137970
C49   C     C_R   0.701513 0.812026 0.295775 -0.146793
C50   C     C_R   0.819426 0.785381 0.320976 -0.097720
C51   C     C_R   0.846439 0.683247 0.290011 -0.141826
C52   C     C_R   0.754943 0.607521 0.236372 -0.161498
H20   H     H_    0.520141 0.755777 0.217448 0.161288
H21   H     H_    0.682484 0.892128 0.316027 0.136347
H22   H     H_    0.891051 0.844566 0.359859 0.132384
H23   H     H_    0.938566 0.663359 0.304842 0.194934
H24   H     H_    0.777452 0.530485 0.203636 0.107996
Cl1   Cl    Cl    0.184522 0.668320 0.304576 -0.746788
Cl2   Cl    Cl    0.827688 0.337053 0.700590 -0.752470
C53   C     C_R   0.992654 0.276222 0.257054 0.124752
C54   C     C_R   0.044116 0.226366 0.343416 -0.145930
C55   C     C_R   0.969991 0.156092 0.394225 -0.125702
C56   C     C_R   0.843920 0.138497 0.362652 -0.097361
C57   C     C_R   0.792327 0.188421 0.277189 -0.146889
C58   C     C_R   0.866809 0.254900 0.222485 -0.169404
H25   H     H_    0.140777 0.242515 0.371700 0.116999
H26   H     H_    0.009663 0.115726 0.458686 0.111790
H27   H     H_    0.786435 0.085802 0.403850 0.129409
H28   H     H_    0.694717 0.176042 0.253502 0.133067
H29   H     H_    0.825539 0.294219 0.157382 0.113100
C59   C     C_R   0.968169 0.737714 0.727411 0.128096
C60   C     C_R   0.884587 0.784376 0.661124 -0.140442
C61   C     C_R   0.926259 0.864691 0.602971 -0.149458
C62   C     C_R   0.052103 0.894209 0.604427 -0.111311
C63   C     C_R   0.136228 0.845890 0.667472 -0.119149
C64   C     C_R   0.094281 0.769640 0.731205 -0.160033
H30   H     H_    0.787296 0.759257 0.655529 0.115330
H31   H     H_    0.860924 0.903260 0.555804 0.125387
H32   H     H_    0.084397 0.954675 0.557057 0.111017
H33   H     H_    0.233632 0.869108 0.669005 0.132692
H34   H     H_    0.160039 0.734185 0.781655 0.112815
C65   C     C_R   0.090838 0.238821 0.029420 0.118372
C66   C     C_R   0.028889 0.212690 0.920064 -0.165560
C67   C     C_R   0.028788 0.112476 0.859201 -0.113058
C68   C     C_R   0.094673 0.039523 0.905284 -0.088458
C69   C     C_R   0.160457 0.066173 0.011866 -0.152785
C70   C     C_R   0.157901 0.165011 0.074369 -0.166612
H35   H     H_    0.980224 0.269556 0.882564 0.159849
H36   H     H_    0.978567 0.091577 0.776033 0.134456
H37   H     H_    0.093509 0.961859 0.859733 0.153214
H38   H     H_    0.211918 0.009754 0.046793 0.154231
H39   H     H_    0.209370 0.184227 0.157160 0.113092
C71   C     C_R   0.910830 0.770083 0.972590 0.116612
C72   C     C_R   0.838233 0.845059 0.937450 -0.160036
C73   C     C_R   0.840725 0.942794 0.004235 -0.140845
C74   C     C_R   0.914545 0.966323 0.106804 -0.095923
C75   C     C_R   0.984227 0.891682 0.144214 -0.131523
C76   C     C_R   0.980814 0.793302 0.078438 -0.159287
H40   H     H_    0.777449 0.827480 0.860061 0.110366
H41   H     H_    0.785455 0.000297 0.976543 0.155448
H42   H     H_    0.918796 0.042645 0.156607 0.161897
H43   H     H_    0.039588 0.909807 0.224903 0.130772
H44   H     H_    0.032113 0.735021 0.110282 0.152337
C77   C     C_R   0.434328 0.955391 0.231078 0.059493
C78   C     C_R   0.324310 0.891750 0.197412 -0.153472
C79   C     C_R   0.309045 0.828570 0.090043 -0.126869
C80   C     C_R   0.402214 0.829178 0.015372 -0.157683
C81   C     C_R   0.511207 0.892999 0.047737 -0.122121
C82   C     C_R   0.526711 0.957154 0.154265 -0.166947
H45   H     H_    0.252303 0.889302 0.255429 0.164807
H46   H     H_    0.225746 0.778344 0.064347 0.140932
H47   H     H_    0.390197 0.779843 0.932707 0.130582
H48   H     H_    0.583452 0.892784 0.989936 0.143104
H49   H     H_    0.612491 0.005170 0.178258 0.129975
C83   C     C_R   0.576374 0.044174 0.767667 0.060797
C84   C     C_R   0.484716 0.039716 0.844939 -0.166697
C85   C     C_R   0.498143 0.105001 0.950719 -0.125601
C86   C     C_R   0.604736 0.172359 0.981916 -0.163870
C87   C     C_R   0.698172 0.174517 0.907408 -0.121261
C88   C     C_R   0.684838 0.110115 0.800820 -0.149163
H50   H     H_    0.400826 0.988593 0.821519 0.129192
H51   H     H_    0.425737 0.103702 0.008412 0.146962
H52   H     H_    0.614389 0.223348 0.063415 0.129912
H53   H     H_    0.780068 0.227004 0.932181 0.144089
H54   H     H_    0.756831 0.113781 0.742823 0.164595

loop_
_geom_bond_atom_site_label_1
_geom_bond_atom_site_label_2
_geom_bond_distance
_ccdc_geom_bond_type
C62   H32   1.082093 S    
C55   C56   1.398222 A    
N1    C36   1.357026 A    
C13   C15   1.399052 A    
C5    C15   1.390087 A    
C64   H34   1.083267 S    
C57   C58   1.397021 A    
C69   H38   1.078432 S    
C86   H52   1.081631 S    
C75   C76   1.396472 A    
C66   C67   1.397281 A    
C77   C78   1.403373 A    
C7    Cl1   1.763210 S    
O5    C3    1.317142 A    
C30   H7    1.074098 S    
C73   C74   1.393201 A    
O1    C1    1.313890 A    
C18   C20   1.392900 A    
C8    C10   1.411158 A    
C3    C20   1.471854 S    
C19   C21   1.414171 A    
C10   C12   1.416945 A    
C83   C84   1.405949 A    
C80   H47   1.082645 S    
C61   H31   1.082265 S    
C27   H10   1.084478 S    
C63   C64   1.399652 A    
H2    C16   1.075021 S    
C67   C68   1.395421 A    
C33   C40   1.417188 A    
C68   C69   1.392883 A    
C38   C40   1.430173 A    
C41   C46   1.397263 A    
O4    Cu1   1.973479 S    
C74   H42   1.075936 S    
C46   H19   1.076202 S    
C59   C60   1.403496 A    
C53   C58   1.405174 A    
C77   C82   1.405991 A    
C47   C52   1.393381 A    
C25   C32   1.419298 A    
C24   C27   1.402177 A    
C84   C85   1.398263 A    
C38   C41   1.474261 S    
C42   C43   1.395234 A    
C17   H5    1.072840 S    
C60   H30   1.083316 S    
C6    C16   1.389536 A    
Cu1   Cu2   2.714784 S    
C66   H35   1.080568 S    
N2    C37   1.390934 A    
C52   H24   1.078569 S    
C58   H29   1.083081 S    
C25   C27   1.395472 A    
O2    C2    1.312998 A    
C26   C28   1.395638 A    
C72   H40   1.080310 S    
C37   C47   1.472016 S    
C61   C62   1.398403 A    
C33   H13   1.080611 S    
N1    C38   1.391761 A    
C54   H25   1.083350 S    
H1    C15   1.075979 S    
Cu1   N1    2.039656 S    
C63   H33   1.082861 S    
C29   C31   1.398723 A    
C24   C29   1.391971 A    
C30   C32   1.397043 A    
C37   C39   1.430116 A    
C79   H46   1.075810 S    
C11   C53   1.485215 S    
C68   H37   1.074499 S    
C41   C42   1.395000 A    
C59   C64   1.405075 A    
C85   C86   1.394537 A    
C57   H28   1.080475 S    
O4    C2    1.298562 A    
C53   C54   1.403875 A    
C47   C48   1.396550 A    
C49   C50   1.392698 A    
C42   H15   1.077146 S    
C88   H54   1.082231 S    
C50   C51   1.392367 A    
C83   C88   1.403835 A    
C18   H6    1.076489 S    
O7    Cu2   1.988585 S    
C75   H43   1.081101 S    
C49   H21   1.079395 S    
C81   H48   1.080219 S    
C31   C32   1.421780 A    
O6    C4    1.317302 A    
C10   C21   1.481283 S    
C8    Cl2   1.762358 S    
C43   H16   1.075551 S    
C18   C21   1.392551 A    
C4    C19   1.469269 S    
O7    C3    1.296934 A    
C44   C45   1.391757 A    
O3    Cu2   1.973478 S    
O8    C4    1.295338 A    
C23   C30   1.390403 A    
C13   C65   1.478105 S    
C28   H9    1.084504 S    
C43   C44   1.392910 A    
Cu2   N2    2.039655 S    
C67   H36   1.081728 S    
C56   C57   1.396815 A    
C87   H53   1.077579 S    
C7    C9    1.413791 A    
C72   C73   1.395490 A    
C17   C19   1.387672 A    
C48   C49   1.400747 A    
O1    Cu1   1.979166 S    
C85   H51   1.081419 S    
C74   C75   1.393295 A    
C26   C83   1.483693 S    
C25   C77   1.485254 S    
C35   H12   1.080613 S    
C65   C66   1.402532 A    
C62   C63   1.398145 A    
C36   H11   1.080912 S    
C2    C23   1.464802 S    
O6    Cu2   1.989227 S    
C48   H20   1.075746 S    
C6    C8    1.391726 A    
C50   H22   1.080666 S    
C78   C79   1.400895 A    
O3    C1    1.298523 A    
O8    Cu1   1.988585 S    
C82   H49   1.080866 S    
C81   C82   1.398596 A    
C14   C71   1.483075 S    
C23   C28   1.400786 A    
C11   C13   1.410880 A    
C9    C22   1.483479 S    
C79   C80   1.394481 A    
C12   C14   1.416040 A    
C87   C88   1.400600 A    
C17   C22   1.389716 A    
C56   H27   1.082769 S    
C33   C35   1.402815 A    
C84   H50   1.083385 S    
C45   C46   1.400188 A    
C86   C87   1.396283 A    
C12   C59   1.483212 S    
C20   C22   1.416066 A    
C29   H8    1.074806 S    
C45   H18   1.079173 S    
C73   H41   1.078721 S    
C34   H14   1.080599 S    
C14   C16   1.401514 A    
C54   C55   1.400522 A    
C5    H3    1.081590 S    
C78   H45   1.081461 S    
C34   C36   1.402066 A    
C71   C76   1.404111 A    
C6    H4    1.081920 S    
C70   H39   1.082538 S    
C9    C11   1.418447 A    
C39   C40   1.398288 A    
O2    Cu2   1.979167 S    
C5    C7    1.393418 A    
C76   H44   1.080871 S    
C80   C81   1.393551 A    
C65   C70   1.405308 A    
O5    Cu1   1.989227 S    
C26   C31   1.420696 A    
C44   H17   1.078346 S    
C51   C52   1.394939 A    
C1    C24   1.466500 S    
C60   C61   1.397437 A    
C34   C39   1.417459 A    
C69   C70   1.393074 A    
C55   H26   1.078738 S    
C51   H23   1.074413 S    
C71   C72   1.405852 A    
N2    C35   1.357254 A    
