data_mof_unit_38357.cif
_audit_creation_date              2012-12-10T18:47:06-0500
_audit_creation_method            fapswitch 2.2
_symmetry_space_group_name_H-M    P1
_symmetry_Int_Tables_number       1
_space_group_crystal_system       triclinic
_cell_length_a                    10.787333
_cell_length_b                    9.941136
_cell_length_c                    14.902973
_cell_angle_alpha                 90.050102
_cell_angle_beta                  91.936949
_cell_angle_gamma                 89.938555
_cell_volume                      1597.25552004

loop_
_atom_site_label
_atom_site_type_symbol
_atom_type_description
_atom_site_fract_x
_atom_site_fract_y
_atom_site_fract_z
_atom_type_partial_charge
C1    C     C_R   0.260541 0.500119 0.499805 0.886259
C2    C     C_R   0.128211 0.499638 0.496784 -0.106366
C3    C     C_R   0.519313 0.071476 0.578108 0.304414
C4    C     C_R   0.486550 0.928905 0.421610 0.310598
C5    C     C_R   0.469571 0.071183 0.424061 0.340236
C6    C     C_R   0.506749 0.928952 0.578610 0.299696
C7    C     C_R   0.493266 0.500347 0.327165 0.941779
C8    C     C_R   0.504375 0.500578 0.672928 0.918740
C9    C     C_R   0.609467 0.554212 0.816305 0.385932
C10   C     C_R   0.375843 0.524482 0.183947 0.377478
C11   C     C_R   0.504179 0.504945 0.769008 -0.203842
C12   C     C_R   0.739716 0.499718 0.496912 0.899625
C13   C     C_R   0.489293 0.503743 0.231110 -0.165045
C14   C     C_R   0.391832 0.482186 0.810599 -0.024042
C15   C     C_R   0.602417 0.508639 0.189042 -0.017699
C16   C     C_R   0.382736 0.512420 0.902088 0.073254
C17   C     C_R   0.603897 0.545648 0.098120 0.008061
C18   C     C_R   0.493428 0.539830 0.952987 -0.062080
C19   C     C_R   0.490779 0.539889 0.047018 -0.061087
C20   C     C_R   0.606374 0.567676 0.910299 -0.068207
C21   C     C_R   0.375573 0.533421 0.089878 -0.025059
C22   C     C_R   0.267077 0.522007 0.944308 0.050131
C23   C     C_R   0.264113 0.538200 0.037365 0.115012
C24   C     C_R   0.711265 0.593679 0.056694 0.090876
C25   C     C_3   0.788215 0.491535 0.748336 0.069632
C26   C     C_3   0.910727 0.547937 0.716945 -0.843997
C27   C     C_3   0.223504 0.415572 0.259121 0.144335
C28   C     C_3   0.082344 0.416632 0.263949 -0.856055
C29   C     C_3   0.647505 0.124228 0.697738 0.167948
C30   C     C_3   0.645019 0.151424 0.798117 -0.855370
C31   C     C_3   0.569651 0.887908 0.285134 0.170068
C32   C     C_3   0.525070 0.884312 0.187214 -0.810745
C33   C     C_3   0.278020 0.098778 0.357030 0.166253
C34   C     C_R   0.710255 0.611116 0.963988 0.115734
C35   C     C_3   0.231511 0.041651 0.267097 -0.841411
C36   C     C_3   0.369734 0.869732 0.683843 0.189324
C37   C     C_3   0.361736 0.855568 0.785101 -0.824355
C38   C     C_R   0.066333 0.386648 0.529569 0.005922
C39   C     C_R   0.935736 0.610752 0.458196 -0.005267
C40   C     C_R   0.938223 0.383487 0.524187 0.056111
C41   C     C_R   0.063688 0.610170 0.459274 0.074767
C42   C     C_R   0.872585 0.497852 0.492022 -0.116637
H1    H     H_    0.746066 0.430490 0.693044 0.155178
H2    H     H_    0.048298 0.517086 0.283919 0.275285
H3    H     H_    0.312231 0.335417 0.733147 0.235363
H4    H     H_    0.264544 0.494455 0.706703 0.173680
H5    H     H_    0.761657 0.397161 0.199777 0.193956
H6    H     H_    0.765186 0.545734 0.259758 0.166164
H7    H     H_    0.155734 0.597896 0.843240 0.201030
H8    H     H_    0.128372 0.431536 0.869639 0.212201
H9    H     H_    0.791222 0.706380 0.157813 0.180689
H10   H     H_    0.870834 0.560683 0.131761 0.180790
H11   H     H_    0.107353 0.647015 0.052500 0.210712
H12   H     H_    0.807740 0.425162 0.807421 0.124882
H13   H     H_    0.088137 0.478342 0.058890 0.182050
H14   H     H_    0.790066 0.750467 0.882422 0.240581
H15   H     H_    0.873985 0.602699 0.901248 0.210751
H16   H     H_    0.113359 0.187754 0.537461 0.165001
H17   H     H_    0.109132 0.268666 0.638490 0.172056
H18   H     H_    0.806339 0.696486 0.372927 0.181735
H19   H     H_    0.833605 0.782109 0.471913 0.210190
H20   H     H_    0.899357 0.183618 0.516027 0.173883
H21   H     H_    0.902002 0.247645 0.622053 0.150027
H22   H     H_    0.105462 0.809341 0.455513 0.174520
H23   H     H_    0.954173 0.615514 0.767854 0.242105
H24   H     H_    0.099246 0.732628 0.353692 0.218869
H25   H     H_    0.707843 0.199857 0.667251 0.136638
H26   H     H_    0.688817 0.022486 0.688319 0.147913
H27   H     H_    0.590606 0.072386 0.831471 0.266803
H28   H     H_    0.741084 0.150857 0.827336 0.194403
H29   H     H_    0.602498 0.250857 0.810925 0.250802
H30   H     H_    0.640195 0.807744 0.295994 0.129951
H31   H     H_    0.615967 0.986985 0.297166 0.117626
H32   H     H_    0.464770 0.972448 0.172044 0.258447
H33   H     H_    0.605803 0.887575 0.142976 0.202759
H34   H     H_    0.976270 0.464714 0.704075 0.212153
H35   H     H_    0.471779 0.791058 0.173022 0.264529
H36   H     H_    0.224292 0.190185 0.372255 0.136089
H37   H     H_    0.254050 0.025083 0.410415 0.094212
H38   H     H_    0.263279 0.936205 0.259657 0.295563
H39   H     H_    0.128514 0.042422 0.263718 0.200281
H40   H     H_    0.266273 0.101745 0.210625 0.244135
H41   H     H_    0.318231 0.785289 0.650915 0.147143
H42   H     H_    0.322023 0.965750 0.664520 0.110931
H43   H     H_    0.398046 0.947676 0.818795 0.253121
H44   H     H_    0.263638 0.841159 0.803235 0.193320
H45   H     H_    0.894546 0.608323 0.655248 0.263964
H46   H     H_    0.417046 0.768243 0.809303 0.268388
H47   H     H_    0.262673 0.397872 0.327369 0.160882
H48   H     H_    0.249722 0.330685 0.214748 0.135572
H49   H     H_    0.038779 0.390021 0.197924 0.227254
H50   H     H_    0.052232 0.341152 0.313571 0.209103
N1    N     N_R   0.500000 0.857200 0.500000 -0.208729
N2    N     N_3   0.873474 0.726691 0.420708 -0.489029
N3    N     N_3   0.875003 0.266134 0.555242 -0.449588
N4    N     N_3   0.128369 0.721679 0.420916 -0.395170
N5    N     N_R   0.500000 0.142800 0.500000 -0.200259
N6    N     N_3   0.287703 0.428852 0.759482 -0.480368
N7    N     N_3   0.711401 0.464049 0.238714 -0.460057
N8    N     N_3   0.150704 0.526942 0.894694 -0.493404
N9    N     N_3   0.818373 0.641437 0.106883 -0.451577
N10   N     N_3   0.146615 0.558002 0.077790 -0.379861
N11   N     N_3   0.816603 0.675346 0.928167 -0.433752
N12   N     N_3   0.133969 0.277286 0.571586 -0.437478
O1    O     O_R   0.316770 0.614620 0.499990 -0.609580
O2    O     O_3   0.266640 0.541463 0.229407 -0.597969
O3    O     O_3   0.526574 0.137650 0.659493 -0.553737
O4    O     O_3   0.468360 0.862711 0.340908 -0.544204
O5    O     O_3   0.405979 0.133269 0.353630 -0.571370
O6    O     O_3   0.495804 0.865221 0.660021 -0.540708
O7    O     O_R   0.683230 0.385380 0.500010 -0.599800
O8    O     O_R   0.683230 0.614620 0.500010 -0.634805
O9    O     O_R   0.316770 0.385380 0.499990 -0.610766
O10   O     O_R   0.499980 0.614680 0.367850 -0.564597
O11   O     O_R   0.500020 0.385320 0.632150 -0.582409
O12   O     O_R   0.500020 0.614680 0.632150 -0.550121
O13   O     O_R   0.499980 0.385320 0.367850 -0.586582
O14   O     O_3   0.709718 0.600024 0.769255 -0.602065
Zn1   Zn    Zn3+2 0.500000 0.653120 0.500000 1.003827
Zn2   Zn    Zn3+2 0.500000 0.346880 0.500000 0.995561

loop_
_geom_bond_atom_site_label_1
_geom_bond_atom_site_label_2
_ccdc_geom_bond_type
C36   H41   S    
C31   O4    S    
C7    O13   A    
C37   H46   S    
C3    C6    A    
C25   O14   S    
C25   H1    S    
C32   H33   S    
C30   H29   S    
C35   H39   S    
C39   C41   A    
C4    O4    S    
H13   N10   S    
H17   N12   S    
C7    O10   A    
C37   H43   S    
C36   C37   S    
C19   C21   A    
C1    C2    S    
H3    N6    S    
C32   H32   S    
C11   C14   A    
C33   H36   S    
C31   H31   S    
C41   N4    S    
C2    C41   A    
C29   H26   S    
H21   N3    S    
C35   H38   S    
H5    N7    S    
C27   H48   S    
C24   N9    S    
C2    C38   A    
C12   C42   S    
C8    O11   A    
C17   C19   A    
C32   H35   S    
C29   H25   S    
C26   H45   S    
C26   H34   S    
O10   Zn1   S    
C20   C34   A    
C40   C42   A    
H4    N6    S    
H20   N3    S    
C9    O14   S    
C6    O6    S    
C1    O9    A    
C30   H28   S    
C35   H40   S    
C14   N6    S    
C39   C42   A    
C10   C21   A    
H15   N11   S    
H10   N9    S    
C17   C24   A    
C22   N8    S    
C37   H44   S    
C25   H12   S    
H22   N4    S    
O13   Zn2   S    
H19   N2    S    
C33   H37   S    
C27   O2    S    
C3    O3    S    
C25   C26   S    
C28   H2    S    
C24   C34   A    
O7    Zn2   S    
C39   N2    S    
C29   C30   S    
O9    Zn2   S    
C3    N5    A    
C9    C20   A    
C31   C32   S    
H11   N10   S    
C6    N1    A    
C28   H50   S    
C9    C11   A    
C31   H30   S    
C5    N5    A    
C21   C23   A    
C36   O6    S    
C14   C16   A    
C10   O2    S    
H16   N12   S    
C40   N3    S    
C12   O8    A    
C30   H27   S    
H24   N4    S    
C15   C17   A    
H6    N7    S    
C16   C22   A    
C26   H23   S    
O1    Zn1   S    
H14   N11   S    
C15   N7    S    
C4    C5    A    
C10   C13   A    
O8    Zn1   S    
C38   N12   S    
H9    N9    S    
H8    N8    S    
C34   N11   S    
O12   Zn1   S    
N5    Zn2   S    
C13   C15   A    
H7    N8    S    
C38   C40   A    
C5    O5    S    
C36   H42   S    
C8    C11   S    
C33   C35   S    
C27   H47   S    
C28   H49   S    
C18   C20   A    
C8    O12   A    
C4    N1    A    
C23   N10   S    
C7    C13   S    
C33   O5    S    
C16   C18   A    
O11   Zn2   S    
C27   C28   S    
C18   C19   A    
C22   C23   A    
C29   O3    S    
N1    Zn1   S    
C12   O7    A    
C1    O1    A    
H18   N2    S    
