data_mof_unit_17123.cif
_audit_creation_date              2012-12-10T17:19:42-0500
_audit_creation_method            fapswitch 2.2
_symmetry_space_group_name_H-M    P1
_symmetry_Int_Tables_number       1
_space_group_crystal_system       triclinic
_cell_length_a                    10.214149
_cell_length_b                    10.464288
_cell_length_c                    11.52206
_cell_angle_alpha                 91.011836
_cell_angle_beta                  82.309784
_cell_angle_gamma                 93.841293
_cell_volume                      1217.65642549

loop_
_atom_site_label
_atom_site_type_symbol
_atom_type_description
_atom_site_fract_x
_atom_site_fract_y
_atom_site_fract_z
_atom_type_partial_charge
C1    C     C_R   0.552924 0.733983 0.484191 0.915090
C2    C     C_2   0.422386 0.130445 0.472135 -0.431755
C3    C     C_2   0.489566 0.928066 0.394671 0.114642
C4    C     C_2   0.505604 0.067623 0.392380 0.111922
C5    C     C_2   0.925934 0.498423 0.521174 0.172806
C6    C     C_2   0.071592 0.476950 0.498454 0.204905
C7    C     C_3   0.622049 0.133623 0.313485 -0.352380
C8    C     C_3   0.682056 0.050585 0.211051 -0.380634
C9    C     C_3   0.794124 0.125603 0.134933 -0.885193
C10   C     C_3   0.370818 0.859321 0.346783 -0.346589
C11   C     C_3   0.305640 0.939146 0.262240 -0.387347
C12   C     C_R   0.446650 0.265765 0.498150 0.924596
C13   C     C_3   0.192242 0.861046 0.215043 -0.881691
C14   C     C_3   0.141739 0.384499 0.305869 -0.731532
C15   C     C_3   0.897024 0.533416 0.734468 -0.789689
C16   C     C_R   0.500863 0.500057 0.717836 0.910061
C17   C     C_R   0.499106 0.499870 0.282168 0.868119
C18   C     C_1   0.502058 0.499732 0.838199 -0.208306
C19   C     C_1   0.497745 0.500059 0.161882 -0.214417
C20   C     C_1   0.500974 0.499753 0.940583 -0.008801
C21   C     C_1   0.498725 0.499954 0.059530 -0.004979
C22   C     C_2   0.575706 0.868171 0.451872 -0.427563
H1    H     H_    0.337380 0.079292 0.521735 0.144722
H2    H     H_    0.587546 0.220465 0.275834 0.205535
H3    H     H_    0.701907 0.162583 0.367163 0.215832
H4    H     H_    0.229646 0.775646 0.165947 0.264953
H5    H     H_    0.115308 0.829368 0.288141 0.259304
H6    H     H_    0.146393 0.920868 0.154879 0.253850
H7    H     H_    0.265147 0.025157 0.308046 0.232664
H8    H     H_    0.379555 0.970876 0.187187 0.223606
H9    H     H_    0.404382 0.771748 0.298924 0.208066
H10   H     H_    0.293987 0.831401 0.421210 0.216521
H11   H     H_    0.060488 0.283898 0.455561 0.194002
H12   H     H_    0.662154 0.921063 0.478666 0.142364
H13   H     H_    0.233708 0.337624 0.272203 0.245446
H14   H     H_    0.153795 0.487389 0.281336 0.245732
H15   H     H_    0.060464 0.337243 0.262358 0.189477
H16   H     H_    0.803042 0.632958 0.613868 0.276465
H17   H     H_    0.798869 0.509591 0.785788 0.258180
H18   H     H_    0.948921 0.611151 0.780867 0.230922
H19   H     H_    0.955385 0.447108 0.730522 0.239174
H20   H     H_    0.124126 0.630743 0.592027 0.162617
H21   H     H_    0.878909 0.393288 0.383824 0.150455
H22   H     H_    0.756501 0.210833 0.097370 0.267318
H23   H     H_    0.874176 0.157227 0.187528 0.254756
H24   H     H_    0.836014 0.063615 0.061928 0.253515
H25   H     H_    0.722720 0.964822 0.244741 0.234106
H26   H     H_    0.605047 0.018470 0.155680 0.223117
N1    N     N_2   0.842700 0.448890 0.453570 -0.219936
N2    N     N_2   0.157300 0.551110 0.546430 -0.202041
N3    N     N_2   0.114946 0.368126 0.431696 -0.260136
N4    N     N_2   0.880658 0.576940 0.618814 -0.306833
O1    O     O_R   0.431060 0.692470 0.509350 -0.612657
O2    O     O_R   0.568940 0.307530 0.490650 -0.610138
O3    O     O_R   0.651120 0.659650 0.479540 -0.621537
O4    O     O_R   0.348880 0.340350 0.520460 -0.573031
O5    O     O_R   0.389960 0.516400 0.680450 -0.597893
O6    O     O_R   0.610040 0.483600 0.319550 -0.609711
O7    O     O_R   0.610030 0.483580 0.650650 -0.604202
O8    O     O_R   0.389970 0.516420 0.349350 -0.601676
Zn1   Zn    Zn3+2 0.353060 0.521910 0.519900 0.937028
Zn2   Zn    Zn3+2 0.646940 0.478090 0.480100 0.918800

loop_
_geom_bond_atom_site_label_1
_geom_bond_atom_site_label_2
_ccdc_geom_bond_type
O6    Zn2   S    
C11   H7    S    
C2    C4    D    
C8    H26   S    
C13   H6    S    
O5    Zn1   S    
C7    C8    S    
C6    N3    S    
H11   N3    S    
C14   N3    S    
C7    H3    S    
C17   O6    A    
C2    C12   S    
C15   H18   S    
C1    O3    A    
C8    H25   S    
C9    H24   S    
C5    N4    S    
C3    C10   S    
C15   N4    S    
C6    N2    D    
C14   H15   S    
C9    H23   S    
C11   C13   S    
C15   H17   S    
C12   O4    A    
H20   N2    S    
C4    C7    S    
C17   C19   S    
C18   C20   T    
C16   O5    A    
C14   H14   S    
C5    C6    S    
C22   H12   S    
C12   O2    A    
C13   H4    S    
C5    N1    D    
H16   N4    S    
C10   C11   S    
C17   O8    A    
C3    C4    S    
O7    Zn2   S    
O3    Zn2   S    
C10   H10   S    
C1    C22   S    
C20   C21   S    
C15   H19   S    
C8    C9    S    
C16   C18   S    
C2    H1    S    
N2    Zn1   S    
C1    O1    A    
O4    Zn1   S    
C13   H5    S    
C9    H22   S    
N1    Zn2   S    
O2    Zn2   S    
C19   C21   T    
O1    Zn1   S    
C10   H9    S    
C14   H13   S    
H21   N1    S    
C7    H2    S    
C11   H8    S    
O8    Zn1   S    
C3    C22   D    
C16   O7    A    
