data_mof_unit_35854.cif
_audit_creation_date              2012-12-10T22:11:10-0500
_audit_creation_method            fapswitch 2.2
_symmetry_space_group_name_H-M    P1
_symmetry_Int_Tables_number       1
_space_group_crystal_system       triclinic
_cell_length_a                    12.092687
_cell_length_b                    12.31514
_cell_length_c                    22.982593
_cell_angle_alpha                 90.701054
_cell_angle_beta                  90.737858
_cell_angle_gamma                 89.986158
_cell_volume                      3422.09976082

loop_
_atom_site_label
_atom_site_type_symbol
_atom_type_description
_atom_site_fract_x
_atom_site_fract_y
_atom_site_fract_z
_atom_type_partial_charge
C1    C     C_R   0.657427 0.997811 0.579200 0.871068
C2    C     C_R   0.342571 0.002188 0.420800 0.871082
C3    C     C_R   0.893375 0.813538 0.128045 0.273792
C4    C     C_R   0.106593 0.186412 0.871986 0.273735
C5    C     C_R   0.088322 0.852281 0.192411 -0.181256
C6    C     C_R   0.911709 0.147805 0.807545 -0.181320
C7    C     C_R   0.085992 0.771875 0.150168 -0.213708
C8    C     C_R   0.914041 0.228212 0.849788 -0.213749
C9    C     C_R   0.900364 0.164605 0.194861 -0.179261
C10   C     C_R   0.099605 0.835315 0.805096 -0.179311
C11   C     C_R   0.904102 0.246092 0.154171 -0.216451
C12   C     C_R   0.095866 0.753827 0.845786 -0.216482
C13   C     C_R   0.114496 0.910143 0.321357 -0.163426
C14   C     C_R   0.885567 0.089830 0.678607 -0.163410
C15   C     C_R   0.197183 0.908750 0.363384 -0.194509
C16   C     C_R   0.802882 0.091223 0.636579 -0.194532
C17   C     C_R   0.873503 0.099853 0.322036 -0.164926
C18   C     C_R   0.126433 0.900168 0.677931 -0.164918
C19   C     C_R   0.794097 0.098524 0.364578 -0.192688
C20   C     C_R   0.205839 0.901497 0.635388 -0.192705
C21   C     C_3   0.993549 0.006638 0.248013 -0.075789
C22   C     C_3   0.006450 0.993363 0.751988 -0.075770
C23   C     C_R   0.654478 0.001447 0.420663 0.871506
C24   C     C_R   0.345522 0.998552 0.579337 0.871489
C25   C     C_R   0.091812 0.005479 0.290165 0.124476
C26   C     C_R   0.908181 0.994522 0.709838 0.124470
C27   C     C_R   0.256042 0.003742 0.376682 -0.026823
C28   C     C_R   0.743950 0.996257 0.623321 -0.026798
C29   C     C_R   0.895208 0.006044 0.288496 0.124753
C30   C     C_R   0.104793 0.993952 0.711504 0.124751
C31   C     C_R   0.737280 0.002371 0.375850 -0.025426
C32   C     C_R   0.262722 0.997627 0.624150 -0.025403
C33   C     C_R   0.995748 0.103959 0.207920 0.061332
C34   C     C_R   0.004249 0.896042 0.792083 0.061324
C35   C     C_R   0.001545 0.265923 0.123745 -0.107334
C36   C     C_R   0.998457 0.734075 0.876256 -0.107279
C37   C     C_R   0.992073 0.911068 0.205372 0.061922
C38   C     C_R   0.007928 0.088941 0.794625 0.061910
C39   C     C_R   0.988959 0.750763 0.117961 -0.106594
C40   C     C_R   0.011041 0.249250 0.882034 -0.106543
C41   C     C_R   0.991987 0.663505 0.074732 0.887670
C42   C     C_R   0.008013 0.336497 0.925267 0.887653
C43   C     C_R   0.000022 0.350582 0.080267 0.883941
C44   C     C_R   0.999979 0.649418 0.919734 0.883924
C45   C     C_R   0.148693 0.101675 0.305798 -0.176021
C46   C     C_R   0.851215 0.898350 0.694249 -0.176069
C47   C     C_R   0.230919 0.100339 0.348123 -0.186022
C48   C     C_R   0.768991 0.899687 0.651923 -0.186036
C49   C     C_R   0.839260 0.908947 0.301376 -0.175257
C50   C     C_R   0.160815 0.091026 0.698662 -0.175303
C51   C     C_R   0.760161 0.907597 0.344241 -0.187028
C52   C     C_R   0.239912 0.092376 0.655795 -0.187048
C53   C     C_R   0.092317 0.122279 0.176080 -0.186088
C54   C     C_R   0.907713 0.877787 0.823962 -0.186080
C55   C     C_R   0.096380 0.201965 0.134362 0.273248
C56   C     C_R   0.903657 0.798105 0.865683 0.273189
C57   C     C_R   0.896109 0.892824 0.171339 -0.186539
C58   C     C_R   0.103863 0.107127 0.828691 -0.186522
H1    H     H_    0.274178 0.175162 0.358716 0.159831
H2    H     H_    0.725667 0.824884 0.641364 0.159820
H3    H     H_    0.858777 0.832672 0.280104 0.143158
H4    H     H_    0.141357 0.167289 0.719961 0.143193
H5    H     H_    0.164741 0.072089 0.183019 0.172729
H6    H     H_    0.835316 0.928029 0.817053 0.172758
H7    H     H_    0.823113 0.942140 0.178103 0.172660
H8    H     H_    0.176833 0.057762 0.821953 0.172687
H9    H     H_    0.166805 0.869389 0.213598 0.160251
H10   H     H_    0.833240 0.130757 0.786331 0.160267
H11   H     H_    0.821607 0.147879 0.214563 0.160218
H12   H     H_    0.178346 0.851978 0.785362 0.160228
H13   H     H_    0.067698 0.836488 0.313094 0.139231
H14   H     H_    0.932420 0.163461 0.686841 0.139250
H15   H     H_    0.919608 0.174069 0.315776 0.138722
H16   H     H_    0.080277 0.825974 0.684165 0.138741
H17   H     H_    0.717940 0.832095 0.353026 0.159844
H18   H     H_    0.282190 0.167859 0.647038 0.159836
H19   H     H_    0.161382 0.726630 0.142554 0.185112
H20   H     H_    0.838677 0.273515 0.857373 0.185073
H21   H     H_    0.829555 0.292504 0.145864 0.183134
H22   H     H_    0.170386 0.707349 0.854058 0.183083
H23   H     H_    0.213638 0.833769 0.386078 0.158210
H24   H     H_    0.786488 0.166181 0.613851 0.158195
H25   H     H_    0.779006 0.172247 0.389418 0.158538
H26   H     H_    0.220877 0.827796 0.610520 0.158524
H27   H     H_    0.128339 0.179061 0.286702 0.143059
H28   H     H_    0.871503 0.820975 0.713378 0.143097
O1    O     O_R   0.621380 0.090460 0.561410 -0.628505
O2    O     O_R   0.378620 0.909540 0.438590 -0.628510
O3    O     O_R   0.617150 0.909540 0.438590 -0.626868
O4    O     O_R   0.382850 0.090460 0.561410 -0.626867
O5    O     O_R   0.619720 0.093230 0.440890 -0.629455
O6    O     O_R   0.380280 0.906770 0.559110 -0.629452
O7    O     O_R   0.618800 0.906770 0.559110 -0.626651
O8    O     O_R   0.381200 0.093230 0.440890 -0.626654
O9    O     O_R   0.087590 0.627480 0.058790 -0.631959
O10   O     O_R   0.912410 0.372520 0.941210 -0.631952
O11   O     O_R   0.905660 0.383870 0.059980 -0.628353
O12   O     O_R   0.094340 0.616130 0.940020 -0.628343
O13   O     O_R   0.092570 0.390420 0.063230 -0.573129
O14   O     O_R   0.907430 0.609580 0.936770 -0.573173
O15   O     O_R   0.900680 0.620930 0.055550 -0.568969
O16   O     O_R   0.099320 0.379070 0.944450 -0.569009
Zn1   Zn    Zn3+2 0.501730 0.123520 0.501540 0.948679
Zn2   Zn    Zn3+2 0.498270 0.876480 0.498460 0.948679
Zn3   Zn    Zn3+2 0.125690 0.504390 0.002180 1.066973
Zn4   Zn    Zn3+2 0.874310 0.495610 0.997820 1.066965
Br1   Br    Br    0.231933 0.210484 0.091623 -0.413701
Br2   Br    Br    0.768181 0.789686 0.908491 -0.413675
Br3   Br    Br    0.758556 0.802281 0.083053 -0.411162
Br4   Br    Br    0.241349 0.197581 0.917033 -0.411166

loop_
_geom_bond_atom_site_label_1
_geom_bond_atom_site_label_2
_ccdc_geom_bond_type
C16   C28   A    
C17   H15   S    
C1    O1    A    
C5    C37   A    
C53   H5    S    
C17   C29   A    
C5    H9    S    
C19   C31   A    
C39   C41   S    
C29   C49   A    
O12   Zn3   S    
C21   C25   S    
C42   O10   A    
C43   O13   A    
C19   H25   S    
C21   C33   S    
C25   C45   A    
C22   C38   S    
C24   O6    A    
O16   Zn3   S    
C45   C47   A    
C56   Br2   S    
C4    Br4   S    
O9    Zn3   S    
C38   C58   A    
C44   O12   A    
C11   C35   A    
C58   H8    S    
C32   C52   A    
C4    C40   A    
C49   C51   A    
C1    C28   S    
C50   C52   A    
C6    C38   A    
C2    O2    A    
C2    C27   S    
C18   C30   A    
C12   C36   A    
C35   C43   S    
C18   C20   A    
C7    H19   S    
C6    H10   S    
C30   C50   A    
C3    C39   A    
C18   H16   S    
C8    H20   S    
C13   C25   A    
C11   H21   S    
O13   Zn3   S    
C42   O16   A    
O7    Zn2   S    
C16   H24   S    
O2    Zn2   S    
C48   H2    S    
C46   C48   A    
C53   C55   A    
C33   C53   A    
C22   C34   S    
C54   C56   A    
C49   H3    S    
C35   C55   A    
C2    O8    A    
C15   H23   S    
O5    Zn1   S    
C5    C7    A    
C26   C46   A    
C6    C8    A    
C13   H13   S    
C21   C29   S    
C55   Br1   S    
C23   C31   S    
C45   H27   S    
C24   C32   S    
C36   C56   A    
C31   C51   A    
C15   C27   A    
C23   O3    A    
C10   C34   A    
C14   C26   A    
C9    C11   A    
C10   C12   A    
C9    C33   A    
O1    Zn1   S    
O11   Zn4   S    
C3    C57   A    
O8    Zn1   S    
C34   C54   A    
C13   C15   A    
O3    Zn2   S    
C9    H11   S    
C14   C16   A    
C36   C44   S    
C10   H12   S    
C51   H17   S    
C20   C32   A    
C27   C47   A    
O15   Zn4   S    
O10   Zn4   S    
C28   C48   A    
C22   C30   S    
C14   H14   S    
C43   O11   A    
C57   H7    S    
C52   H18   S    
C24   O4    A    
O14   Zn4   S    
C20   H26   S    
C44   O14   A    
C41   O9    A    
C54   H6    S    
C3    Br3   S    
C50   H4    S    
C12   H22   S    
C40   C42   S    
C17   C19   A    
C41   O15   A    
C23   O5    A    
O4    Zn1   S    
O6    Zn2   S    
C47   H1    S    
C21   C37   S    
C1    O7    A    
C22   C26   S    
C4    C58   A    
C7    C39   A    
C8    C40   A    
C37   C57   A    
C46   H28   S    
