data_mof_unit_10162.cif
_audit_creation_date              2013-03-05T16:05:55-0500
_audit_creation_method            fapswitch 2.2
_symmetry_space_group_name_H-M    P1
_symmetry_Int_Tables_number       1
_space_group_crystal_system       triclinic
_cell_length_a                    26.174925
_cell_length_b                    7.188662
_cell_length_c                    23.910986
_cell_angle_alpha                 89.914054
_cell_angle_beta                  101.512746
_cell_angle_gamma                 90.090812
_cell_volume                      4408.62513448

loop_
_atom_site_label
_atom_site_type_symbol
_atom_site_description
_atom_site_fract_x
_atom_site_fract_y
_atom_site_fract_z
_atom_type_partial_charge
O1    O     O_R   0.797620 0.601060 0.203310 -0.583511
O2    O     O_R   0.202380 0.398940 0.796690 -0.590243
O3    O     O_R   0.702380 0.101060 0.296690 -0.591244
O4    O     O_R   0.297620 0.898940 0.703310 -0.591897
O5    O     O_R   0.692070 0.267810 0.186600 -0.575734
O6    O     O_R   0.307930 0.732190 0.813400 -0.574010
O7    O     O_R   0.807930 0.767810 0.313400 -0.576942
O8    O     O_R   0.192070 0.232190 0.686600 -0.573696
C1    C     C_R   0.673877 0.439553 0.171503 0.938475
C2    C     C_R   0.326131 0.560448 0.828488 0.941785
C3    C     C_R   0.826132 0.939573 0.328488 0.943755
C4    C     C_R   0.173874 0.060421 0.671501 0.942938
O9    O     O_R   0.796590 0.271120 0.196480 -0.584909
O10   O     O_R   0.203410 0.728880 0.803520 -0.595438
O11   O     O_R   0.703410 0.771120 0.303520 -0.597026
O12   O     O_R   0.296590 0.228880 0.696480 -0.596227
O13   O     O_R   0.807640 0.104280 0.306650 -0.578676
O14   O     O_R   0.192360 0.895720 0.693350 -0.578261
O15   O     O_R   0.692360 0.604280 0.193350 -0.577576
O16   O     O_R   0.307640 0.395720 0.806650 -0.578062
C5    C     C_R   0.812163 0.440049 0.184646 0.902531
C6    C     C_R   0.187703 0.559882 0.815659 0.912881
C7    C     C_R   0.687675 0.939773 0.315682 0.910708
C8    C     C_R   0.312359 0.060182 0.684309 0.914720
O17   O     O_3   0.753500 0.435660 0.286130 -0.285691
O18   O     O_3   0.246500 0.564340 0.713870 -0.282265
O19   O     O_3   0.746500 0.935660 0.213870 -0.275204
O20   O     O_3   0.253500 0.064340 0.786130 -0.281578
V1    V     V_3+5 0.749350 0.159470 0.243300 1.186383
V2    V     V_3+5 0.250650 0.840530 0.756700 1.179487
V3    V     V_3+5 0.750650 0.659470 0.256700 1.180713
V4    V     V_3+5 0.249350 0.340530 0.743300 1.179680
C9    C     C_R   0.366544 0.876774 0.627756 -0.127528
C10   C     C_R   0.638745 0.119994 0.378513 -0.137610
C11   C     C_R   0.142725 0.382549 0.882928 -0.136970
C12   C     C_R   0.900115 0.522717 0.166945 -0.130712
H1    H     H_    0.351320 0.748176 0.641547 0.134384
H2    H     H_    0.658002 0.246816 0.369520 0.134347
H3    H     H_    0.165266 0.259950 0.877611 0.135893
H4    H     H_    0.911331 0.569248 0.210763 0.136455
C13   C     C_R   0.402738 0.866433 0.591976 -0.155472
C14   C     C_R   0.602805 0.129397 0.414655 -0.145775
C15   C     C_R   0.106844 0.372088 0.919156 -0.153227
C16   C     C_R   0.936465 0.531755 0.131243 -0.135939
H5    H     H_    0.414194 0.730939 0.579003 0.107980
H6    H     H_    0.595217 0.262463 0.432580 0.108585
H7    H     H_    0.102943 0.242266 0.940983 0.112014
H8    H     H_    0.975250 0.583233 0.148710 0.127893
C17   C     C_R   0.423672 0.028854 0.572699 0.139572
C18   C     C_R   0.577009 0.968669 0.427820 0.121749
C19   C     C_R   0.076719 0.527600 0.927586 0.134512
C20   C     C_R   0.923131 0.473103 0.073960 0.107721
C21   C     C_R   0.407792 0.202217 0.590356 -0.118759
C22   C     C_R   0.587229 0.798650 0.403343 -0.151815
C23   C     C_R   0.083260 0.693597 0.898479 -0.120981
C24   C     C_R   0.872186 0.405957 0.053511 -0.107741
H9    H     H_    0.424085 0.329727 0.577180 0.109730
H10   H     H_    0.566451 0.673874 0.411032 0.107034
H11   H     H_    0.059598 0.814361 0.902484 0.112614
H12   H     H_    0.859628 0.366660 0.009233 0.123101
C25   C     C_R   0.371468 0.212849 0.626109 -0.146327
C26   C     C_R   0.623547 0.788613 0.367610 -0.132851
C27   C     C_R   0.119734 0.705005 0.862949 -0.141838
C28   C     C_R   0.836405 0.391431 0.089809 -0.157920
H13   H     H_    0.360382 0.348833 0.639012 0.131910
H14   H     H_    0.630367 0.655251 0.349426 0.132010
H15   H     H_    0.123599 0.834986 0.841199 0.133868
H16   H     H_    0.797634 0.338034 0.073177 0.116286
C29   C     C_R   0.350345 0.050147 0.645416 -0.124053
C30   C     C_R   0.649799 0.949260 0.354624 -0.121368
C31   C     C_R   0.149841 0.549430 0.854533 -0.121516
C32   C     C_R   0.850082 0.450469 0.146670 -0.104037
C33   C     C_R   0.457748 0.118805 0.484232 0.035767
C34   C     C_R   0.543539 0.879157 0.516975 0.038916
C35   C     C_R   0.033218 0.655741 0.005375 0.037861
C36   C     C_R   0.968141 0.340888 0.997534 0.039605
C37   C     C_R   0.495356 0.101218 0.450004 -0.223132
C38   C     C_R   0.505965 0.896942 0.551009 -0.194525
C39   C     C_R   0.995170 0.641221 0.039210 -0.249406
C40   C     C_R   0.005226 0.357949 0.962578 -0.244680
H17   H     H_    0.490745 0.180389 0.410702 0.136563
H18   H     H_    0.510903 0.819030 0.590561 0.142248
H19   H     H_    0.991736 0.753112 0.068523 0.128589
H20   H     H_    0.008416 0.247202 0.932778 0.127245
C41   C     C_R   0.538141 0.981069 0.465409 0.039608
C42   C     C_R   0.462874 0.015838 0.535349 0.050952
C43   C     C_R   0.962180 0.485005 0.035926 0.087159
C44   C     C_R   0.037856 0.514781 0.965630 0.083297
C45   C     C_3   0.960412 0.928455 0.522922 -0.290415
C46   C     C_3   0.039665 0.071467 0.476963 -0.291222
C47   C     C_3   0.539636 0.429123 0.976994 -0.290929
C48   C     C_3   0.460402 0.570876 0.022962 -0.290273
C49   C     C_3   0.988845 0.116012 0.538782 0.361801
C50   C     C_3   0.011229 0.883910 0.461101 0.362932
C51   C     C_3   0.511229 0.616569 0.961148 0.361486
C52   C     C_3   0.488809 0.383430 0.038807 0.361420
H21   H     H_    0.928940 0.868814 0.542447 0.187237
H22   H     H_    0.071136 0.131109 0.457438 0.186984
H23   H     H_    0.571099 0.369995 0.957463 0.186897
H24   H     H_    0.428941 0.630004 0.042494 0.187381
C53   C     C_1   0.128232 0.051681 0.625617 -0.251611
C54   C     C_1   0.871801 0.948291 0.374333 -0.256294
C55   C     C_1   0.371794 0.551760 0.874348 -0.250866
C56   C     C_1   0.628227 0.448241 0.125628 -0.251719
C57   C     C_3   0.014732 0.839439 0.524581 -0.094653
C58   C     C_3   0.985343 0.160481 0.475303 -0.095145
C59   C     C_3   0.485300 0.339595 0.975324 -0.093943
C60   C     C_3   0.514738 0.660403 0.024631 -0.094295
C61   C     C_3   0.042711 0.025458 0.541425 0.004699
C62   C     C_3   0.957364 0.974467 0.458463 0.004985
C63   C     C_3   0.457348 0.525518 0.958498 0.004250
C64   C     C_3   0.542690 0.474481 0.041459 0.004458
C65   C     C_1   0.089803 0.042109 0.587563 0.141409
C66   C     C_1   0.910253 0.957836 0.412354 0.140759
C67   C     C_1   0.410241 0.542193 0.912379 0.141425
C68   C     C_1   0.589790 0.457807 0.087585 0.140389
N1    N     N_3   0.413622 0.237354 0.466022 -0.215486
H25   H     H_    0.427375 0.372053 0.461439 0.106511
H26   H     H_    0.394092 0.192298 0.425854 0.128688
N2    N     N_3   0.587807 0.762867 0.537179 -0.206415
H27   H     H_    0.621727 0.840052 0.537351 0.127583
H28   H     H_    0.586958 0.650497 0.509424 0.101400
N3    N     N_3   0.068567 0.810255 0.013343 -0.219437
H29   H     H_    0.046866 0.932627 0.005229 0.093234
H30   H     H_    0.087755 0.812186 0.056109 0.128252
N4    N     N_3   0.937767 0.174049 0.994982 -0.218900
H31   H     H_    0.917762 0.156095 0.952898 0.117271
H32   H     H_    0.963190 0.061842 0.005420 0.107981
N5    N     N_R   0.975099 0.244250 0.580496 0.226579
O21   O     O_R   0.927752 0.307511 0.573800 -0.404628
O22   O     O_R   0.009232 0.289676 0.625769 -0.400327
N6    N     N_R   0.024961 0.755686 0.419373 0.226205
O23   O     O_R   0.072304 0.692389 0.426060 -0.405804
O24   O     O_R   0.990826 0.710347 0.374092 -0.408865
N7    N     N_R   0.524991 0.745383 0.919444 0.226686
O25   O     O_R   0.572343 0.809075 0.926149 -0.404971
O26   O     O_R   0.490866 0.790904 0.874168 -0.399828
N8    N     N_R   0.475047 0.254615 0.080511 0.226499
O27   O     O_R   0.427694 0.190924 0.073806 -0.404644
O28   O     O_R   0.509171 0.209089 0.125787 -0.400452
N9    N     N_3   0.968691 0.335446 0.446828 -0.167284
H33   H     H_    0.937823 0.387298 0.463885 0.146810
H34   H     H_    0.999728 0.428217 0.457233 0.156513
N10   N     N_3   0.031384 0.664466 0.553049 -0.165890
H35   H     H_    0.062254 0.612631 0.535994 0.147107
H36   H     H_    0.000348 0.571693 0.542634 0.156452
N11   N     N_3   0.531413 0.835251 0.053110 -0.165809
H37   H     H_    0.562300 0.887540 0.036068 0.146733
H38   H     H_    0.500396 0.927844 0.042686 0.156358
N12   N     N_3   0.468626 0.164748 0.946846 -0.165713
H39   H     H_    0.437740 0.112453 0.963889 0.146980
H40   H     H_    0.499644 0.072157 0.957268 0.156306

loop_
_geom_bond_atom_site_label_1
_geom_bond_atom_site_label_2
_geom_bond_distance
_ccdc_geom_bond_type
O17   V3    1.750808 S    
C16   H8    1.082617 S    
C50   C57   1.535463 S    
O1    C5    1.324588 A    
N4    H31   1.045593 S    
C23   H11   1.082617 S    
O19   V1    1.752530 S    
C53   C65   1.216161 T    
O3    C7    1.328705 A    
N11   H37   1.044517 S    
C10   C14   1.400429 A    
O1    V3    1.986780 S    
C40   H20   1.083592 S    
O15   V3    1.963953 S    
C57   N10   1.454712 S    
C39   C43   1.408203 A    
N7    O25   1.300266 A    
O7    C3    1.346336 A    
C52   C64   1.543687 S    
C18   C22   1.404842 A    
C35   N3    1.432889 S    
C28   H16   1.083284 S    
O9    V1    1.993280 S    
C2    C55   1.453206 S    
N11   H38   1.041515 S    
N1    H26   1.045537 S    
C52   N8    1.456428 S    
O4    C8    1.328818 A    
N3    H30   1.045526 S    
C48   C52   1.549622 S    
O13   V1    1.964019 S    
C26   C30   1.408489 A    
O2    V4    1.986778 S    
C14   H6    1.083508 S    
O3    V1    1.985148 S    
C18   C41   1.488731 S    
C56   C68   1.216177 T    
C59   N12   1.454726 S    
C21   C25   1.401974 A    
C1    O15   1.344753 A    
C2    O16   1.344748 A    
N6    O23   1.300266 A    
C23   C27   1.401149 A    
O2    C6    1.328306 A    
C24   C28   1.401863 A    
O14   V2    1.964017 S    
C37   H17   1.083942 S    
C11   C15   1.400864 A    
C10   C30   1.409109 A    
C9    C29   1.409305 A    
C60   N11   1.454728 S    
C38   C42   1.405844 A    
O11   C7    1.332122 A    
C11   C31   1.407897 A    
O12   C8    1.332790 A    
C7    C30   1.491108 S    
O10   V2    1.993276 S    
C49   N5    1.456438 S    
C13   C17   1.404686 A    
C16   C20   1.409276 A    
N2    H28   1.043603 S    
C8    C29   1.492708 S    
C46   C50   1.549645 S    
O5    V1    1.970194 S    
C27   H15   1.083058 S    
O7    V3    1.969926 S    
C26   H14   1.082953 S    
C5    C32   1.474630 S    
O8    V4    1.969925 S    
C47   C59   1.553405 S    
N3    H29   1.044622 S    
C33   N1    1.432181 S    
C46   C58   1.553396 S    
N10   H36   1.041509 S    
N8    O27   1.300268 A    
C21   H9    1.082998 S    
C36   N4    1.432512 S    
C22   C26   1.401246 A    
C45   C62   1.562310 S    
C50   C62   1.543650 S    
C50   N6    1.456472 S    
C60   C64   1.538667 S    
C45   H21   1.110027 S    
C47   C64   1.562338 S    
C11   H3    1.083019 S    
O5    C1    1.346562 A    
C55   C67   1.216187 T    
C54   C66   1.216109 T    
C25   H13   1.082832 S    
C49   C58   1.535431 S    
C38   H18   1.083806 S    
C12   H4    1.083419 S    
O8    C4    1.346374 A    
C51   N7    1.456428 S    
O9    C5    1.328298 A    
C13   H5    1.083423 S    
C36   C43   1.414524 A    
N8    O28   1.300304 A    
C14   C18   1.404025 A    
N6    O24   1.300323 A    
O6    V2    1.970196 S    
C52   C59   1.535436 S    
C27   C31   1.406807 A    
C22   H10   1.082587 S    
N12   H40   1.041516 S    
C12   C16   1.400735 A    
C4    O14   1.344588 A    
C6    C31   1.489635 S    
C64   C68   1.485936 S    
N2    H27   1.045543 S    
C48   H24   1.110027 S    
C58   N9    1.454723 S    
N5    O21   1.300268 A    
O16   V4    1.963953 S    
C25   C29   1.408906 A    
N7    O26   1.300305 A    
C57   C61   1.538665 S    
C3    O13   1.344590 A    
N4    H32   1.044293 S    
C10   H2    1.082920 S    
C59   C63   1.538670 S    
C17   C42   1.491835 S    
C20   C43   1.499870 S    
C36   C40   1.406796 A    
N10   H35   1.044513 S    
C19   C44   1.496497 S    
O6    C2    1.346572 A    
C48   C63   1.562339 S    
O11   V3    1.996209 S    
O18   V4    1.750808 S    
C61   C65   1.485907 S    
O12   V4    1.996208 S    
C34   N2    1.432915 S    
C9    C13   1.399617 A    
C62   C66   1.485819 S    
O10   C6    1.331981 A    
N9    H34   1.041512 S    
C4    C53   1.453162 S    
C40   C44   1.406483 A    
C51   C63   1.543694 S    
N9    H33   1.044511 S    
C39   H19   1.083227 S    
C15   C19   1.406800 A    
C15   H7    1.083173 S    
C37   C41   1.404758 A    
C1    C56   1.453179 S    
C17   C21   1.406211 A    
O20   V2    1.752530 S    
C3    C54   1.453077 S    
C19   C23   1.407869 A    
C28   C32   1.401353 A    
C34   C41   1.415995 A    
C45   C49   1.549598 S    
C9    H1    1.082818 S    
C33   C42   1.411371 A    
C51   C60   1.535437 S    
C47   C51   1.549632 S    
C12   C32   1.401794 A    
C35   C44   1.412119 A    
C24   H12   1.081863 S    
C58   C62   1.538624 S    
C34   C38   1.402170 A    
C45   C57   1.553378 S    
C33   C37   1.406087 A    
N12   H39   1.044515 S    
C63   C67   1.485953 S    
C46   C61   1.562367 S    
C47   H23   1.110028 S    
N1    H25   1.045732 S    
C48   C60   1.553397 S    
C35   C39   1.406510 A    
C46   H22   1.110024 S    
O4    V2    1.985148 S    
C20   C24   1.410187 A    
C49   C61   1.543674 S    
N5    O22   1.300302 A    
