data_mof_unit_48396.cif
_audit_creation_date              2012-12-10T17:14:05-0500
_audit_creation_method            fapswitch 2.2
_symmetry_space_group_name_H-M    P1
_symmetry_Int_Tables_number       1
_space_group_crystal_system       triclinic
_cell_length_a                    15.91742
_cell_length_b                    13.054992
_cell_length_c                    11.702968
_cell_angle_alpha                 100.163584
_cell_angle_beta                  93.949505
_cell_angle_gamma                 91.054753
_cell_volume                      2386.89461753

loop_
_atom_site_label
_atom_site_type_symbol
_atom_type_description
_atom_site_fract_x
_atom_site_fract_y
_atom_site_fract_z
_atom_type_partial_charge
C1    C     C_R   0.509258 0.300193 0.478445 0.831063
C2    C     C_3   0.955708 0.444571 0.609315 -0.186081
C3    C     C_3   0.916354 0.487269 0.500181 -0.064323
C4    C     C_3   0.951956 0.600759 0.508220 0.291650
C5    C     C_3   0.050324 0.604460 0.522282 0.431107
C6    C     C_1   0.824062 0.492657 0.499571 0.083254
C7    C     C_1   0.175854 0.493245 0.500114 -0.083530
C8    C     C_1   0.251109 0.496696 0.500054 -0.098569
C9    C     C_R   0.502030 0.815268 0.535003 -0.294476
C10   C     C_R   0.524959 0.187234 0.465888 -0.091178
C11   C     C_R   0.497137 0.017341 0.348196 -0.184139
C12   C     C_R   0.340343 0.499581 0.500106 0.847696
C13   C     C_R   0.516116 0.122406 0.355215 -0.017624
C14   C     C_R   0.542528 0.141144 0.565906 -0.049197
C15   C     C_R   0.530570 0.032105 0.557005 -0.124464
C16   C     C_R   0.500626 0.971537 0.448126 0.026132
C17   C     C_R   0.479316 0.864999 0.439877 -0.123396
C18   C     C_R   0.535407 0.874588 0.640756 0.560167
C19   C     C_R   0.547880 0.981213 0.652707 0.538361
C20   C     C_R   0.423011 0.394796 0.019611 -0.171748
C21   C     C_R   0.427242 0.410407 0.143056 0.037683
C22   C     C_R   0.535712 0.540270 0.156500 0.778852
C23   C     C_R   0.499279 0.701062 0.521692 0.914409
C24   C     C_R   0.530097 0.532120 0.033376 -0.131013
C25   C     C_R   0.472735 0.459299 0.963595 -0.152292
C26   C     C_R   0.465535 0.456561 0.840591 0.788348
C27   C     C_R   0.572496 0.587617 0.856892 0.034413
C28   C     C_R   0.580402 0.595763 0.978453 -0.222719
C29   C     C_R   0.659690 0.499897 0.499839 0.834413
C30   C     C_3   0.054335 0.429035 0.601467 -0.186666
C31   C     C_3   0.042612 0.430391 0.374828 -0.122497
C32   C     C_3   0.942662 0.423323 0.382372 -0.274840
C33   C     C_1   0.748873 0.496642 0.499370 -0.049354
C34   C     C_3   0.083214 0.488373 0.500352 -0.182799
Cu1   Cu    Cu3+1 0.506190 0.507730 0.615930 1.074697
Cu2   Cu    Cu3+1 0.493810 0.492270 0.384070 1.067137
H1    H     H_    0.947996 0.509464 0.683215 0.169663
H2    H     H_    0.931394 0.628881 0.426535 0.197129
H3    H     H_    0.484904 0.970743 0.262481 0.118015
H4    H     H_    0.611922 0.636641 0.815804 0.201652
H5    H     H_    0.625622 0.651870 0.028930 0.221166
H6    H     H_    0.911920 0.462819 0.314741 0.153102
N1    N     N_R   0.515490 0.519350 0.790130 -0.237803
N2    N     N_R   0.484510 0.480650 0.209890 -0.244803
O1    O     O_R   0.504390 0.354460 0.582000 -0.552056
O2    O     O_R   0.493940 0.341410 0.386200 -0.545337
O3    O     O_R   0.384660 0.506540 0.597940 -0.529401
O4    O     O_R   0.374210 0.493480 0.402140 -0.615293
O5    O     O_R   0.506060 0.658590 0.613800 -0.542437
O6    O     O_R   0.495610 0.645540 0.418000 -0.545491
O7    O     O_R   0.625790 0.506520 0.597860 -0.577224
O8    O     O_R   0.615340 0.493460 0.402060 -0.531180
C35   C     C_2   0.907852 0.356615 0.648892 0.597717
H7    H     H_    0.929086 0.333271 0.730345 0.128848
O9    O     O_2   0.845761 0.312263 0.593621 -0.482184
C36   C     C_2   0.099966 0.472416 0.719772 0.244070
H8    H     H_    0.161740 0.510296 0.725614 0.126640
O10   O     O_2   0.070772 0.459084 0.810116 -0.501726
C37   C     C_2   0.429116 0.807791 0.335089 0.509144
H9    H     H_    0.449283 0.807055 0.248381 0.063425
O11   O     O_2   0.363968 0.760620 0.345745 -0.498526
F1    F     F_    0.558385 0.829403 0.733785 -0.602800
F2    F     F_    0.581300 0.031709 0.757802 -0.613962
C38   C     C_2   0.532697 0.157720 0.244908 0.517052
H10   H     H_    0.501094 0.118402 0.163352 0.109707
O12   O     O_2   0.586087 0.225566 0.242592 -0.510409
C39   C     C_2   0.576154 0.206486 0.677285 0.569333
H11   H     H_    0.544314 0.206702 0.756339 0.153849
O13   O     O_2   0.639720 0.261096 0.680669 -0.500039
F3    F     F_    0.406832 0.394542 0.770495 -0.650221
C40   C     C_2   0.083336 0.316584 0.581047 0.483518
H12   H     H_    0.150280 0.303087 0.576540 0.059136
O14   O     O_2   0.035971 0.240864 0.573389 -0.449541
C41   C     C_2   0.366873 0.309663 0.952572 0.574766
H13   H     H_    0.301152 0.304584 0.970856 0.062129
O15   O     O_2   0.395048 0.241256 0.881717 -0.480855
C42   C     C_2   0.366340 0.351646 0.198349 0.431797
H14   H     H_    0.310269 0.388812 0.230772 0.062447
O16   O     O_2   0.374114 0.258896 0.198199 -0.563387
F4    F     F_    0.591671 0.609410 0.222997 -0.658791
C43   C     C_2   0.066961 0.490895 0.280217 0.560536
H15   H     H_    0.133241 0.506210 0.270908 0.088258
O17   O     O_2   0.015168 0.521527 0.213006 -0.492384
C44   C     C_2   0.080917 0.324889 0.333783 0.423170
H16   H     H_    0.138572 0.302541 0.376201 0.060280
O18   O     O_2   0.052829 0.268159 0.244300 -0.472861
C45   C     C_2   0.900103 0.315765 0.351909 0.600742
H17   H     H_    0.843911 0.304259 0.292445 0.069902
O19   O     O_2   0.925502 0.242293 0.394309 -0.409036
C46   C     C_2   0.082766 0.667914 0.639051 0.540207
H18   H     H_    0.049901 0.665292 0.716750 0.087626
O20   O     O_2   0.146907 0.722376 0.647623 -0.457083
F5    F     F_    0.078973 0.658891 0.439957 -0.601438
F6    F     F_    0.917361 0.668128 0.597237 -0.647237

loop_
_geom_bond_atom_site_label_1
_geom_bond_atom_site_label_2
_ccdc_geom_bond_type
C45   H17   S    
Cu1   Cu2   S    
C12   O4    A    
C3    C6    S    
Cu1   O3    S    
C43   H15   S    
C7    C8    T    
C42   H14   S    
C15   C19   A    
C41   O15   D    
C44   O18   D    
C1    O2    A    
C23   O5    A    
C20   C25   A    
C15   C16   A    
C29   C33   S    
C28   H5    S    
C36   H8    S    
C18   C19   A    
C22   N2    A    
C19   F2    S    
C16   C17   A    
Cu1   O5    S    
C14   C39   S    
Cu2   O2    S    
Cu1   N1    S    
C5    C46   S    
Cu2   O8    S    
C42   O16   D    
C37   H9    S    
C12   O3    A    
C43   O17   D    
C26   N1    A    
C30   C40   S    
C35   O9    D    
C37   O11   D    
C41   H13   S    
C30   C34   S    
C39   H11   S    
C24   C25   A    
C10   C14   A    
C40   O14   D    
C9    C23   S    
C23   O6    A    
C25   C26   A    
C35   H7    S    
C32   C45   S    
C30   C36   S    
C10   C13   A    
C31   C44   S    
C39   O13   D    
C38   O12   D    
C21   N2    A    
C11   C16   A    
C46   O20   D    
C31   C32   S    
C27   H4    S    
C8    C12   S    
C5    C34   S    
C31   C34   S    
C20   C41   S    
C44   H16   S    
C11   H3    S    
C17   C37   S    
C4    F6    S    
C9    C17   A    
C4    H2    S    
C45   O19   D    
Cu1   O7    S    
C26   F3    S    
C7    C34   S    
C22   C24   A    
Cu2   N2    S    
C3    C4    S    
Cu1   O1    S    
Cu2   O6    S    
C29   O7    A    
C18   F1    S    
C1    C10   S    
C24   C28   A    
C4    C5    S    
C2    C35   S    
C5    F5    S    
C31   C43   S    
C6    C33   T    
C2    C30   S    
C38   H10   S    
C2    C3    S    
C22   F4    S    
C40   H12   S    
C11   C13   A    
C2    H1    S    
C1    O1    A    
C46   H18   S    
C13   C38   S    
C36   O10   D    
Cu2   O4    S    
C3    C32   S    
C27   N1    A    
C9    C18   A    
C20   C21   A    
C21   C42   S    
C27   C28   A    
C32   H6    S    
C14   C15   A    
C29   O8    A    
