data_mof_unit_61579.cif
_audit_creation_date              2012-12-10T18:07:03-0500
_audit_creation_method            fapswitch 2.2
_symmetry_space_group_name_H-M    P1
_symmetry_Int_Tables_number       1
_space_group_crystal_system       triclinic
_cell_length_a                    10.786905
_cell_length_b                    12.747017
_cell_length_c                    13.891418
_cell_angle_alpha                 97.968099
_cell_angle_beta                  90.399593
_cell_angle_gamma                 93.261765
_cell_volume                      1888.36308248

loop_
_atom_site_label
_atom_site_type_symbol
_atom_type_description
_atom_site_fract_x
_atom_site_fract_y
_atom_site_fract_z
_atom_type_partial_charge
C1    C     C_R   0.499043 0.483544 0.315799 0.859550
C2    C     C_3   0.877802 0.498611 0.499838 -0.029492
C3    C     C_3   0.926041 0.476704 0.602055 -0.246933
C4    C     C_3   0.936330 0.609383 0.483471 -0.381275
C5    C     C_1   0.498668 0.525973 0.787491 -0.134173
C6    C     C_2   0.495901 0.543194 0.978351 -0.136789
C7    C     C_2   0.500911 0.456450 0.021457 -0.138686
C8    C     C_1   0.500047 0.465446 0.125304 0.058038
C9    C     C_1   0.497266 0.534382 0.874547 0.029883
C10   C     C_1   0.499446 0.474053 0.212403 -0.103995
C11   C     C_2   0.468771 0.027921 0.470552 -0.245321
C12   C     C_R   0.259503 0.500128 0.500686 0.863732
C13   C     C_2   0.530662 0.972109 0.529977 -0.259200
C14   C     C_1   0.523804 0.854744 0.520380 0.225192
C15   C     C_1   0.475980 0.145281 0.479892 0.240241
C16   C     C_R   0.500429 0.516476 0.684171 0.840926
C17   C     C_R   0.740337 0.499741 0.499764 0.809501
C18   C     C_3   0.064569 0.408152 0.422711 -0.036561
C19   C     C_3   0.921069 0.415855 0.414997 -0.007988
C20   C     C_3   0.072034 0.480210 0.604958 0.193567
C21   C     C_3   0.077624 0.605783 0.474981 -0.388235
C22   C     C_3   0.121693 0.498721 0.501335 -0.036969
Cu1   Cu    Cu3+1 0.491980 0.395330 0.493960 1.026863
Cu2   Cu    Cu3+1 0.508020 0.604670 0.506040 1.000503
H1    H     H_    0.081153 0.330961 0.447606 0.145199
H2    H     H_    0.914345 0.670828 0.545069 0.191878
H3    H     H_    0.900507 0.547833 0.651956 0.155548
H4    H     H_    0.505875 0.378483 0.979109 0.158147
H5    H     H_    0.490995 0.621151 0.020726 0.166127
H6    H     H_    0.588343 0.014996 0.588437 0.152696
H7    H     H_    0.410713 0.984939 0.412276 0.169150
H8    H     H_    0.875682 0.336759 0.419396 0.131850
H9    H     H_    0.122156 0.675261 0.522399 0.212012
H10   H     H_    0.104741 0.614843 0.399297 0.214895
H11   H     H_    0.897660 0.635837 0.417075 0.215272
N1    N     N_1   0.479930 0.238040 0.484880 -0.143836
N2    N     N_1   0.520070 0.761960 0.515120 -0.157230
O1    O     O_R   0.492240 0.399110 0.356330 -0.553909
O2    O     O_R   0.505790 0.575900 0.366540 -0.573201
O3    O     O_R   0.310920 0.411610 0.494880 -0.554512
O4    O     O_R   0.324460 0.588390 0.505090 -0.574805
O5    O     O_R   0.494210 0.424100 0.633460 -0.558047
O6    O     O_R   0.507760 0.600890 0.643670 -0.565372
O7    O     O_R   0.675540 0.411610 0.494910 -0.578701
O8    O     O_R   0.689080 0.588390 0.505120 -0.586610
I1    I     I_    0.139860 0.609032 0.715432 -0.357955
I2    I     I_    0.161547 0.393575 0.284764 -0.312969
I3    I     I_    0.847005 0.445300 0.275197 -0.338182
I4    I     I_    0.150699 0.345755 0.661025 -0.327098
C23   C     C_R   0.858096 0.383047 0.642485 0.145583
C24   C     C_R   0.862960 0.276761 0.598250 -0.064485
C25   C     C_R   0.795321 0.194857 0.635179 -0.127701
C26   C     C_R   0.721921 0.217127 0.716873 -0.102599
C27   C     C_R   0.717101 0.321318 0.762508 -0.084471
C28   C     C_R   0.784459 0.403599 0.725864 -0.120348
H12   H     H_    0.922606 0.255316 0.537767 0.115481
H13   H     H_    0.800951 0.113754 0.600802 0.129455
H14   H     H_    0.669649 0.153531 0.745330 0.129992
H15   H     H_    0.660743 0.338497 0.826273 0.130764
H16   H     H_    0.777954 0.483723 0.762564 0.115602

loop_
_geom_bond_atom_site_label_1
_geom_bond_atom_site_label_2
_ccdc_geom_bond_type
C12   O3    A    
C4    H2    S    
Cu1   Cu2   S    
C5    C9    T    
C12   O4    A    
Cu2   O4    S    
C16   O5    A    
Cu1   O1    S    
C15   N1    T    
C2    C4    S    
C23   C28   A    
C26   H14   S    
C28   H16   S    
C18   I2    S    
Cu2   O2    S    
C6    C9    S    
C3    H3    S    
Cu2   N2    S    
C17   O7    A    
C11   H7    S    
C7    C8    S    
C18   H1    S    
C26   C27   A    
C14   N2    T    
C4    C21   S    
C11   C13   D    
C16   O6    A    
C6    C7    D    
Cu1   O5    S    
C1    O1    A    
C20   I4    S    
Cu2   O8    S    
C21   C22   S    
C3    C23   S    
C20   C22   S    
C2    C3    S    
C27   H15   S    
C2    C17   S    
C4    H11   S    
C21   H9    S    
C25   H13   S    
C19   H8    S    
C24   C25   A    
C12   C22   S    
C13   H6    S    
C3    C20   S    
C6    H5    S    
C25   C26   A    
C8    C10   T    
Cu1   N1    S    
C1    C10   S    
Cu2   O6    S    
C1    O2    A    
C27   C28   A    
C18   C19   S    
C5    C16   S    
C21   H10   S    
C19   I3    S    
C13   C14   S    
C23   C24   A    
C2    C19   S    
C18   C22   S    
C11   C15   S    
C20   I1    S    
C7    H4    S    
Cu1   O3    S    
C17   O8    A    
Cu1   O7    S    
C24   H12   S    
