data_mof_unit_35247.cif
_audit_creation_date              2012-10-26T20:42:50-0400
_audit_creation_method            fapswitch 2.2
_symmetry_space_group_name_H-M    P1
_symmetry_Int_Tables_number       1
_space_group_crystal_system       triclinic
_cell_length_a                    10.671886
_cell_length_b                    9.697995
_cell_length_c                    14.933856
_cell_angle_alpha                 90.017279
_cell_angle_beta                  91.8476
_cell_angle_gamma                 89.999579
_cell_volume                      1544.78923054

loop_
_atom_site_label
_atom_site_type_symbol
_atom_type_description
_atom_site_fract_x
_atom_site_fract_y
_atom_site_fract_z
_atom_type_partial_charge
C1    C     C_R   0.262903 0.500028 0.499945 0.544798
C2    C     C_R   0.128987 0.500205 0.500066 0.031657
C3    C     C_R   0.417579 0.074003 0.445750 0.068656
C4    C     C_R   0.580999 0.925954 0.555337 0.068579
C5    C     C_R   0.582432 0.074047 0.554241 0.068699
C6    C     C_R   0.418984 0.925906 0.444672 0.068609
C7    C     C_R   0.500221 0.499956 0.329398 0.544097
C8    C     C_R   0.499781 0.499993 0.670602 0.544099
C9    C     C_R   0.613534 0.499278 0.815374 -0.144764
C10   C     C_R   0.386469 0.499226 0.184625 -0.144780
C11   C     C_R   0.499527 0.499862 0.766981 0.000329
C12   C     C_R   0.737097 0.500026 0.500056 0.544798
C13   C     C_R   0.500476 0.499741 0.233019 0.000319
C14   C     C_R   0.385489 0.499943 0.810262 -0.141798
C15   C     C_R   0.614515 0.499758 0.189738 -0.141799
C16   C     C_R   0.384708 0.499606 0.903620 0.014572
C17   C     C_R   0.615295 0.499471 0.096380 0.014575
C18   C     C_R   0.499869 0.499341 0.953077 0.057214
C19   C     C_R   0.500134 0.499304 0.046922 0.057220
C20   C     C_R   0.614759 0.499222 0.908680 0.002037
C21   C     C_R   0.385244 0.499214 0.091319 0.002028
C22   C     C_R   0.271190 0.499601 0.948329 -0.138517
C23   C     C_R   0.271465 0.499356 0.041752 -0.148151
C24   C     C_R   0.728813 0.499442 0.051670 -0.138515
C25   C     C_R   0.322925 0.144717 0.387214 0.090895
C26   C     C_R   0.347494 0.167696 0.296548 -0.070572
C27   C     C_R   0.250613 0.205403 0.236217 -0.125994
C28   C     C_R   0.128230 0.218676 0.265485 -0.121001
C29   C     C_R   0.102302 0.192984 0.355013 -0.118313
C30   C     C_R   0.199026 0.156470 0.415707 -0.072784
C31   C     C_R   0.668676 0.855155 0.619189 0.090522
C32   C     C_R   0.635510 0.839779 0.708971 -0.073150
C33   C     C_R   0.725627 0.802101 0.774426 -0.122169
C34   C     C_R   0.728538 0.499269 0.958248 -0.148139
C35   C     C_R   0.849841 0.780963 0.751160 -0.121732
C36   C     C_R   0.884416 0.799219 0.662561 -0.122146
C37   C     C_R   0.794448 0.835988 0.596780 -0.069850
C38   C     C_R   0.677203 0.144792 0.612689 0.090902
C39   C     C_R   0.801048 0.156447 0.584075 -0.072841
C40   C     C_R   0.897887 0.193050 0.644664 -0.118243
C41   C     C_R   0.872134 0.218887 0.734213 -0.120976
C42   C     C_R   0.749811 0.205685 0.763604 -0.126042
C43   C     C_R   0.652810 0.167919 0.703374 -0.070527
C44   C     C_R   0.331161 0.855049 0.380917 0.090557
C45   C     C_R   0.061227 0.500333 0.418584 -0.135990
C46   C     C_R   0.364128 0.839512 0.291096 -0.073104
C47   C     C_R   0.273851 0.801794 0.225742 -0.122242
C48   C     C_R   0.149680 0.780753 0.249151 -0.121721
C49   C     C_R   0.115303 0.799160 0.337791 -0.122057
C50   C     C_R   0.205426 0.835995 0.403466 -0.069882
C51   C     C_R   0.938773 0.500596 0.581416 -0.135994
C52   C     C_R   0.931381 0.500232 0.418437 -0.155256
C53   C     C_R   0.068619 0.500518 0.581564 -0.155245
C54   C     C_R   0.871013 0.500196 0.499935 0.031662
Cu1   Cu    Cu3+1 0.500000 0.640660 0.500000 0.940560
Cu2   Cu    Cu3+1 0.500000 0.359340 0.500000 0.940555
H1    H     H_    0.700862 0.499395 0.780125 0.113587
H2    H     H_    0.891064 0.500517 0.644387 0.119323
H3    H     H_    0.878251 0.500040 0.355385 0.092442
H4    H     H_    0.121749 0.500540 0.644616 0.092436
H5    H     H_    0.440818 0.151579 0.272073 0.107084
H6    H     H_    0.270062 0.221863 0.166358 0.116134
H7    H     H_    0.053239 0.247085 0.218567 0.102621
H8    H     H_    0.007025 0.200288 0.377324 0.111061
H9    H     H_    0.176894 0.132499 0.484264 0.092835
H10   H     H_    0.540675 0.861403 0.728611 0.103552
H11   H     H_    0.699461 0.791269 0.843482 0.118218
H12   H     H_    0.299141 0.499368 0.219874 0.113600
H13   H     H_    0.919616 0.752437 0.802005 0.102506
H14   H     H_    0.981315 0.786440 0.644966 0.111316
H15   H     H_    0.823475 0.854510 0.528983 0.098457
H16   H     H_    0.823045 0.132359 0.515502 0.092821
H17   H     H_    0.993115 0.200304 0.622257 0.111070
H18   H     H_    0.947215 0.247349 0.781053 0.102626
H19   H     H_    0.730501 0.222243 0.833482 0.116100
H20   H     H_    0.559538 0.151850 0.727944 0.107131
H21   H     H_    0.458928 0.861060 0.271344 0.103609
H22   H     H_    0.299859 0.790860 0.156653 0.118206
H23   H     H_    0.298040 0.500228 0.771166 0.089508
H24   H     H_    0.079784 0.752189 0.198386 0.102490
H25   H     H_    0.018439 0.786451 0.355500 0.111349
H26   H     H_    0.176553 0.854642 0.471296 0.098411
H27   H     H_    0.701963 0.499991 0.228834 0.089508
H28   H     H_    0.182356 0.499796 0.911049 0.099220
H29   H     H_    0.817647 0.499562 0.088950 0.099218
H30   H     H_    0.182874 0.499388 0.075268 0.099910
H31   H     H_    0.817130 0.499275 0.924731 0.099897
H32   H     H_    0.108936 0.500087 0.355614 0.119346
N1    N     N_R   0.500000 0.852070 0.500000 -0.251041
N2    N     N_R   0.500000 0.147930 0.500000 -0.250990
O1    O     O_R   0.319640 0.618740 0.499990 -0.501219
O2    O     O_R   0.680360 0.381260 0.500010 -0.498283
O3    O     O_R   0.680360 0.618740 0.500010 -0.501247
O4    O     O_R   0.319640 0.381260 0.499990 -0.498312
O5    O     O_R   0.499970 0.618800 0.370260 -0.498079
O6    O     O_R   0.500030 0.381200 0.629740 -0.501012
O7    O     O_R   0.500030 0.618800 0.629740 -0.498058
O8    O     O_R   0.499970 0.381200 0.370260 -0.501002

loop_
_geom_bond_atom_site_label_1
_geom_bond_atom_site_label_2
_ccdc_geom_bond_type
Cu1   Cu2   S    
C40   C41   A    
C7    O8    A    
C41   C42   A    
C35   C36   A    
C8    O6    A    
Cu2   O8    S    
Cu1   O3    S    
C3    C6    A    
Cu2   O4    S    
C50   H26   S    
C42   H19   S    
C3    N2    A    
C36   C37   A    
C19   C21   A    
C26   H5    S    
C18   C19   A    
C38   C39   A    
C11   C14   A    
C25   C30   A    
C40   H17   S    
Cu2   O6    S    
C1    C2    S    
C49   H25   S    
C52   H3    S    
Cu1   O1    S    
C17   C19   A    
C41   H18   S    
C21   C23   A    
C31   C32   A    
C44   C46   A    
C1    O4    A    
C23   H30   S    
C39   H16   S    
C24   H29   S    
C18   C20   A    
C5    N2    A    
C20   C34   A    
C52   C54   A    
Cu2   N2    S    
C29   H8    S    
C1    O1    A    
C6    C44   S    
C5    C38   S    
C53   H4    S    
C36   H14   S    
C10   C21   A    
C17   C24   A    
C30   H9    S    
C3    C25   S    
C45   H32   S    
Cu1   O5    S    
C39   C40   A    
C15   H27   S    
C45   C52   A    
C25   C26   A    
C2    C53   A    
C24   C34   A    
C31   C37   A    
C51   C53   A    
C22   H28   S    
C8    O7    A    
C29   C30   A    
C27   H6    S    
C9    C20   A    
C47   C48   A    
C7    C13   S    
Cu1   O7    S    
C26   C27   A    
C51   H2    S    
C14   H23   S    
C9    C11   A    
C48   C49   A    
C13   C15   A    
C14   C16   A    
C12   O3    A    
C42   C43   A    
C33   H11   S    
C32   H10   S    
C4    N1    A    
C44   C50   A    
C43   H20   S    
C15   C17   A    
C46   C47   A    
C28   C29   A    
C16   C22   A    
C12   O2    A    
C4    C5    A    
C10   C13   A    
C46   H21   S    
C10   H12   S    
C6    N1    A    
C7    O5    A    
C51   C54   A    
C32   C33   A    
C48   H24   S    
C37   H15   S    
C38   C43   A    
Cu1   N1    S    
C8    C11   S    
C33   C35   A    
C9    H1    S    
C34   H31   S    
C4    C31   S    
C2    C45   A    
C28   H7    S    
Cu2   O2    S    
C35   H13   S    
C16   C18   A    
C49   C50   A    
C27   C28   A    
C22   C23   A    
C47   H22   S    
C12   C54   S    
