data_mof_unit_22872.cif
_audit_creation_date              2012-12-11T15:06:38-0500
_audit_creation_method            fapswitch 2.2
_symmetry_space_group_name_H-M    P1
_symmetry_Int_Tables_number       1
_space_group_crystal_system       triclinic
_cell_length_a                    7.270655
_cell_length_b                    15.351516
_cell_length_c                    22.501669
_cell_angle_alpha                 90.000064
_cell_angle_beta                  89.999909
_cell_angle_gamma                 89.99998
_cell_volume                      2511.53675906

loop_
_atom_site_label
_atom_site_type_symbol
_atom_type_description
_atom_site_fract_x
_atom_site_fract_y
_atom_site_fract_z
_atom_type_partial_charge
O1    O     O_R   0.390810 0.844810 0.447340 -0.517026
O2    O     O_R   0.109190 0.155190 0.947340 -0.517027
O3    O     O_R   0.890810 0.655190 0.552660 -0.517030
O4    O     O_R   0.609190 0.344810 0.052660 -0.517026
O5    O     O_R   0.720550 0.655820 0.440420 -0.530057
O6    O     O_R   0.779450 0.344180 0.940420 -0.530057
O7    O     O_R   0.220550 0.844180 0.559580 -0.530060
O8    O     O_R   0.279450 0.155820 0.059580 -0.530055
C1    C     C_R   0.550996 0.630237 0.424442 0.840388
C2    C     C_R   0.949004 0.369763 0.924442 0.840386
C3    C     C_R   0.050995 0.869763 0.575558 0.840379
C4    C     C_R   0.449004 0.130236 0.075558 0.840383
O9    O     O_R   0.720530 0.844130 0.440420 -0.554558
O10   O     O_R   0.779470 0.155870 0.940420 -0.554582
O11   O     O_R   0.220530 0.655870 0.559580 -0.554576
O12   O     O_R   0.279470 0.344130 0.059580 -0.554581
O13   O     O_R   0.890830 0.844810 0.552660 -0.537772
O14   O     O_R   0.609170 0.155190 0.052660 -0.537760
O15   O     O_R   0.390830 0.655190 0.447340 -0.537760
O16   O     O_R   0.109170 0.344810 0.947340 -0.537771
C5    C     C_R   0.552550 0.871181 0.425507 0.873092
C6    C     C_R   0.947450 0.128821 0.925506 0.873099
C7    C     C_R   0.052550 0.628820 0.574493 0.873108
C8    C     C_R   0.447449 0.371181 0.074493 0.873072
O17   O     O_3   0.557310 0.749980 0.536820 -0.389229
O18   O     O_3   0.942690 0.250020 0.036820 -0.389217
O19   O     O_3   0.057310 0.750020 0.463180 -0.389205
O20   O     O_3   0.442690 0.249980 0.963180 -0.389225
V1    V     V_3+5 0.832160 0.749980 0.493170 1.537060
V2    V     V_3+5 0.667840 0.250020 0.993170 1.537002
V3    V     V_3+5 0.332160 0.750020 0.506830 1.537036
V4    V     V_3+5 0.167840 0.249980 0.006830 1.537000
C9    C     C_R   0.969581 0.590859 0.855467 -0.212995
C10   C     C_R   0.530413 0.409142 0.355466 -0.212987
C11   C     C_R   0.469571 0.909140 0.144535 -0.212968
C12   C     C_R   0.030406 0.090858 0.644533 -0.212998
H1    H     H_    0.122047 0.707520 0.786617 0.218095
H2    H     H_    0.377945 0.292481 0.286616 0.218098
H3    H     H_    0.622031 0.792479 0.213382 0.218080
H4    H     H_    0.877938 0.207518 0.713383 0.218100
H5    H     H_    0.939691 0.656665 0.869037 0.213725
H6    H     H_    0.560302 0.343336 0.369035 0.213723
H7    H     H_    0.439674 0.843335 0.130967 0.213727
H8    H     H_    0.060291 0.156664 0.630963 0.213721
C13   C     C_R   0.964060 0.437615 0.877704 -0.232456
C14   C     C_R   0.535939 0.562386 0.377703 -0.232445
C15   C     C_R   0.464061 0.062384 0.122296 -0.232456
C16   C     C_R   0.035937 0.937614 0.622297 -0.232450
C17   C     C_R   0.989351 0.474279 0.589679 0.304076
C18   C     C_R   0.510654 0.525721 0.089680 0.304041
C19   C     C_R   0.489347 0.025721 0.410320 0.304046
C20   C     C_R   0.010641 0.974279 0.910322 0.304075
C21   C     C_R   0.985188 0.398997 0.623782 0.247229
C22   C     C_R   0.514805 0.601004 0.123782 0.247250
C23   C     C_R   0.485193 0.101003 0.376217 0.247247
C24   C     C_R   0.014796 0.898996 0.876220 0.247230
C25   C     C_R   0.050725 0.399283 0.682400 0.385066
C26   C     C_R   0.449263 0.600718 0.182399 0.385022
C27   C     C_R   0.550732 0.100717 0.317600 0.385053
C28   C     C_R   0.949262 0.899282 0.817602 0.385061
C29   C     C_R   0.075528 0.479368 0.713344 -0.096223
C30   C     C_R   0.424465 0.520633 0.213344 -0.096228
C31   C     C_R   0.575532 0.020631 0.286655 -0.096235
C32   C     C_R   0.924466 0.979367 0.786656 -0.096225
C33   C     C_R   0.087525 0.557017 0.677143 -0.157090
C34   C     C_R   0.412470 0.442983 0.177143 -0.157079
C35   C     C_R   0.587528 0.942982 0.322857 -0.157053
C36   C     C_R   0.912472 0.057017 0.822857 -0.157092
C37   C     C_R   0.063771 0.488643 0.777766 0.043965
C38   C     C_R   0.436222 0.511358 0.277765 0.043959
C39   C     C_R   0.563775 0.011356 0.222234 0.043961
C40   C     C_R   0.936223 0.988642 0.722235 0.043966
C41   C     C_R   0.046957 0.574529 0.799869 -0.074185
C42   C     C_R   0.453035 0.425473 0.299868 -0.074184
C43   C     C_R   0.546955 0.925471 0.200132 -0.074177
C44   C     C_R   0.953033 0.074527 0.700131 -0.074187
C45   C     C_R   0.103826 0.644844 0.765912 -0.154103
C46   C     C_R   0.396167 0.355158 0.265911 -0.154108
C47   C     C_R   0.603822 0.855155 0.234088 -0.154143
C48   C     C_R   0.896165 0.144842 0.734088 -0.154104
C49   C     C_R   0.131199 0.636911 0.705129 0.485683
C50   C     C_R   0.368797 0.363089 0.205129 0.485673
C51   C     C_R   0.631202 0.863087 0.294871 0.485723
C52   C     C_R   0.868798 0.136911 0.794871 0.485676
C53   C     C_R   0.049707 0.420571 0.821734 0.362216
C54   C     C_R   0.450292 0.579431 0.321734 0.362178
C55   C     C_R   0.549712 0.079428 0.178265 0.362216
C56   C     C_R   0.950291 0.920569 0.678266 0.362203
C57   C     C_R   0.920279 0.523282 0.893196 0.361123
C58   C     C_R   0.579718 0.476719 0.393194 0.361119
C59   C     C_R   0.420272 0.976717 0.106806 0.361101
C60   C     C_R   0.079713 0.023281 0.606804 0.361117
C61   C     C_R   0.047439 0.552845 0.614873 -0.243811
C62   C     C_R   0.452561 0.447155 0.114873 -0.243821
C63   C     C_R   0.547439 0.947155 0.385127 -0.243805
C64   C     C_R   0.952559 0.052846 0.885127 -0.243822
O21   O     O_3   0.830657 0.541574 0.945833 -0.530546
C65   C     C_3   0.957656 0.573928 0.987751 -0.108021
H9    H     H_    0.031008 0.518902 0.009115 0.088770
H10   H     H_    0.881725 0.608579 0.023191 0.236365
H11   H     H_    0.055585 0.622051 0.968680 0.135768
O22   O     O_3   0.669349 0.458427 0.445830 -0.530562
C66   C     C_3   0.542376 0.426052 0.487748 -0.108008
H12   H     H_    0.469148 0.481070 0.509162 0.088897
H13   H     H_    0.618321 0.391327 0.523147 0.236403
H14   H     H_    0.444332 0.377992 0.468670 0.135640
O23   O     O_3   0.330636 0.958426 0.054171 -0.530555
C67   C     C_3   0.457602 0.926044 0.012252 -0.107962
H15   H     H_    0.530813 0.981063 0.990829 0.088897
H16   H     H_    0.381648 0.891304 0.976858 0.236407
H17   H     H_    0.555663 0.877991 0.031336 0.135632
O24   O     O_3   0.169340 0.041574 0.554168 -0.530552
C68   C     C_3   0.042353 0.073939 0.512250 -0.108009
H18   H     H_    0.969063 0.018915 0.490861 0.088837
H19   H     H_    0.118292 0.108627 0.476829 0.236381
H20   H     H_    0.944369 0.122031 0.531326 0.135701
Cl1   Cl    Cl    0.197107 0.329193 0.820733 -0.662221
Cl2   Cl    Cl    0.302906 0.670813 0.320733 -0.662207
Cl3   Cl    Cl    0.697110 0.170806 0.179265 -0.662214
Cl4   Cl    Cl    0.802900 0.829188 0.679267 -0.662216
O25   O     O_3   0.927901 0.471741 0.531570 -0.514101
C69   C     C_3   0.075815 0.450038 0.493946 -0.071763
H21   H     H_    0.021352 0.433556 0.449347 0.194800
H22   H     H_    0.152451 0.391919 0.510049 0.131711
H23   H     H_    0.168184 0.506885 0.488278 0.079970
O26   O     O_3   0.572113 0.528262 0.031572 -0.514100
C70   C     C_3   0.424190 0.549939 0.993943 -0.071627
H24   H     H_    0.478674 0.566517 0.949351 0.194803
H25   H     H_    0.347390 0.608004 0.010079 0.131529
H26   H     H_    0.331958 0.493033 0.988231 0.080079
O27   O     O_3   0.427886 0.028261 0.468427 -0.514092
C71   C     C_3   0.575812 0.049938 0.506056 -0.071676
H27   H     H_    0.521343 0.066463 0.550660 0.194783
H28   H     H_    0.652533 0.108037 0.489936 0.131627
H29   H     H_    0.668112 0.993048 0.511738 0.080025
O28   O     O_3   0.072092 0.971740 0.968430 -0.514086
C72   C     C_3   0.924154 0.950072 0.006056 -0.071756
H30   H     H_    0.978592 0.933636 0.050676 0.194763
H31   H     H_    0.847547 0.891924 0.989965 0.131770
H32   H     H_    0.831757 0.006934 0.011688 0.079952
O29   O     O_3   0.094982 0.320564 0.707231 -0.518624
C73   C     C_3   0.270347 0.295336 0.685863 -0.114626
H33   H     H_    0.377805 0.343546 0.698626 0.139598
H34   H     H_    0.271006 0.285816 0.636856 0.137518
H35   H     H_    0.307744 0.232054 0.706396 0.168845
O30   O     O_3   0.404984 0.679436 0.207227 -0.518630
C74   C     C_3   0.229609 0.704650 0.185861 -0.114626
H36   H     H_    0.122169 0.656432 0.198624 0.139565
H37   H     H_    0.228946 0.714170 0.136853 0.137529
H38   H     H_    0.192190 0.767929 0.206394 0.168847
O31   O     O_3   0.594994 0.179435 0.292769 -0.518623
C75   C     C_3   0.770360 0.204662 0.314136 -0.114626
H39   H     H_    0.877815 0.156451 0.301373 0.139596
H40   H     H_    0.771021 0.214180 0.363144 0.137518
H41   H     H_    0.807760 0.267943 0.293604 0.168842
O32   O     O_3   0.904997 0.820564 0.792772 -0.518623
C76   C     C_3   0.729627 0.795340 0.814138 -0.114629
H42   H     H_    0.622176 0.843553 0.801374 0.139587
H43   H     H_    0.728964 0.785821 0.863146 0.137522
H44   H     H_    0.692224 0.732059 0.793605 0.168843
Cl5   Cl    Cl    0.897585 0.302588 0.592180 -0.722775
Cl6   Cl    Cl    0.602386 0.697414 0.092176 -0.722720
Cl7   Cl    Cl    0.397602 0.197413 0.407822 -0.722741
Cl8   Cl    Cl    0.102381 0.802586 0.907825 -0.722773
O33   O     O_3   0.174929 0.710704 0.672835 -0.558082
C77   C     C_3   0.357918 0.735055 0.685563 -0.144278
H45   H     H_    0.455444 0.680262 0.677727 0.136114
H46   H     H_    0.371776 0.760059 0.731689 0.124002
H47   H     H_    0.397587 0.788848 0.655355 0.199347
O34   O     O_3   0.325071 0.289295 0.172835 -0.558081
C78   C     C_3   0.142074 0.264952 0.185557 -0.144248
H48   H     H_    0.044560 0.319744 0.177706 0.136116
H49   H     H_    0.128186 0.239966 0.231686 0.123990
H50   H     H_    0.102418 0.211148 0.155355 0.199345
O35   O     O_3   0.674934 0.789297 0.327168 -0.558072
C79   C     C_3   0.857869 0.764892 0.314402 -0.144392
H51   H     H_    0.955471 0.819687 0.322146 0.136093
H52   H     H_    0.871547 0.739781 0.268295 0.124076
H53   H     H_    0.897599 0.711160 0.344653 0.199377
O36   O     O_3   0.825070 0.210704 0.827164 -0.558083
C80   C     C_3   0.642071 0.235046 0.814444 -0.144254
H54   H     H_    0.544559 0.180252 0.822293 0.136112
H55   H     H_    0.628181 0.260035 0.768315 0.123997
H56   H     H_    0.602413 0.288847 0.844647 0.199347

loop_
_geom_bond_atom_site_label_1
_geom_bond_atom_site_label_2
_ccdc_geom_bond_type
O17   V3    S    
C77   H46   S    
C78   H48   S    
C50   O34   S    
O1    C5    A    
C76   H42   S    
C23   C27   A    
O19   V1    S    
O13   V1    S    
O12   C8    A    
O3    C7    A    
C74   H36   S    
C10   H6    S    
C40   C44   A    
O15   V3    S    
C70   H25   S    
O21   C65   S    
C36   C52   A    
O33   C77   S    
C80   H54   S    
O7    C3    A    
C78   H49   S    
C11   C43   A    
O5    C1    A    
C36   C64   A    
C32   C36   A    
O9    V1    S    
O32   C76   S    
C74   H37   S    
C68   H18   S    
C8    C62   S    
C71   H29   S    
O16   V4    S    
O4    C8    A    
O34   C78   S    
O1    V3    S    
C67   H15   S    
C30   C38   A    
O2    V4    S    
C25   C29   A    
C52   O36   S    
C41   C45   A    
C58   O22   S    
C12   C44   A    
C40   C56   A    
C1    O15   A    
C79   H53   S    
C2    O16   A    
C71   H27   S    
C19   C63   A    
C38   C42   A    
O23   C67   S    
C16   C56   A    
C37   C41   A    
C18   O26   S    
C56   Cl4   S    
C11   H7    S    
C48   C52   A    
C34   C62   A    
C68   H20   S    
C12   C60   A    
O11   C7    A    
O31   C75   S    
C1    C14   S    
C76   H43   S    
C35   C63   A    
C73   H35   S    
C3    C16   S    
C15   C59   A    
O10   V2    S    
C4    C15   S    
O24   C68   S    
C78   H50   S    
O5    V1    S    
C80   H55   S    
C72   H32   S    
C31   C35   A    
C39   C43   A    
O7    V3    S    
C30   C34   A    
O8    V4    S    
C59   O23   S    
C74   H38   S    
C54   Cl2   S    
C19   O27   S    
O18   V4    S    
C60   O24   S    
H2    C46   S    
H1    C45   S    
C7    C61   S    
C57   O21   S    
C15   C55   A    
C13   C53   A    
C10   C58   A    
C55   Cl3   S    
C9    C57   A    
C34   C50   A    
C72   H31   S    
C46   C50   A    
C33   C49   A    
O35   C79   S    
C75   H41   S    
C45   C49   A    
O8    C4    A    
C17   O25   S    
C2    C13   S    
H4    C48   S    
O9    C5    A    
C66   H13   S    
C18   C22   A    
C35   C51   A    
C22   Cl6   S    
C53   Cl1   S    
O25   C69   S    
C26   C30   A    
C10   C42   A    
C39   C55   A    
C9    C41   A    
C79   H51   S    
O6    V2    S    
C75   H40   S    
C76   H44   S    
C65   H10   S    
C16   C60   A    
C77   H45   S    
C20   O28   S    
C73   H34   S    
C12   H8    S    
C69   H22   S    
C70   H24   S    
C38   C54   A    
C14   C54   A    
O3    V1    S    
C37   C53   A    
O36   C80   S    
O30   C74   S    
C22   C26   A    
C80   H56   S    
C29   C37   A    
C3    O13   A    
C21   C25   A    
C13   C57   A    
C6    C64   S    
C18   C62   A    
C44   C48   A    
C31   C39   A    
O28   C72   S    
O27   C71   S    
O6    C2    A    
C26   O30   S    
O11   V3    S    
C14   C58   A    
C27   O31   S    
O12   V4    S    
C65   H11   S    
C5    C63   S    
C72   H30   S    
C24   Cl8   S    
C27   C31   A    
C67   H17   S    
C25   O29   S    
C28   C32   A    
C9    H5    S    
O10   C6    A    
C69   H23   S    
O20   V2    S    
C70   H26   S    
C23   Cl7   S    
O2    C6    A    
C47   C51   A    
C21   Cl5   S    
O26   C70   S    
C17   C21   A    
C79   H52   S    
C33   C61   A    
C67   H16   S    
C51   O35   S    
C20   C64   A    
C66   H14   S    
C19   C23   A    
C28   O32   S    
C32   C40   A    
O22   C66   S    
O14   V2    S    
C29   C33   A    
C24   C28   A    
C75   H39   S    
C77   H47   S    
C71   H28   S    
C65   H9    S    
C42   C46   A    
C4    O14   A    
C66   H12   S    
C49   O33   S    
C73   H33   S    
C17   C61   A    
C69   H21   S    
O29   C73   S    
C43   C47   A    
O4    V2    S    
C20   C24   A    
H3    C47   S    
C68   H19   S    
C11   C59   A    
