data_mof_unit_39715.cif
_audit_creation_date              2013-03-05T15:44:19-0500
_audit_creation_method            fapswitch 2.2
_symmetry_space_group_name_H-M    P1
_symmetry_Int_Tables_number       1
_space_group_crystal_system       triclinic
_cell_length_a                    23.475631
_cell_length_b                    10.91594
_cell_length_c                    9.69598
_cell_angle_alpha                 89.821206
_cell_angle_beta                  89.53841
_cell_angle_gamma                 90.403523
_cell_volume                      2484.52326825

loop_
_atom_site_label
_atom_site_type_symbol
_atom_site_description
_atom_site_fract_x
_atom_site_fract_y
_atom_site_fract_z
_atom_type_partial_charge
O1    O     O_R   0.500010 0.321960 0.617040 -0.583417
O2    O     O_R   0.499990 0.321920 0.382900 -0.543760
C1    C     C_R   0.499133 0.265323 0.500178 0.849461
O3    O     O_R   0.417890 0.499980 0.617100 -0.585875
O4    O     O_R   0.417870 0.499940 0.382950 -0.547111
C2    C     C_R   0.391180 0.498012 0.500472 0.783870
Cu1   Cu    Cu3+1 0.500010 0.500020 0.638630 0.962453
Cu2   Cu    Cu3+1 0.499990 0.499980 0.361370 1.001357
O5    O     O_R   0.500010 0.678080 0.617100 -0.566320
O6    O     O_R   0.499990 0.678040 0.382960 -0.569586
O7    O     O_R   0.582130 0.500060 0.617050 -0.553911
O8    O     O_R   0.582110 0.500020 0.382900 -0.626146
C3    C     C_R   0.500849 0.734654 0.499896 0.837648
C4    C     C_R   0.609056 0.499732 0.499503 0.823280
C5    C     C_R   0.880342 0.599340 0.562576 0.552506
N1    N     N_R   0.852063 0.514172 0.485104 -0.460938
C6    C     C_R   0.880414 0.431139 0.405307 0.539372
C7    C     C_R   0.940062 0.429951 0.402873 0.015096
C8    C     C_R   0.970216 0.516221 0.482637 -0.075363
C9    C     C_R   0.940416 0.604110 0.561512 -0.133270
C10   C     C_R   0.970078 0.344046 0.323504 -0.176374
C11   C     C_R   0.029419 0.342311 0.324404 -0.171813
C12   C     C_R   0.060008 0.426430 0.404743 0.004870
C13   C     C_R   0.030355 0.513907 0.483781 -0.019534
C14   C     C_R   0.060779 0.598141 0.564913 -0.087848
C15   C     C_R   0.031139 0.686207 0.641455 -0.233835
C16   C     C_R   0.971701 0.692781 0.636937 0.466177
C17   C     C_R   0.119740 0.425511 0.408198 0.527738
N2    N     N_R   0.148547 0.507901 0.488231 -0.476919
C18   C     C_R   0.120466 0.592681 0.566621 0.551876
O9    O     O_2   0.850152 0.677913 0.640929 -0.514518
O10   O     O_2   0.850845 0.349128 0.329874 -0.552140
H1    H     H_    0.947815 0.277175 0.261222 0.185477
H2    H     H_    0.051186 0.274340 0.262673 0.192130
O11   O     O_2   0.148875 0.343435 0.331976 -0.534872
O12   O     O_2   0.150315 0.671578 0.645462 -0.521395
H3    H     H_    0.053991 0.751709 0.704329 0.200834
C19   C     C_R   0.242073 0.592233 0.414919 0.025081
C20   C     C_R   0.301561 0.588049 0.422194 -0.200945
H4    H     H_    0.327135 0.654728 0.365739 0.194002
C21   C     C_R   0.328819 0.497969 0.500538 -0.166849
C22   C     C_R   0.296336 0.408253 0.572120 -0.042630
C23   C     C_R   0.236721 0.414525 0.567212 -0.057398
H5    H     H_    0.210691 0.347687 0.622003 0.183781
C24   C     C_R   0.209630 0.505420 0.490029 0.218014
C25   C     C_R   0.762996 0.454783 0.601165 -0.206963
H6    H     H_    0.787819 0.412531 0.681720 0.140382
C26   C     C_R   0.703177 0.451966 0.607941 0.419324
C27   C     C_R   0.671749 0.502107 0.498005 -0.107189
C28   C     C_R   0.700556 0.557259 0.386182 -0.319280
H7    H     H_    0.677190 0.597822 0.302071 0.163070
C29   C     C_R   0.759815 0.561898 0.382339 -0.112185
H8    H     H_    0.781498 0.605127 0.295835 0.147459
C30   C     C_R   0.791097 0.510579 0.489624 0.311504
C31   C     C_2   0.498692 0.933251 0.386312 -0.154787
C32   C     C_2   0.503945 0.866712 0.501725 -0.305838
H9    H     H_    0.493317 0.888641 0.287187 0.182471
H10   H     H_    0.511792 0.907729 0.601261 0.153120
C33   C     C_2   0.501085 0.067366 0.386547 -0.137355
C34   C     C_2   0.495993 0.133214 0.502396 -0.302652
H11   H     H_    0.506409 0.112603 0.287254 0.182182
H12   H     H_    0.488211 0.091682 0.602285 0.151241
C35   C     C_2   0.457496 0.459738 0.923763 -0.130828
N3    N     N_2   0.499380 0.498660 0.846910 -0.271006
H13   H     H_    0.417187 0.442979 0.873845 0.140945
H14   H     H_    0.538971 0.497295 0.891223 0.210426
C36   C     C_2   0.463527 0.435302 0.079571 0.638230
N4    N     N_2   0.499370 0.498630 0.153040 -0.047081
O13   O     O_3   0.675180 0.388129 0.712496 -0.599244
C37   C     C_3   0.687702 0.437888 0.843719 0.055658
H15   H     H_    0.646925 0.467802 0.891128 0.155630
H16   H     H_    0.716349 0.520074 0.841421 0.137070
C38   C     C_3   0.713581 0.338535 0.934965 -0.355720
H17   H     H_    0.684202 0.258271 0.940073 0.233851
H18   H     H_    0.754667 0.308079 0.889438 0.222830
C39   C     C_3   0.724002 0.385195 0.080818 -0.859465
H19   H     H_    0.752946 0.466174 0.078402 0.259515
H20   H     H_    0.744044 0.312058 0.143348 0.289522
H21   H     H_    0.683021 0.410659 0.130607 0.244194
O14   O     O_3   0.434284 0.340713 0.147815 -0.612701
C40   C     C_3   0.382347 0.305143 0.086221 -0.006047
H22   H     H_    0.368130 0.219435 0.138580 0.198913
H23   H     H_    0.387447 0.279079 0.976269 0.138222
C41   C     C_3   0.335919 0.401420 0.110181 -0.386306
H24   H     H_    0.329408 0.412756 0.222723 0.249437
H25   H     H_    0.349163 0.491271 0.066007 0.217360
C42   C     C_3   0.279443 0.362969 0.046408 -0.767675
H26   H     H_    0.283865 0.357746 0.932644 0.273190
H27   H     H_    0.246410 0.431843 0.071825 0.264493
H28   H     H_    0.265372 0.272564 0.087682 0.275120
O15   O     O_3   0.513902 0.607817 0.095793 -0.552416
C43   C     C_3   0.572387 0.628983 0.118851 0.154767
H29   H     H_    0.597524 0.543009 0.110397 0.108411
H30   H     H_    0.578563 0.670505 0.221608 0.188063
C44   C     C_3   0.595140 0.720707 0.011899 -0.411706
H31   H     H_    0.590909 0.682124 0.906606 0.225625
H32   H     H_    0.569755 0.806188 0.017241 0.237859
C45   C     C_3   0.657675 0.751939 0.037157 -0.934459
H33   H     H_    0.662690 0.796151 0.139422 0.259652
H34   H     H_    0.673262 0.816355 0.956209 0.275367
H35   H     H_    0.683968 0.667844 0.033519 0.250475
O16   O     O_3   0.944920 0.783475 0.712327 -0.570078
C46   C     C_3   0.934964 0.886543 0.626667 0.118697
H36   H     H_    0.894078 0.927772 0.660689 0.194256
H37   H     H_    0.929628 0.863061 0.515369 0.122138
C47   C     C_3   0.982408 0.982425 0.643224 -0.399873
H38   H     H_    0.987839 0.003659 0.754404 0.243426
H39   H     H_    0.023157 0.945653 0.602468 0.224380
C48   C     C_3   0.968762 0.100371 0.565554 -0.857108
H40   H     H_    0.964014 0.081542 0.453700 0.257585
H41   H     H_    0.003980 0.167607 0.579138 0.269187
H42   H     H_    0.928784 0.141189 0.605988 0.257945
C49   C     C_2   0.214114 0.685680 0.327482 0.425734
H43   H     H_    0.168144 0.686701 0.317375 0.074198
O17   O     O_2   0.242128 0.762707 0.264794 -0.526222
C50   C     C_2   0.323663 0.304526 0.645571 0.335674
H44   H     H_    0.369581 0.295626 0.647562 0.080530
O18   O     O_2   0.294968 0.225628 0.703297 -0.537399

loop_
_geom_bond_atom_site_label_1
_geom_bond_atom_site_label_2
_geom_bond_distance
_ccdc_geom_bond_type
C42   H26   1.108782 S    
C35   H13   1.081065 S    
C31   C33   1.464675 S    
C7    C10   1.404705 A    
C21   C22   1.413866 A    
C8    C9    1.414260 A    
C41   C42   1.524238 S    
C26   O13   1.386966 S    
C31   C32   1.339191 D    
C40   H22   1.111008 S    
C44   C45   1.526632 S    
Cu1   Cu2   2.688312 S    
C20   C21   1.401942 A    
Cu1   O7    1.937461 S    
C15   C16   1.398729 A    
C17   N2    1.368435 A    
C41   H25   1.110424 S    
C48   H41   1.110566 S    
C19   C20   1.399921 A    
O7    C4    1.298845 A    
C4    C27   1.471755 S    
C10   H1    1.083118 S    
C47   H38   1.111496 S    
C5    N1    1.368571 A    
C45   H33   1.110867 S    
N4    O15   1.353573 S    
C50   H44   1.083342 S    
C34   H12   1.081745 S    
C7    C8    1.410688 A    
C38   H17   1.111956 S    
O5    C3    1.291612 A    
C19   C24   1.408928 A    
C44   H31   1.110521 S    
C17   O11   1.349563 S    
C50   O18   1.221287 D    
N1    C6    1.366631 A    
C2    C21   1.463944 S    
C28   C29   1.391909 A    
C12   C13   1.410332 A    
C39   H21   1.110391 S    
C37   H15   1.110195 S    
C3    C32   1.443038 S    
C1    C34   1.443549 S    
C33   C34   1.340440 D    
C10   C11   1.393403 A    
C38   H18   1.110959 S    
O16   C46   1.418191 S    
O3    Cu1   1.940754 S    
C40   H23   1.110022 S    
C29   C30   1.396305 A    
C28   H7    1.081854 S    
C25   C26   1.405430 A    
C39   H19   1.111205 S    
C5    C9    1.410834 A    
C11   H2    1.083084 S    
C35   C36   1.541070 S    
C33   H11   1.086531 S    
C36   N4    1.303021 D    
C13   C14   1.406684 A    
O3    C2    1.297607 A    
C48   H42   1.110881 S    
O15   C43   1.410379 S    
C19   C49   1.484276 S    
C14   C15   1.401668 A    
C43   C44   1.529794 S    
N2    C24   1.434646 S    
O1    C1    1.292711 A    
N3    H14   1.027258 S    
C23   H5    1.083535 S    
N2    C18   1.368812 A    
Cu2   O8    1.940759 S    
C25   C30   1.398040 A    
C37   C38   1.529704 S    
C43   H30   1.106050 S    
C6    C7    1.400433 A    
C46   H37   1.117760 S    
C12   C17   1.403020 A    
C41   H24   1.108081 S    
C23   C24   1.400327 A    
C22   C50   1.487734 S    
C26   C27   1.412391 A    
O8    C4    1.299963 A    
Cu2   N4    2.020233 S    
C45   H34   1.110255 S    
C42   H27   1.110691 S    
C38   C39   1.525621 S    
C22   C23   1.402828 A    
C20   H4    1.084398 S    
C40   C41   1.536219 S    
C29   H8    1.082834 S    
C49   H43   1.084533 S    
C14   C18   1.403101 A    
Cu1   O5    1.954221 S    
C25   H6    1.082224 S    
O1    Cu1   1.955583 S    
O2    Cu2   1.954221 S    
C36   O14   1.397739 S    
C39   H20   1.110491 S    
O14   C40   1.414390 S    
O6    C3    1.293220 A    
O4    Cu2   1.937461 S    
C44   H32   1.111809 S    
C15   H3    1.083166 S    
C5    O9    1.348711 S    
C9    C16   1.419211 A    
C45   H35   1.110297 S    
C16   O16   1.384041 S    
C18   O12   1.349572 S    
C31   H9    1.086647 S    
O2    C1    1.292373 A    
C48   H40   1.110810 S    
O4    C2    1.296012 A    
C47   H39   1.110264 S    
C43   H29   1.115002 S    
C32   H10   1.081770 S    
C8    C13   1.412323 A    
C46   C47   1.532719 S    
O13   C37   1.417169 S    
N1    C30   1.431798 S    
Cu1   N3    2.019421 S    
C35   N3    1.297263 D    
Cu2   O6    1.955582 S    
C27   C28   1.404887 A    
C42   H28   1.110834 S    
C46   H36   1.111107 S    
C6    O10   1.349720 S    
C11   C12   1.403500 A    
C37   H16   1.117475 S    
C49   O17   1.221274 D    
C47   C48   1.526781 S    
