data_mof_unit_45609.cif
_audit_creation_date              2012-10-26T17:13:03-0400
_audit_creation_method            fapswitch 2.2
_symmetry_space_group_name_H-M    P1
_symmetry_Int_Tables_number       1
_space_group_crystal_system       triclinic
_cell_length_a                    16.728025
_cell_length_b                    16.822903
_cell_length_c                    16.789636
_cell_angle_alpha                 67.765666
_cell_angle_beta                  67.891498
_cell_angle_gamma                 67.746353
_cell_volume                      3895.09916087

loop_
_atom_site_label
_atom_site_type_symbol
_atom_type_description
_atom_site_fract_x
_atom_site_fract_y
_atom_site_fract_z
_atom_type_partial_charge
C1    C     C_R   0.327750 0.935519 0.457239 -0.039743
C2    C     C_R   0.324039 0.454724 0.950109 -0.058144
C3    C     C_R   0.543517 0.413572 0.989675 -0.074662
C4    C     C_R   0.055844 0.445336 0.570745 -0.077127
C5    C     C_R   0.002349 0.538166 0.411791 -0.075974
C6    C     C_R   0.050985 0.676988 0.545079 -0.058621
C7    C     C_R   0.018376 0.305479 0.428769 -0.056112
C8    C     C_R   0.463716 0.954420 0.462478 0.035132
C9    C     C_R   0.555710 0.983934 0.554787 0.035400
C10   C     C_R   0.014670 0.445465 0.444921 0.033378
C11   C     C_R   0.043074 0.537980 0.537408 0.032167
C12   C     C_R   0.457190 0.456907 0.977102 0.034024
C13   C     C_R   0.542481 0.542973 0.023938 0.033287
C14   C     C_R   0.028150 0.828309 0.564702 0.552469
C15   C     C_R   0.678764 0.031311 0.552340 -0.057126
C16   C     C_R   0.986030 0.168437 0.430387 0.576027
C17   C     C_R   0.827974 0.564095 0.029502 0.559797
C18   C     C_R   0.172025 0.435914 0.970525 0.557632
C19   C     C_R   0.569640 0.014028 0.831509 0.572328
C20   C     C_R   0.435493 0.971427 0.171763 0.550035
C21   C     C_R   0.435732 0.172046 0.970876 0.547684
C22   C     C_R   0.564244 0.827966 0.029194 0.571419
C23   C     C_R   0.972574 0.435163 0.171815 0.563082
C24   C     C_R   0.030442 0.563797 0.827902 0.564439
C25   C     C_R   0.172207 0.969206 0.436350 0.579875
C26   C     C_R   0.968647 0.447616 0.321041 -0.057831
C27   C     C_R   0.828054 0.027736 0.564691 0.553855
C28   C     C_R   0.415264 0.946125 0.414163 -0.083311
C29   C     C_R   0.601569 0.999626 0.600598 -0.086179
C30   C     C_R   0.999769 0.399534 0.398677 -0.087062
C31   C     C_R   0.051475 0.586264 0.585724 -0.086312
C32   C     C_R   0.411876 0.411356 0.959992 -0.085501
C33   C     C_R   0.587896 0.588597 0.040773 -0.085607
C34   C     C_R   0.272453 0.948407 0.403330 0.011539
C35   C     C_R   0.729856 0.036519 0.600860 0.009729
C36   C     C_R   0.963997 0.398982 0.269864 0.010645
C37   C     C_R   0.062652 0.543093 0.672927 -0.053643
C38   C     C_R   0.050615 0.596819 0.727830 0.005859
C39   C     C_R   0.403094 0.271629 0.952989 -0.001755
C40   C     C_R   0.596867 0.728419 0.047224 0.005431
C41   C     C_R   0.610801 0.009407 0.738074 -0.001845
C42   C     C_R   0.402624 0.952472 0.270991 -0.001407
C43   C     C_R   0.728032 0.597025 0.048135 0.003957
C44   C     C_R   0.271952 0.403048 0.951997 0.005428
C45   C     C_R   0.046362 0.729109 0.597793 -0.000121
C46   C     C_R   0.990751 0.261921 0.389258 -0.005277
C47   C     C_R   0.504523 0.934640 0.741314 0.424516
C48   C     C_R   0.455020 0.323137 0.952235 -0.053700
C49   C     C_R   0.548458 0.942971 0.288905 0.440488
C50   C     C_R   0.054433 0.711429 0.452769 0.439447
C51   C     C_R   0.064705 0.259093 0.496281 0.424318
C52   C     C_R   0.707735 0.451692 0.061242 0.440178
C53   C     C_R   0.291964 0.548265 0.939799 0.439968
C54   C     C_R   0.301359 0.909161 0.552373 0.458874
C55   C     C_R   0.703229 0.054055 0.457734 0.439993
C56   C     C_R   0.548575 0.290496 0.944751 0.438644
C57   C     C_R   0.451101 0.709263 0.056607 0.467411
C58   C     C_R   0.945570 0.542172 0.296546 0.438479
C59   C     C_R   0.544791 0.676817 0.048474 -0.041758
C60   C     C_R   0.089134 0.448007 0.699241 0.437107
C61   C     C_R   0.312249 0.952454 0.312132 0.343206
C62   C     C_R   0.690289 0.035092 0.690712 0.337506
C63   C     C_R   0.965622 0.309148 0.309470 0.344183
C64   C     C_R   0.046872 0.687834 0.687827 0.349713
C65   C     C_R   0.313558 0.313621 0.949846 0.344049
C66   C     C_R   0.686509 0.686525 0.050032 0.345189
C67   C     C_R   0.665583 0.027173 0.413795 -0.036555
C68   C     C_R   0.351747 0.913402 0.601363 -0.015085
C69   C     C_R   0.084749 0.399145 0.649047 -0.028751
C70   C     C_R   0.571630 0.981207 0.694704 -0.053625
C71   C     C_R   0.971494 0.586246 0.334888 -0.036049
C72   C     C_R   0.410074 0.670324 0.027647 -0.018273
C73   C     C_R   0.589266 0.329193 0.974309 -0.035660
C74   C     C_R   0.587498 0.972585 0.328569 -0.034353
C75   C     C_R   0.453057 0.927539 0.695855 -0.018340
C76   C     C_R   0.330408 0.589740 0.968705 -0.041712
C77   C     C_R   0.669042 0.409957 0.032899 -0.035587
C78   C     C_R   0.071332 0.304611 0.547757 -0.020003
C79   C     C_R   0.024679 0.671777 0.413854 -0.033773
C80   C     C_R   0.703834 0.029168 0.322862 0.456957
C81   C     C_R   0.455843 0.946781 0.323353 -0.058996
C82   C     C_R   0.326348 0.888838 0.695618 0.473840
C83   C     C_R   0.109747 0.304960 0.674398 0.450872
C84   C     C_R   0.969029 0.677216 0.296961 0.450196
C85   C     C_R   0.324122 0.713945 0.013900 0.496439
C86   C     C_R   0.674660 0.285001 0.989310 0.446583
C87   C     C_R   0.667640 0.997602 0.281958 0.452111
C88   C     C_R   0.377316 0.894306 0.742208 0.443424
C89   C     C_R   0.286353 0.675693 0.981056 0.468876
C90   C     C_R   0.712607 0.323543 0.021649 0.450022
C91   C     C_R   0.104734 0.258351 0.623458 0.442045
C92   C     C_R   0.675801 0.545285 0.050472 -0.056805
C93   C     C_R   0.999882 0.718270 0.333632 0.444202
C94   C     C_R   0.546031 0.975687 0.417365 -0.072990
C95   C     C_R   0.478767 0.952542 0.601984 -0.067976
C96   C     C_R   0.045817 0.398424 0.522067 -0.071942
C97   C     C_R   0.021814 0.582998 0.455137 -0.073345
C98   C     C_R   0.414115 0.543885 0.986803 -0.079036
C99   C     C_R   0.585462 0.455907 0.014487 -0.074707
C100  C     C_R   0.589013 0.995840 0.462056 -0.075682
C101  C     C_R   0.430200 0.942062 0.555135 -0.071741
C102  C     C_R   0.456030 0.586198 0.011684 -0.078134
Cu1   Cu    Cu3+1 0.995180 0.995180 0.424630 1.395876
Cu2   Cu    Cu3+1 0.004820 0.004820 0.575370 1.375976
Cu3   Cu    Cu3+1 0.995180 0.424630 0.995180 1.360842
Cu4   Cu    Cu3+1 0.004820 0.575370 0.004820 1.385162
Cu5   Cu    Cu3+1 0.424630 0.995180 0.995180 1.402458
Cu6   Cu    Cu3+1 0.575370 0.004820 0.004820 1.397150
F1    F     F_    0.261319 0.959388 0.261745 -0.534827
F2    F     F_    0.129422 0.167644 0.650833 -0.491878
F3    F     F_    0.794217 0.277962 0.037270 -0.458386
F4    F     F_    0.204396 0.720962 0.966178 -0.440319
F5    F     F_    0.251959 0.859765 0.743480 -0.430347
F6    F     F_    0.779361 0.056240 0.274862 -0.442157
F7    F     F_    0.719660 0.202376 0.977281 -0.461334
F8    F     F_    0.278297 0.795780 0.027697 -0.426468
F9    F     F_    0.942330 0.725139 0.221243 -0.451850
F10   F     F_    0.138949 0.257140 0.748713 -0.467332
F11   F     F_    0.496715 0.886230 0.828162 -0.582442
F12   F     F_    0.730869 0.057361 0.732674 -0.546811
F13   F     F_    0.604532 0.896363 0.228617 -0.515574
F14   F     F_    0.101851 0.771037 0.396598 -0.520625
F15   F     F_    0.113561 0.172375 0.504480 -0.574672
F16   F     F_    0.767393 0.398977 0.109996 -0.511947
F17   F     F_    0.232495 0.601270 0.890897 -0.508944
F18   F     F_    0.234054 0.869003 0.597310 -0.526065
F19   F     F_    0.756230 0.109925 0.407799 -0.518341
F20   F     F_    0.603036 0.231139 0.896652 -0.525855
F21   F     F_    0.397016 0.768875 0.104512 -0.526000
F22   F     F_    0.889930 0.591990 0.242954 -0.521081
F23   F     F_    0.943960 0.267055 0.268686 -0.520907
F24   F     F_    0.129993 0.402933 0.766125 -0.527170
F25   F     F_    0.040914 0.737894 0.738228 -0.525383
F26   F     F_    0.265163 0.265688 0.947578 -0.537814
F27   F     F_    0.735067 0.734604 0.051761 -0.527629
F28   F     F_    0.349724 0.870630 0.832918 -0.482447
F29   F     F_    0.707912 0.996867 0.195184 -0.455914
F30   F     F_    0.000339 0.805044 0.293528 -0.467589
O1    O     O_R   0.124540 0.978640 0.385460 -0.423517
O2    O     O_R   0.124540 0.385460 0.978640 -0.414789
O3    O     O_R   0.021360 0.875460 0.614540 -0.414455
O4    O     O_R   0.978640 0.124540 0.385460 -0.415134
O5    O     O_R   0.013780 0.867370 0.487190 -0.478759
O6    O     O_R   0.986220 0.132630 0.512810 -0.474818
O7    O     O_R   0.867370 0.487190 0.013780 -0.480812
O8    O     O_R   0.132630 0.512810 0.986220 -0.483739
O9    O     O_R   0.487190 0.013780 0.867370 -0.470307
O10   O     O_R   0.512810 0.986220 0.132630 -0.476008
O11   O     O_R   0.512810 0.132630 0.986220 -0.470954
O12   O     O_R   0.875460 0.021360 0.614540 -0.451619
O13   O     O_R   0.487190 0.867370 0.013780 -0.426335
O14   O     O_R   0.986220 0.512810 0.132630 -0.480469
O15   O     O_R   0.013780 0.487190 0.867370 -0.487265
O16   O     O_R   0.132630 0.986220 0.512810 -0.429948
O17   O     O_R   0.867370 0.013780 0.487190 -0.473993
O18   O     O_R   0.978640 0.385460 0.124540 -0.418184
O19   O     O_R   0.021360 0.614540 0.875460 -0.410285
O20   O     O_R   0.385460 0.124540 0.978640 -0.443602
O21   O     O_R   0.614540 0.875460 0.021360 -0.425343
O22   O     O_R   0.614540 0.021360 0.875460 -0.420918
O23   O     O_R   0.385460 0.978640 0.124540 -0.418977
O24   O     O_R   0.875460 0.614540 0.021360 -0.414643

loop_
_geom_bond_atom_site_label_1
_geom_bond_atom_site_label_2
_ccdc_geom_bond_type
Cu3   O15   S    
C23   O14   A    
C6    C45   A    
C51   F15   S    
C21   O20   A    
C74   C94   A    
C17   O7    A    
C50   F14   S    
C22   C40   S    
C61   F1    S    
C50   C79   A    
C60   F24   S    
C72   C85   A    
C75   C95   A    
Cu6   O21   S    
C54   F18   S    
C89   F4    S    
C19   O22   A    
C90   F3    S    
C91   F2    S    
C57   F21   S    
C16   O6    A    
C79   C93   A    
C80   C87   A    
C18   C44   S    
C58   C71   A    
C57   C59   A    
C54   C68   A    
C22   O21   A    
C76   C98   A    
Cu6   O11   S    
C2    C32   A    
C80   F6    S    
Cu2   O12   S    
C93   F30   S    
C4    C96   A    
Cu5   O23   S    
C78   C96   A    
C84   F9    S    
C1    C28   A    
C24   C38   S    
Cu5   Cu6   S    
C20   O10   A    
C3    C12   A    
C10   C96   A    
C74   C87   A    
C36   C63   A    
C8    C101  A    
C9    C95   A    
C12   C98   A    
C65   F26   S    
C9    C29   A    
C25   C34   S    
Cu5   O13   S    
C47   F11   S    
C6    C31   A    
C25   O16   A    
C14   O3    A    
C11   C31   A    
C33   C59   A    
C7    C30   A    
C40   C66   A    
C23   O18   A    
C12   C32   A    
C39   C65   A    
C44   C65   A    
C42   C81   A    
C41   C62   A    
C87   F29   S    
C15   C35   A    
C4    C69   A    
C1    C34   A    
C15   C29   A    
C14   C45   S    
C38   C64   A    
C27   O17   A    
C77   C90   A    
Cu4   O14   S    
C7    C46   A    
C8    C94   A    
C68   C101  A    
C88   F28   S    
C86   C90   A    
C33   C92   A    
C2    C44   A    
C85   C89   A    
C24   O19   A    
C27   C35   S    
C98   C102  A    
C34   C61   A    
C19   O9    A    
C31   C37   A    
C86   F7    S    
C15   C55   A    
C13   C99   A    
C16   O4    A    
C1    C54   A    
C17   C43   S    
C47   C70   A    
C13   C33   A    
C37   C38   A    
C69   C83   A    
Cu1   O1    S    
Cu5   O9    S    
C10   C30   A    
C20   C42   S    
C21   C39   S    
C94   C100  A    
C49   F13   S    
C71   C84   A    
Cu2   O6    S    
C21   O11   A    
C6    C50   A    
C4    C11   A    
C18   O2    A    
C26   C58   A    
C42   C61   A    
C53   F17   S    
C67   C100  A    
Cu1   O17   S    
C5    C97   A    
C26   C30   A    
C27   O12   A    
C63   F23   S    
C8    C28   A    
C52   C92   A    
C53   C76   A    
C22   O13   A    
C16   C46   S    
C52   C77   A    
Cu1   O4    S    
Cu5   O20   S    
C24   O15   A    
C83   F10   S    
C29   C70   A    
C26   C36   A    
C48   C56   A    
C64   F25   S    
C56   C73   A    
C25   O1    A    
C28   C81   A    
C49   C74   A    
C62   F12   S    
C79   C97   A    
C85   F8    S    
C67   C80   A    
C82   F5    S    
C55   F19   S    
C18   O8    A    
C2    C53   A    
Cu1   O5    S    
C55   C67   A    
Cu6   O22   S    
Cu4   O24   S    
C78   C91   A    
C9    C100  A    
Cu4   O19   S    
C83   C91   A    
Cu3   Cu4   S    
C76   C89   A    
C45   C64   A    
C95   C101  A    
C43   C92   A    
Cu4   O8    S    
C46   C63   A    
C11   C97   A    
C68   C82   A    
C14   O5    A    
C51   C78   A    
C7    C51   A    
C5    C10   A    
C5    C71   A    
Cu3   O2    S    
C52   F16   S    
C32   C48   A    
C72   C102  A    
C60   C69   A    
C58   F22   S    
C43   C66   A    
C82   C88   A    
C20   O23   A    
C77   C99   A    
C35   C62   A    
C49   C81   A    
C84   C93   A    
C56   F20   S    
C57   C72   A    
C3    C73   A    
C73   C86   A    
C37   C60   A    
C17   O24   A    
C47   C75   A    
C66   F27   S    
C3    C99   A    
C75   C88   A    
Cu3   O18   S    
C23   C36   S    
Cu1   Cu2   S    
C40   C59   A    
Cu2   O3    S    
C41   C70   A    
Cu2   O16   S    
C13   C102  A    
Cu3   O7    S    
C19   C41   S    
C39   C48   A    
Cu6   O10   S    
