data_mof_unit_15823.cif
_audit_creation_date              2013-03-05T16:19:13-0500
_audit_creation_method            fapswitch 2.2
_symmetry_space_group_name_H-M    P1
_symmetry_Int_Tables_number       1
_space_group_crystal_system       triclinic
_cell_length_a                    36.211588
_cell_length_b                    39.838509
_cell_length_c                    8.416934
_cell_angle_alpha                 90.000048
_cell_angle_beta                  93.615804
_cell_angle_gamma                 90.040572
_cell_volume                      12118.226851

loop_
_atom_site_label
_atom_site_type_symbol
_atom_site_description
_atom_site_fract_x
_atom_site_fract_y
_atom_site_fract_z
_atom_type_partial_charge
P1    P     P_3+3 0.075650 0.535480 0.098240 0.506289
P2    P     P_3+3 0.075650 0.464520 0.598240 0.473153
P3    P     P_3+3 0.575650 0.035480 0.098240 0.505555
P4    P     P_3+3 0.575650 0.964520 0.598240 0.471718
O1    O     O_2   0.072110 0.546320 0.923350 -0.360931
O2    O     O_2   0.072110 0.453680 0.423350 -0.364806
O3    O     O_2   0.572110 0.046320 0.923350 -0.361615
O4    O     O_2   0.572110 0.953680 0.423350 -0.364734
O5    O     O_3   0.042000 0.516250 0.155330 -0.389984
O6    O     O_3   0.042000 0.483750 0.655330 -0.375793
O7    O     O_3   0.542000 0.016250 0.155330 -0.394042
O8    O     O_3   0.542000 0.983750 0.655330 -0.376960
O9    O     O_3   0.012540 0.574900 0.645500 -0.351459
O10   O     O_3   0.012540 0.425100 0.145500 -0.351274
O11   O     O_3   0.512540 0.074900 0.645500 -0.357052
O12   O     O_3   0.512540 0.925100 0.145500 -0.351227
O13   O     O_2   0.071377 0.602081 0.793375 -0.392251
O14   O     O_2   0.071253 0.397689 0.293373 -0.393420
O15   O     O_2   0.569379 0.104959 0.803521 -0.428119
O16   O     O_2   0.571255 0.897650 0.293079 -0.393313
O17   O     O_3   0.115807 0.511073 0.112731 -0.524045
O18   O     O_3   0.115633 0.489175 0.613250 -0.604652
O19   O     O_3   0.615627 0.010827 0.113088 -0.523525
O20   O     O_3   0.615936 0.988737 0.614017 -0.605104
O21   O     O_3   0.029147 0.644580 0.647801 -0.547553
O22   O     O_3   0.029105 0.355353 0.144960 -0.547881
O23   O     O_3   0.527694 0.143826 0.614269 -0.529308
O24   O     O_3   0.528966 0.855320 0.145114 -0.548145
H1    H     H_    0.992782 0.640118 0.448925 0.100681
H2    H     H_    0.991638 0.360811 0.950307 0.102297
H3    H     H_    0.536495 0.159090 0.848653 0.077324
H4    H     H_    0.491194 0.860809 0.951567 0.103020
C1    C     C_3   0.002002 0.692398 0.516856 0.385329
C2    C     C_3   0.000869 0.308215 0.011920 0.384252
C3    C     C_3   0.488775 0.184264 0.738681 0.330523
C4    C     C_3   0.500680 0.808195 0.012115 0.383755
H5    H     H_    0.976595 0.691461 0.584689 0.055499
H6    H     H_    0.975976 0.308949 0.083051 0.074584
H7    H     H_    0.482195 0.193010 0.859221 0.053029
H8    H     H_    0.475925 0.808806 0.084122 0.075498
P5    P     P_3+3 0.924520 0.535770 0.591580 0.484285
P6    P     P_3+3 0.924520 0.464230 0.091580 0.480206
P7    P     P_3+3 0.424520 0.035770 0.591580 0.481220
P8    P     P_3+3 0.424520 0.964230 0.091580 0.478918
P9    P     P_3+3 0.952551 0.604574 0.054704 0.466453
P10   P     P_3+3 0.952607 0.395219 0.554878 0.462253
P11   P     P_3+3 0.451449 0.103695 0.054763 0.479225
P12   P     P_3+3 0.452572 0.895271 0.554655 0.462853
O25   O     O_2   0.928110 0.546600 0.766510 -0.369816
O26   O     O_2   0.928110 0.453400 0.266510 -0.369584
O27   O     O_2   0.428110 0.046600 0.766510 -0.370246
O28   O     O_2   0.428110 0.953400 0.266510 -0.368212
O29   O     O_3   0.987780 0.574950 0.044470 -0.390160
O30   O     O_3   0.987780 0.425050 0.544470 -0.387989
O31   O     O_3   0.487780 0.074950 0.044470 -0.394700
O32   O     O_3   0.487780 0.925050 0.544470 -0.388126
O33   O     O_2   0.933762 0.608115 0.884915 -0.414650
O34   O     O_2   0.933373 0.391899 0.385762 -0.412032
O35   O     O_2   0.431859 0.105707 0.886352 -0.365240
O36   O     O_2   0.433345 0.891982 0.385522 -0.411894
O37   O     O_3   0.884428 0.511213 0.577370 -0.553002
O38   O     O_3   0.884279 0.488513 0.077416 -0.556838
O39   O     O_3   0.384486 0.011138 0.577239 -0.555673
O40   O     O_3   0.384103 0.988259 0.077290 -0.557599
O41   O     O_3   0.974911 0.642916 0.093811 -0.513572
O42   O     O_3   0.975028 0.356862 0.591069 -0.517440
O43   O     O_3   0.470631 0.143743 0.081699 -0.514593
O44   O     O_3   0.474897 0.856878 0.590995 -0.517498
C5    C     C_3   0.000163 0.648370 0.976369 0.437481
C6    C     C_3   0.000210 0.351801 0.473223 0.432663
C7    C     C_3   0.501861 0.141362 0.188669 0.288947
C8    C     C_3   0.500019 0.851723 0.473008 0.431117
H9    H     H_    0.984839 0.653913 0.860860 0.133576
H10   H     H_    0.984859 0.347181 0.356816 0.135991
H11   H     H_    0.524288 0.127385 0.133383 0.085758
H12   H     H_    0.484620 0.847148 0.356641 0.135958
H13   H     H_    0.018712 0.626457 0.964431 0.140869
H14   H     H_    0.019203 0.373539 0.465051 0.143000
H15   H     H_    0.494954 0.128893 0.301282 0.135206
H16   H     H_    0.519105 0.873400 0.464769 0.143133
C9    C     C_3   0.024710 0.678203 0.021957 -0.749968
C10   C     C_3   0.024011 0.321320 0.515067 -0.745837
C11   C     C_3   0.516010 0.176460 0.228324 -0.667512
C12   C     C_3   0.523678 0.821151 0.514789 -0.743958
H17   H     H_    0.046084 0.681240 0.934115 0.252004
H18   H     H_    0.045435 0.318439 0.427368 0.252653
H19   H     H_    0.527748 0.187968 0.122416 0.214308
H20   H     H_    0.545157 0.818246 0.427355 0.252699
H21   H     H_    0.007871 0.701438 0.023600 0.307735
H22   H     H_    0.006597 0.298376 0.513383 0.304011
H23   H     H_    0.493041 0.192424 0.265994 0.305250
H24   H     H_    0.506171 0.798258 0.512677 0.303146
C13   C     C_3   0.890552 0.519189 0.153866 0.410453
C14   C     C_3   0.890907 0.480588 0.654217 0.403305
C15   C     C_3   0.390112 0.018974 0.153530 0.409272
C16   C     C_3   0.390937 0.980754 0.655745 0.404367
H25   H     H_    0.905503 0.515882 0.271653 0.108602
H26   H     H_    0.905155 0.484184 0.773228 0.109492
H27   H     H_    0.405577 0.015906 0.270386 0.107811
H28   H     H_    0.404092 0.984803 0.776367 0.111136
H29   H     H_    0.906633 0.535564 0.077100 0.093385
H30   H     H_    0.907764 0.464430 0.579606 0.095127
H31   H     H_    0.405553 0.035536 0.075247 0.092982
H32   H     H_    0.408830 0.964808 0.584724 0.095093
C17   C     C_3   0.853135 0.535134 0.178697 -0.926493
C18   C     C_3   0.853639 0.463975 0.675352 -0.915534
C19   C     C_3   0.352548 0.034354 0.181068 -0.923558
C20   C     C_3   0.353777 0.963556 0.671610 -0.917021
H33   H     H_    0.835839 0.517537 0.244535 0.282579
H34   H     H_    0.835667 0.481199 0.739814 0.282297
H35   H     H_    0.335825 0.016466 0.247975 0.282605
H36   H     H_    0.334614 0.980763 0.729652 0.282436
H37   H     H_    0.856511 0.558502 0.249207 0.220773
H38   H     H_    0.857120 0.440582 0.745604 0.224740
H39   H     H_    0.355760 0.057725 0.251660 0.215917
H40   H     H_    0.357107 0.940715 0.745734 0.226170
H41   H     H_    0.838682 0.541081 0.061792 0.257714
H42   H     H_    0.839860 0.457908 0.557205 0.255853
H43   H     H_    0.337575 0.040156 0.065103 0.258313
H44   H     H_    0.341437 0.956513 0.552175 0.254962
Ba1   Ba    Ba6+2 0.000060 0.523150 0.844950 1.568667
Ba2   Ba    Ba6+2 0.000060 0.476850 0.344950 1.561218
Ba3   Ba    Ba6+2 0.500060 0.023150 0.844950 1.572513
Ba4   Ba    Ba6+2 0.500060 0.976850 0.344950 1.560326
C21   C     C_3   0.109519 0.479919 0.040160 0.359175
C22   C     C_3   0.109402 0.519923 0.536870 0.267047
C23   C     C_3   0.609286 0.979833 0.039073 0.360505
C24   C     C_3   0.610181 0.019483 0.537483 0.262417
H45   H     H_    0.096031 0.482758 0.919146 0.084686
H46   H     H_    0.096843 0.516332 0.414765 0.114379
H47   H     H_    0.595946 0.982936 0.917975 0.085491
H48   H     H_    0.597510 0.016000 0.415455 0.117189
H49   H     H_    0.091706 0.464548 0.114392 0.094194
H50   H     H_    0.090814 0.535399 0.606934 0.129390
H51   H     H_    0.591314 0.964394 0.112280 0.094004
H52   H     H_    0.591897 0.035129 0.608100 0.123821
C25   C     C_3   0.146879 0.462301 0.029534 -0.723710
C26   C     C_3   0.146591 0.537938 0.528772 -0.742278
C27   C     C_3   0.646598 0.962117 0.028485 -0.723181
C28   C     C_3   0.647639 0.037014 0.528849 -0.742446
H53   H     H_    0.142685 0.436352 0.985422 0.137190
H54   H     H_    0.142426 0.563074 0.474578 0.200563
H55   H     H_    0.642342 0.936287 0.982875 0.137609
H56   H     H_    0.643841 0.062141 0.474055 0.199150
H57   H     H_    0.161296 0.460776 0.149882 0.220153
H58   H     H_    0.159311 0.541470 0.651215 0.219886
H59   H     H_    0.660841 0.960265 0.149081 0.219635
H60   H     H_    0.660443 0.040525 0.651157 0.218385
O45   O     O_3   0.958050 0.483830 0.034350 -0.394269
O46   O     O_3   0.958050 0.516170 0.534350 -0.394118
O47   O     O_3   0.458050 0.983830 0.034350 -0.395206
O48   O     O_3   0.458050 0.016170 0.534350 -0.394322
P13   P     P_3+3 0.048161 0.395528 0.133090 0.455876
P14   P     P_3+3 0.048197 0.604484 0.633493 0.458227
P15   P     P_3+3 0.548082 0.895467 0.132999 0.456040
P16   P     P_3+3 0.548478 0.104215 0.637204 0.463657
C29   C     C_3   0.015950 0.656231 0.497500 0.041756
C30   C     C_3   0.014950 0.344430 0.994637 0.040446
C31   C     C_3   0.513411 0.153079 0.759703 0.227438
C32   C     C_3   0.514615 0.844458 0.994968 0.040907
H61   H     H_    0.038336 0.656419 0.413445 0.123656
H62   H     H_    0.036784 0.344594 0.907874 0.122714
H63   H     H_    0.496557 0.132457 0.806452 0.141436
H64   H     H_    0.536289 0.844738 0.907467 0.121768
H65   H     H_    0.038886 0.674041 0.140891 0.247544
H66   H     H_    0.038079 0.324571 0.634885 0.254255
H67   H     H_    0.537807 0.175176 0.326744 0.270350
H68   H     H_    0.537666 0.824317 0.634818 0.255658
C33   C     C_R   0.819499 0.358372 0.971714 0.523879
C34   C     C_R   0.821520 0.640977 0.502840 0.527919
C35   C     C_R   0.319354 0.858613 0.967579 0.524226
C36   C     C_R   0.321457 0.141000 0.504814 0.518638
O49   O     O_2   0.810178 0.387723 0.955167 -0.582269
O50   O     O_2   0.815315 0.611339 0.527646 -0.586871
O51   O     O_2   0.309990 0.887907 0.948815 -0.581583
O52   O     O_2   0.315556 0.111484 0.533723 -0.592412
N1    N     N_R   0.855597 0.349125 0.948121 -0.169925
N2    N     N_R   0.854326 0.650312 0.438557 -0.167716
N3    N     N_R   0.355609 0.849395 0.947339 -0.170237
N4    N     N_R   0.353752 0.150080 0.435703 -0.168402
C37   C     C_R   0.866400 0.316005 0.968636 0.566415
C38   C     C_R   0.860859 0.683915 0.407655 0.550777
C39   C     C_R   0.366536 0.816396 0.970842 0.568083
C40   C     C_R   0.359831 0.183525 0.399101 0.629472
C41   C     C_2   0.895608 0.375051 0.757696 -0.118037
C42   C     C_2   0.893998 0.622912 0.250504 -0.120833
C43   C     C_2   0.395549 0.875291 0.757071 -0.117679
C44   C     C_2   0.392894 0.121878 0.248421 -0.119586
C45   C     C_3   0.919425 0.404514 0.710547 0.140089
C46   C     C_3   0.919202 0.594224 0.207981 0.136032
C47   C     C_3   0.419451 0.904685 0.710212 0.141782
C48   C     C_3   0.418402 0.093303 0.208123 0.100300
C49   C     C_1   0.918971 0.424501 0.982393 0.302349
C50   C     C_1   0.919050 0.575571 0.482054 0.291445
C51   C     C_1   0.419123 0.924532 0.982314 0.302961
C52   C     C_1   0.418753 0.075564 0.482801 0.270031
C53   C     C_2   0.894940 0.401179 0.022677 -0.189307
C54   C     C_2   0.895302 0.599239 0.521034 -0.177921
C55   C     C_2   0.395136 0.901198 0.022607 -0.189947
C56   C     C_2   0.394991 0.099295 0.520995 -0.102639
C57   C     C_2   0.882304 0.374453 0.905251 0.113083
C58   C     C_2   0.881341 0.624770 0.399238 0.097869
C59   C     C_2   0.382362 0.874641 0.904746 0.113727
C60   C     C_2   0.380630 0.124345 0.397486 0.140710
C61   C     C_R   0.803736 0.300124 0.031267 -0.061217
C62   C     C_R   0.801040 0.699542 0.504336 -0.059328
C63   C     C_R   0.303626 0.800488 0.029240 -0.061699
C64   C     C_R   0.300723 0.199477 0.502052 -0.058681
C65   C     C_R   0.793216 0.334098 0.013935 -0.056947
C66   C     C_R   0.794699 0.665390 0.537329 -0.054557
C67   C     C_R   0.292984 0.834372 0.008957 -0.057589
C68   C     C_R   0.294766 0.165482 0.539409 -0.045167
C69   C     C_R   0.756626 0.343120 0.038905 -0.077239
C70   C     C_R   0.761471 0.656261 0.602587 -0.078675
C71   C     C_R   0.256199 0.843333 0.030158 -0.076157
C72   C     C_R   0.262030 0.156540 0.609175 -0.076167
C73   C     C_R   0.840651 0.291125 0.009496 -0.127016
C74   C     C_R   0.834188 0.708727 0.437544 -0.123426
C75   C     C_R   0.340733 0.791560 0.011258 -0.127110
C76   C     C_R   0.333333 0.208434 0.430204 -0.139000
C77   C     C_2   0.938396 0.420551 0.856376 -0.447769
C78   C     C_2   0.938436 0.579305 0.355878 -0.438390
C79   C     C_2   0.438509 0.920624 0.856146 -0.449051
C80   C     C_2   0.438020 0.079126 0.356513 -0.404214
H69   H     H_    0.883746 0.401616 0.139235 0.169566
H70   H     H_    0.885680 0.600137 0.640381 0.183548
H71   H     H_    0.383963 0.901581 0.139208 0.169131
H72   H     H_    0.385643 0.100580 0.640666 0.181474
H73   H     H_    0.747548 0.368935 0.025056 0.173381
H74   H     H_    0.755883 0.630297 0.631064 0.172940
H75   H     H_    0.247054 0.869084 0.014127 0.174122
H76   H     H_    0.256775 0.130703 0.641092 0.173141
C81   C     C_2   0.060827 0.580569 0.325078 -0.457854
C82   C     C_2   0.060930 0.419465 0.825159 -0.438961
C83   C     C_2   0.562027 0.079001 0.333585 -0.500599
C84   C     C_2   0.560763 0.919376 0.824794 -0.440450
C85   C     C_R   0.214271 0.760651 0.140511 0.035358
C86   C     C_R   0.212752 0.239511 0.627421 0.034889
C87   C     C_R   0.714882 0.260341 0.149263 0.036327
C88   C     C_R   0.712537 0.739396 0.625092 0.034496
C89   C     C_R   0.259869 0.716395 0.097229 0.033018
C90   C     C_R   0.256421 0.283716 0.559383 0.031838
C91   C     C_R   0.759795 0.215996 0.098022 0.032579
C92   C     C_R   0.756779 0.783703 0.564366 0.032034
C93   C     C_R   0.223785 0.726137 0.135402 0.112367
C94   C     C_R   0.221609 0.274019 0.613047 0.110402
C95   C     C_R   0.724063 0.225796 0.140693 0.111271
C96   C     C_R   0.721633 0.773933 0.614144 0.110532
C97   C     C_R   0.178826 0.769192 0.189900 -0.202254
C98   C     C_R   0.176693 0.231046 0.669536 -0.203243
C99   C     C_R   0.679919 0.268920 0.203684 -0.200898
C100  C     C_R   0.676238 0.730928 0.664028 -0.202801
C101  C     C_R   0.153247 0.744610 0.226457 -0.027786
C102  C     C_R   0.150965 0.255673 0.703334 -0.027646
C103  C     C_R   0.654447 0.244364 0.241822 -0.047013
C104  C     C_R   0.650473 0.755536 0.697776 -0.027264
C105  C     C_R   0.161648 0.710387 0.213867 -0.075139
C106  C     C_R   0.160178 0.289841 0.699159 -0.078505
C107  C     C_R   0.662417 0.210124 0.225424 -0.066022
C108  C     C_R   0.659850 0.789691 0.696523 -0.078777
C109  C     C_R   0.196839 0.701079 0.166613 -0.071012
C110  C     C_R   0.195675 0.299085 0.655204 -0.075394
C111  C     C_R   0.697122 0.200781 0.172982 -0.071034
C112  C     C_R   0.695594 0.798956 0.655842 -0.075421
C113  C     C_R   0.205051 0.666746 0.149267 -0.072071
C114  C     C_R   0.205435 0.333333 0.654906 -0.055833
C115  C     C_R   0.704857 0.166467 0.151725 -0.072510
C116  C     C_R   0.705496 0.833188 0.658421 -0.056132
C117  C     C_R   0.178594 0.642181 0.185605 0.536775
C118  C     C_R   0.179420 0.357885 0.695945 0.525942
C119  C     C_R   0.678335 0.141928 0.188231 0.534769
C120  C     C_R   0.679360 0.857703 0.698538 0.525790
N5    N     N_R   0.144399 0.651546 0.236338 -0.170380
N6    N     N_R   0.144346 0.348582 0.736291 -0.166885
N7    N     N_R   0.644546 0.151287 0.243501 -0.168152
N8    N     N_R   0.644070 0.848386 0.735771 -0.167009
C121  C     C_R   0.135602 0.685298 0.247942 0.548352
C122  C     C_R   0.134607 0.314941 0.737928 0.551396
C123  C     C_R   0.636391 0.185077 0.260701 0.541197
C124  C     C_R   0.634214 0.814760 0.735117 0.552604
C125  C     C_2   0.104318 0.625485 0.425868 -0.217677
C126  C     C_2   0.104101 0.374386 0.925561 -0.215552
C127  C     C_2   0.604767 0.124558 0.432925 -0.183131
C128  C     C_2   0.603776 0.874137 0.924785 -0.214915
C129  C     C_3   0.079715 0.596556 0.470345 0.139976
C130  C     C_3   0.079767 0.403461 0.970413 0.133480
C131  C     C_3   0.580890 0.095168 0.478844 0.168348
C132  C     C_3   0.579590 0.903287 0.969886 0.133686
C133  C     C_1   0.081122 0.575714 0.202787 0.295481
C134  C     C_1   0.081310 0.424386 0.703175 0.301023
C135  C     C_1   0.581427 0.075248 0.207402 0.295594
C136  C     C_1   0.581140 0.924296 0.702774 0.303891
C137  C     C_2   0.105548 0.598764 0.162633 -0.166738
C138  C     C_2   0.105956 0.401516 0.663509 -0.228495
C139  C     C_2   0.605264 0.098802 0.167266 -0.167412
C140  C     C_2   0.605721 0.901362 0.662969 -0.228457
C141  C     C_2   0.117950 0.625901 0.279033 0.112004
C142  C     C_2   0.117999 0.374200 0.779320 0.130672
C143  C     C_2   0.617944 0.125582 0.285167 0.104143
C144  C     C_2   0.617670 0.873969 0.778587 0.131200
O53   O     O_2   0.104945 0.693531 0.286713 -0.550442
O54   O     O_2   0.103568 0.306830 0.772276 -0.552658
O55   O     O_2   0.606321 0.193426 0.305668 -0.581234
O56   O     O_2   0.603029 0.806639 0.767370 -0.552966
C145  C     C_R   0.740686 0.284997 0.101818 0.049167
C146  C     C_R   0.740031 0.714636 0.598589 0.050745
C147  C     C_R   0.240230 0.785302 0.094551 0.049735
C148  C     C_R   0.240239 0.214769 0.600979 0.050213
C149  C     C_R   0.777396 0.275228 0.071579 0.109828
C150  C     C_R   0.774140 0.724466 0.537297 0.108278
C151  C     C_R   0.277209 0.775609 0.068647 0.109672
C152  C     C_R   0.273924 0.224454 0.535495 0.110850
C153  C     C_R   0.788048 0.240863 0.083386 -0.064702
C154  C     C_R   0.781310 0.758935 0.506679 -0.062503
C155  C     C_R   0.288047 0.741340 0.083756 -0.064361
C156  C     C_R   0.280741 0.258814 0.501188 -0.061561
C157  C     C_R   0.730987 0.319222 0.082288 -0.201432
C158  C     C_R   0.734756 0.680241 0.632455 -0.201069
C159  C     C_R   0.230439 0.819445 0.072325 -0.198643
C160  C     C_R   0.235366 0.180541 0.639081 -0.203315
H77   H     H_    0.113429 0.643852 0.515251 0.182666
H78   H     H_    0.112883 0.355766 0.014221 0.178708
H79   H     H_    0.614247 0.142618 0.523123 0.169155
H80   H     H_    0.612520 0.855474 0.013301 0.178377
H81   H     H_    0.126588 0.752629 0.264336 0.195211
H82   H     H_    0.123731 0.247726 0.734581 0.194972
H83   H     H_    0.628176 0.252423 0.283653 0.183508
H84   H     H_    0.623062 0.747579 0.726557 0.194593
H85   H     H_    0.170290 0.794840 0.205394 0.141272
H86   H     H_    0.167165 0.205441 0.673648 0.142963
H87   H     H_    0.671739 0.294574 0.222089 0.138319
H88   H     H_    0.666558 0.705348 0.665792 0.142630
H89   H     H_    0.703286 0.328254 0.095440 0.138108
H90   H     H_    0.710466 0.671086 0.686251 0.137262
H91   H     H_    0.202608 0.828427 0.082438 0.139715
H92   H     H_    0.211471 0.171572 0.696430 0.137701
O57   O     O_2   0.898594 0.308228 0.953451 -0.544202
O58   O     O_2   0.890059 0.692335 0.354538 -0.525761
O59   O     O_2   0.398872 0.808703 0.958607 -0.545501
O60   O     O_2   0.388443 0.191717 0.339850 -0.513173
C161  C     C_R   0.851694 0.257817 0.037405 -0.028494
C162  C     C_R   0.839318 0.742258 0.393600 -0.029467
C163  C     C_R   0.351870 0.758399 0.042391 -0.028300
C164  C     C_R   0.338026 0.241807 0.382769 -0.020824
H93   H     H_    0.886294 0.356615 0.668989 0.152531
H94   H     H_    0.883540 0.639934 0.157547 0.160013
H95   H     H_    0.386098 0.856944 0.668173 0.151506
H96   H     H_    0.382097 0.138407 0.154063 0.159785
H97   H     H_    0.880695 0.251339 0.033006 0.212654
H98   H     H_    0.863419 0.748922 0.330206 0.214087
H99   H     H_    0.380963 0.752030 0.040945 0.212301
H100  H     H_    0.361659 0.248277 0.315992 0.208460
C165  C     C_R   0.265774 0.682096 0.064220 -0.231662
C166  C     C_R   0.266579 0.317859 0.575408 -0.220404
C167  C     C_R   0.765222 0.181763 0.062024 -0.232208
C168  C     C_R   0.767024 0.817764 0.583712 -0.221996
C169  C     C_R   0.239320 0.657747 0.093027 -0.050560
C170  C     C_R   0.241446 0.342200 0.618890 -0.068278
C171  C     C_R   0.738714 0.157474 0.091391 -0.051111
C172  C     C_R   0.741749 0.842054 0.626255 -0.067634
O61   O     O_2   0.186280 0.612433 0.174524 -0.537258
O62   O     O_2   0.188160 0.387531 0.697449 -0.605034
O63   O     O_2   0.685643 0.112187 0.173277 -0.539777
O64   O     O_2   0.688181 0.887332 0.702059 -0.604913
C173  C     C_R   0.826610 0.233140 0.082148 -0.112657
C174  C     C_R   0.812541 0.766899 0.417930 -0.101337
C175  C     C_R   0.326704 0.733777 0.086693 -0.112290
C176  C     C_R   0.311393 0.266517 0.408467 -0.097785
H101  H     H_    0.290483 0.673627 0.010960 0.146022
H102  H     H_    0.294507 0.326170 0.559937 0.150567
H103  H     H_    0.789558 0.173322 0.005824 0.145660
H104  H     H_    0.795100 0.826041 0.571518 0.150495
H105  H     H_    0.245794 0.631718 0.069835 0.181097
H106  H     H_    0.250541 0.368103 0.625633 0.174298
H107  H     H_    0.744821 0.131492 0.065433 0.181163
H108  H     H_    0.750930 0.867911 0.635462 0.174512
H109  H     H_    0.116756 0.598095 0.046210 0.186568
H110  H     H_    0.117584 0.402439 0.547937 0.180135
H111  H     H_    0.616070 0.098623 0.050013 0.186697
H112  H     H_    0.617480 0.902364 0.547689 0.179496
H113  H     H_    0.966148 0.430728 0.853742 0.166418
H114  H     H_    0.966206 0.569181 0.353862 0.165428
H115  H     H_    0.466158 0.931005 0.853028 0.166751
H116  H     H_    0.466049 0.069551 0.355262 0.154009
H117  H     H_    0.030902 0.579708 0.309706 0.161481
H118  H     H_    0.031006 0.420032 0.809059 0.158458
H119  H     H_    0.533918 0.069604 0.334850 0.166833
H120  H     H_    0.530841 0.919978 0.808770 0.158842
C177  C     C_2   0.171012 0.480267 0.918572 0.766528
H121  H     H_    0.175688 0.469470 0.803202 0.012469
O65   O     O_2   0.185097 0.507204 0.955947 -0.508881
C178  C     C_2   0.172662 0.518181 0.433380 0.771681
H122  H     H_    0.180630 0.492927 0.469631 0.006919
O66   O     O_2   0.185286 0.530417 0.315395 -0.492808
C179  C     C_2   0.671003 0.980239 0.919144 0.767694
H123  H     H_    0.676066 0.969526 0.803993 0.011973
O67   O     O_2   0.684922 0.007183 0.957640 -0.508015
C180  C     C_2   0.673378 0.016815 0.433756 0.773315
H124  H     H_    0.680970 0.991502 0.470507 0.006211
O68   O     O_2   0.686155 0.028756 0.315455 -0.493814
N9    N     N_R   0.992316 0.707676 0.361716 0.220387
O69   O     O_R   0.010216 0.733712 0.313241 -0.306085
O70   O     O_R   0.962806 0.697718 0.279226 -0.323288
N10   N     N_R   0.990065 0.293585 0.856264 0.224552
O71   O     O_R   0.007085 0.267379 0.804398 -0.307882
O72   O     O_R   0.960200 0.304011 0.777837 -0.330778
N11   N     N_R   0.454174 0.175794 0.648165 0.257693
O73   O     O_R   0.422706 0.179385 0.712711 -0.370620
O74   O     O_R   0.454635 0.163547 0.505085 -0.358809
N12   N     N_R   0.489645 0.793655 0.856485 0.224720
O75   O     O_R   0.506506 0.767417 0.803989 -0.308233
O76   O     O_R   0.459757 0.804219 0.778668 -0.331559
N13   N     N_R   0.029869 0.712797 0.606392 0.264073
O77   O     O_R   0.020480 0.730771 0.726364 -0.362135
O78   O     O_R   0.063616 0.714497 0.562233 -0.315047
N14   N     N_R   0.029117 0.287370 0.096305 0.263227
O79   O     O_R   0.020489 0.269156 0.216769 -0.361319
O80   O     O_R   0.062426 0.285577 0.047174 -0.315381
N15   N     N_R   0.508265 0.211479 0.661807 0.254056
O81   O     O_R   0.539349 0.222715 0.727408 -0.375378
O82   O     O_R   0.493109 0.227054 0.538399 -0.310203
N16   N     N_R   0.529136 0.787365 0.095249 0.263187
O83   O     O_R   0.520800 0.769064 0.215888 -0.361469
O84   O     O_R   0.562342 0.785693 0.044894 -0.316228
C181  C     C_2   0.842660 0.201674 0.151878 0.540871
H125  H     H_    0.827841 0.187501 0.237704 0.032722
O85   O     O_2   0.872911 0.191521 0.116611 -0.529222
C182  C     C_2   0.815045 0.798622 0.326105 0.522377
H126  H     H_    0.790289 0.813029 0.293799 0.025159
O86   O     O_2   0.844642 0.808721 0.282766 -0.534344
C183  C     C_2   0.342629 0.702615 0.160142 0.539899
H127  H     H_    0.327480 0.688685 0.245721 0.032440
O87   O     O_2   0.373112 0.692440 0.128111 -0.529329
C184  C     C_2   0.313319 0.297978 0.314301 0.518928
H128  H     H_    0.288397 0.312260 0.283424 0.025175
O88   O     O_2   0.342613 0.307992 0.267463 -0.536828

loop_
_geom_bond_atom_site_label_1
_geom_bond_atom_site_label_2
_geom_bond_distance
_ccdc_geom_bond_type
C91   C167  1.413609 A    
C47   C79   1.510202 S    
O27   Ba3   2.807735 S    
C181  H125  1.084941 S    
C118  N6    1.385469 Am   
C168  H104  1.079614 S    
P5    O37   1.747904 S    
C108  C112  1.408562 A    
C85   C97   1.415581 A    
P7    O39   1.747852 S    
C159  H91   1.078093 S    
P8    O40   1.747195 S    
C111  C115  1.409267 A    
P9    O33   1.550037 D    
C146  C150  1.422948 A    
C34   N2    1.386619 Am   
C105  C109  1.408614 A    
C73   C161  1.401709 A    
C138  C142  1.507187 S    
C161  C173  1.405426 A    
C34   O50   1.222181 D    
C15   H27   1.107516 S    
C74   C162  1.401438 A    
C42   C58   1.362056 D    
P14   C129  1.867163 S    
C20   H44   1.110011 S    
C81   H117  1.083741 S    
N8    C124  1.385995 Am   
C173  C181  1.487163 S    
C103  H83   1.083851 S    
C6    H10   1.110866 S    
P4    O8    1.542006 S    
C51   C55   1.330272 D    
C99   H87   1.078173 S    
C50   C78   1.317851 D    
C16   C20   1.522931 S    
C101  H81   1.083901 S    
N13   O78   1.301269 A    
C18   H42   1.110645 S    
P5    O25   1.531896 D    
N7    C143  1.463169 S    
O31   Ba3   2.715143 S    
Ba2   O45   2.953822 S    
C147  C159  1.415351 A    
C178  O66   1.220544 D    
C148  C160  1.414258 A    
C13   H29   1.108632 S    
C149  C153  1.424366 A    
O37   C14   1.393970 S    
C139  C143  1.508532 S    
C87   C99   1.415378 A    
O39   C16   1.391889 S    
C133  C137  1.332796 D    
C2    N14   1.466300 S    
C42   C46   1.519822 S    
C135  C139  1.332430 D    
C95   C111  1.432055 A    
C12   H68   1.108378 S    
C85   C147  1.429099 A    
C89   C165  1.413454 A    
C86   C148  1.428711 A    
O44   C8    1.403627 S    
O12   P15   1.755126 S    
C85   C93   1.419018 A    
C8    C12   1.518054 S    
C44   H96   1.085564 S    
C177  H121  1.085125 S    
C89   C93   1.419498 A    
C84   H120  1.083669 S    
C165  H101  1.080009 S    
Ba2   O46   2.760181 S    
C69   H73   1.083945 S    
C88   C146  1.429464 A    
C150  C154  1.423873 A    
O23   P16   1.754231 S    
Ba3   O48   2.953619 S    
C39   C75   1.416507 A    
C162  C174  1.404344 A    
O21   P14   1.747558 S    
C12   H20   1.110077 S    
O3    Ba3   2.806066 S    
C11   H23   1.109437 S    
O19   C23   1.395355 S    
C107  C111  1.408338 A    
C169  H105  1.083743 S    
N14   O79   1.300724 A    
O12   Ba4   2.714741 S    
C97   H85   1.078042 S    
C43   H95   1.085618 S    
O28   Ba4   2.806503 S    
C20   H40   1.105662 S    
O42   C6    1.403711 S    
C26   C178  1.500704 S    
O22   C30   1.403867 S    
C6    C10   1.518105 S    
C23   H47   1.107034 S    
O9    P14   1.755207 S    
P3    O7    1.541146 S    
P11   O35   1.546687 D    
C145  C149  1.423634 A    
C127  C143  1.360470 D    
C40   C76   1.416711 A    
C14   H30   1.109185 S    
O38   C13   1.392983 S    
C22   H46   1.106584 S    
C165  C169  1.394762 A    
P7    O48   1.546311 S    
C54   H70   1.084416 S    
C96   C112  1.431459 A    
C167  C171  1.395538 A    
C104  H84   1.083650 S    
C105  C121  1.415513 A    
C151  C155  1.424246 A    
C5    H13   1.110289 S    
O7    Ba4   2.760415 S    
C93   C109  1.431279 A    
C7    H15   1.112416 S    
N9    O69   1.301859 A    
Ba3   Ba4   4.594938 S    
C183  O87   1.222168 D    
C61   C73   1.407325 A    
C1    N9    1.463249 S    
C175  C183  1.487245 S    
C87   C95   1.418953 A    
C83   C135  1.318371 D    
C116  C172  1.402011 A    
C14   C18   1.523127 S    
C46   C78   1.509718 S    
C166  H102  1.079570 S    
O23   C31   1.407811 S    
O24   C32   1.404013 S    
P4    Ba4   3.397749 S    
P11   C48   1.861133 S    
C52   C80   1.315381 D    
P12   C47   1.868733 S    
C162  H98   1.084114 S    
C27   H55   1.105615 S    
C153  C173  1.430782 A    
C116  C120  1.416037 A    
Ba1   O45   2.758958 S    
C54   C58   1.508769 S    
P6    O38   1.747435 S    
O43   C7    1.403674 S    
C170  H106  1.083386 S    
P8    O28   1.531951 D    
P9    O29   1.744604 S    
P10   O34   1.550358 D    
C63   C67   1.411465 A    
C35   N3    1.384331 Am   
C106  C110  1.408584 A    
C115  C119  1.417170 A    
C33   N1    1.384653 Am   
C15   H31   1.108215 S    
C7    C11   1.518674 S    
C7    H11   1.111021 S    
C136  C140  1.333474 D    
C125  H77   1.085655 S    
N10   O71   1.302017 A    
C80   H116  1.085197 S    
C37   O57   1.220957 D    
C82   H118  1.083770 S    
C166  C170  1.394951 A    
C11   H67   1.108783 S    
C44   C60   1.360667 D    
P6    C49   1.834742 S    
P2    O18   1.746960 S    
C156  C176  1.429668 A    
C21   H45   1.107308 S    
O9    Ba1   2.714256 S    
C62   C66   1.410160 A    
C183  H127  1.084980 S    
C34   C66   1.417897 A    
H2    C30   1.113004 S    
C56   C60   1.509841 S    
O25   Ba1   2.807735 S    
C22   H50   1.109790 S    
N12   O75   1.302130 A    
P6    O26   1.531951 D    
C137  H109  1.084387 S    
Ba4   O47   2.953822 S    
N3    C59   1.456353 S    
C37   C73   1.417479 A    
N16   O83   1.300805 A    
C146  C158  1.414835 A    
N1    C57   1.458187 S    
P10   C45   1.869995 S    
P7    Ba3   3.398449 S    
C182  H126  1.084876 S    
C176  C184  1.486859 S    
C17   H33   1.110860 S    
C134  C138  1.332969 D    
C19   H35   1.110898 S    
C171  H107  1.083720 S    
C41   C45   1.523398 S    
C16   H28   1.105710 S    
C19   H43   1.110659 S    
C44   C48   1.518272 S    
P2    C134  1.831988 S    
N5    C121  1.386938 Am   
C24   C28   1.531000 S    
C8    H16   1.110606 S    
P9    O41   1.749821 S    
C102  H82   1.083595 S    
C50   C54   1.331512 D    
O8    Ba3   2.761633 S    
C26   H58   1.110911 S    
N1    C37   1.384208 Am   
C104  C108  1.402378 A    
C63   C151  1.430418 A    
C180  O68   1.220516 D    
N11   O74   1.300454 A    
P1    Ba1   3.397188 S    
H4    C32   1.113005 S    
C120  O64   1.222457 D    
C101  C105  1.402599 A    
P9    C46   1.867759 S    
C38   O58   1.220470 D    
C113  C169  1.402570 A    
O20   C24   1.393615 S    
C33   O49   1.222803 D    
O22   P13   1.747844 S    
C115  C171  1.403026 A    
C12   H24   1.109875 S    
P15   C132  1.865678 S    
C92   C154  1.433233 A    
P16   C131  1.866003 S    
C9    H17   1.110121 S    
C36   O52   1.222210 D    
C98   C102  1.395058 A    
C11   H19   1.110409 S    
N13   O77   1.300654 A    
O10   Ba2   2.714741 S    
O16   P15   1.544159 D    
C13   H25   1.107135 S    
O26   Ba2   2.806503 S    
C184  H128  1.084843 S    
C126  C142  1.358890 D    
C90   C94   1.418975 A    
P1    O1    1.531697 D    
C32   H64   1.109691 S    
C25   H57   1.111602 S    
N15   O82   1.301444 A    
C23   H51   1.109753 S    
P10   O42   1.748614 S    
P3    O3    1.531697 D    
C24   H52   1.109236 S    
P4    O20   1.746453 S    
C14   H26   1.106721 S    
C89   C155  1.433448 A    
C79   H115  1.084857 S    
C168  C172  1.394587 A    
C90   C156  1.433643 A    
C83   H119  1.084972 S    
C56   H72   1.083901 S    
C41   C57   1.360357 D    
P6    O45   1.545445 S    
C113  C117  1.415901 A    
N5    C141  1.460217 S    
C107  C123  1.416324 A    
C81   C129  1.504109 S    
N15   O81   1.301192 A    
P3    Ba3   3.397188 S    
C163  H99   1.084624 S    
C106  C122  1.415336 A    
O24   P15   1.747850 S    
C155  C175  1.430787 A    
C5    H9    1.110865 S    
C94   C110  1.431203 A    
P4    O4    1.531645 D    
C9    H21   1.109365 S    
C36   N4    1.386379 Am   
C49   C77   1.318662 D    
C2    H6    1.113543 S    
C55   C59   1.502968 S    
O15   P16   1.549089 D    
C181  O85   1.222039 D    
C17   H41   1.110632 S    
C41   H93   1.085593 S    
O13   P14   1.543488 D    
C4    N16   1.466378 S    
N8    C144  1.458572 S    
C1    C29   1.539214 S    
C121  O53   1.221759 D    
P2    Ba2   3.397749 S    
C125  C129  1.517439 S    
C140  H112  1.084677 S    
Ba3   O47   2.758958 S    
C123  O55   1.221485 D    
C127  C131  1.519421 S    
C27   C179  1.500279 S    
C128  C132  1.517629 S    
P1    O5    1.541146 S    
C48   C80   1.507414 S    
C26   H54   1.106862 S    
C125  C141  1.359540 D    
O4    Ba4   2.807285 S    
H1    C29   1.113115 S    
P5    O46   1.546311 S    
C21   C25   1.532163 S    
P3    O19   1.747870 S    
C10   H18   1.110068 S    
C128  C144  1.358491 D    
C1    H5    1.113569 S    
C92   C96   1.418930 A    
N14   O80   1.301530 A    
N7    C123  1.387883 Am   
P4    C136  1.832998 S    
C109  C113  1.409482 A    
P5    C50   1.838657 S    
C90   C166  1.413066 A    
C99   C103  1.395353 A    
C114  C170  1.402255 A    
C120  N8    1.385239 Am   
P10   O30   1.747605 S    
O5    Ba2   2.760415 S    
P12   O44   1.748440 S    
Ba1   Ba2   4.594938 S    
C15   C19   1.523270 S    
C100  H88   1.077821 S    
C88   C100  1.415185 A    
C91   C95   1.419487 A    
C78   H114  1.084846 S    
O17   C21   1.395513 S    
C70   H74   1.083578 S    
C29   H61   1.109062 S    
C71   C159  1.393638 A    
C10   H66   1.108363 S    
C17   H37   1.106578 S    
C72   C160  1.393489 A    
C25   H53   1.105572 S    
P8    C51   1.833588 S    
C91   C153  1.434493 A    
C154  C174  1.429561 A    
C158  H90   1.077718 S    
H3    C31   1.112390 S    
C28   H56   1.107204 S    
C178  H122  1.085309 S    
N4    C60   1.463810 S    
C25   C177  1.500096 S    
C61   C149  1.431132 A    
C179  H123  1.085205 S    
C10   H22   1.109696 S    
C117  N5    1.386422 Am   
C98   H86   1.077867 S    
O29   Ba1   2.715143 S    
C42   H94   1.085565 S    
P7    O27   1.531896 D    
C126  H78   1.085662 S    
O41   C5    1.405072 S    
P8    Ba4   3.397876 S    
C147  C151  1.423835 A    
C82   C134  1.316295 D    
C137  C141  1.508042 S    
C65   C69   1.401712 A    
C3    C31   1.533717 S    
C5    C9    1.518369 S    
C20   H36   1.110639 S    
C140  C144  1.507541 S    
P13   C130  1.865950 S    
C88   C96   1.418868 A    
C55   H71   1.084993 S    
C53   H69   1.085024 S    
C64   C76   1.406059 A    
C67   C71   1.401543 A    
C164  H100  1.084014 S    
P1    O17   1.747707 S    
C6    H14   1.110341 S    
C3    H7    1.112716 S    
P3    C135  1.836644 S    
C52   C56   1.331738 D    
O6    Ba1   2.761633 S    
C28   H60   1.110869 S    
C62   C74   1.405433 A    
C119  N7    1.387445 Am   
C27   H59   1.111650 S    
O11   Ba3   2.714256 S    
C18   H38   1.106696 S    
C71   H75   1.084063 S    
C128  H80   1.085676 S    
N10   O72   1.299395 A    
N6    C142  1.458755 S    
C167  H103  1.079997 S    
C108  C124  1.415652 A    
C45   C77   1.509894 S    
O18   C22   1.395280 S    
C163  C175  1.404753 A    
C102  C106  1.402228 A    
P5    Ba1   3.398449 S    
O1    Ba1   2.806066 S    
C97   C101  1.395113 A    
C139  H111  1.084369 S    
Ba1   O46   2.953619 S    
C119  O63   1.222421 D    
C13   C17   1.523130 S    
C161  H97   1.084515 S    
C68   C72   1.401500 A    
C157  H89   1.078152 S    
C83   C131  1.506722 S    
N11   O73   1.300915 A    
C53   C57   1.504050 S    
C84   C132  1.504201 S    
N12   O76   1.299507 A    
O32   Ba4   2.714667 S    
C64   C68   1.409869 A    
C100  C104  1.395332 A    
C43   C59   1.359611 D    
C64   C152  1.430688 A    
Ba4   O48   2.760181 S    
C66   C70   1.401591 A    
N16   O84   1.301668 A    
C160  H92   1.077771 S    
C86   C94   1.418336 A    
P2    O2    1.531645 D    
C23   C27   1.532365 S    
C24   H48   1.106883 S    
P11   O43   1.748661 S    
N9    O70   1.298938 A    
C182  O86   1.221592 D    
P12   O36   1.550281 D    
N3    C39   1.383750 Am   
C103  C107  1.403035 A    
P8    O47   1.545445 S    
C145  C157  1.415202 A    
P1    C133  1.833112 S    
C124  O56   1.221387 D    
C4    H8    1.113576 S    
C117  O61   1.222458 D    
C114  C118  1.416260 A    
C87   C145  1.429401 A    
C30   H62   1.109639 S    
C81   C133  1.316273 D    
C82   C130  1.503976 S    
C35   O51   1.222971 D    
C152  C156  1.423594 A    
P7    C52   1.836172 S    
C35   C67   1.416490 A    
C61   C65   1.411374 A    
C112  C116  1.409685 A    
C33   C65   1.417238 A    
C4    N12   1.464496 S    
C8    H12   1.111053 S    
N2    C38   1.386765 Am   
C84   C136  1.316472 D    
C19   H39   1.106597 S    
O11   P16   1.752622 S    
C138  H110  1.084683 S    
O14   P13   1.544110 D    
C92   C168  1.413192 A    
C2    C30   1.539781 S    
C122  O54   1.221403 D    
C28   C180  1.500664 S    
C38   C74   1.416034 A    
N2    C58   1.464292 S    
O10   P13   1.755509 S    
O21   C29   1.402956 S    
C31   H63   1.109879 S    
O2    Ba2   2.807285 S    
P2    O6    1.542006 S    
N4    C40   1.388097 Am   
P6    Ba2   3.397876 S    
P11   O31   1.751061 S    
C18   H34   1.110847 S    
C21   H49   1.109806 S    
P12   O32   1.746973 S    
C22   C26   1.530834 S    
C75   C163  1.401425 A    
N6    C122  1.385911 Am   
C43   C47   1.522352 S    
O40   C15   1.392258 S    
C36   C68   1.416688 A    
C110  C114  1.409235 A    
C77   H113  1.084902 S    
C184  O88   1.221465 D    
C40   O60   1.222044 D    
C63   C75   1.407595 A    
C2    N10   1.464328 S    
C126  C130  1.517923 S    
C16   H32   1.109129 S    
C51   C79   1.318689 D    
C179  O67   1.220607 D    
C3    N11   1.463958 S    
C49   C53   1.330975 D    
C72   H76   1.083532 S    
C1    N13   1.466133 S    
C76   C164  1.401455 A    
O30   Ba2   2.714667 S    
C3    N15   1.465892 S    
C70   C158  1.394178 A    
C127  H79   1.085645 S    
C4    C32   1.539713 S    
C39   O59   1.221204 D    
C164  C176  1.404903 A    
C148  C152  1.422921 A    
C118  O62   1.222358 D    
C177  O65   1.220532 D    
C9    H65   1.108345 S    
C180  H124  1.085315 S    
C172  H108  1.083472 S    
C69   C157  1.394000 A    
C86   C98   1.414980 A    
C62   C150  1.430829 A    
C174  C182  1.487094 S    
