data_mof_unit_20908.cif
_audit_creation_date              2012-12-11T17:09:25-0500
_audit_creation_method            fapswitch 2.2
_symmetry_space_group_name_H-M    P1
_symmetry_Int_Tables_number       1
_space_group_crystal_system       triclinic
_cell_length_a                    14.82304
_cell_length_b                    6.965835
_cell_length_c                    13.478218
_cell_angle_alpha                 89.999939
_cell_angle_beta                  99.867166
_cell_angle_gamma                 90.000393
_cell_volume                      1371.10505913

loop_
_atom_site_label
_atom_site_type_symbol
_atom_type_description
_atom_site_fract_x
_atom_site_fract_y
_atom_site_fract_z
_atom_type_partial_charge
O1    O     O_R   0.586930 0.505770 0.416350 -0.537394
O2    O     O_R   0.413070 0.005770 0.583650 -0.537390
O3    O     O_R   0.397900 0.173100 0.389630 -0.535057
O4    O     O_R   0.602100 0.673100 0.610370 -0.535055
C1    C     C_R   0.364338 0.345361 0.362967 0.727270
C2    C     C_R   0.635662 0.845362 0.637033 0.727275
O5    O     O_R   0.585280 0.175870 0.404330 -0.546912
O6    O     O_R   0.414720 0.675870 0.595670 -0.546916
O7    O     O_R   0.601790 0.008380 0.598460 -0.534414
O8    O     O_R   0.398210 0.508380 0.401540 -0.534416
C3    C     C_R   0.614607 0.344770 0.382966 0.704385
C4    C     C_R   0.385391 0.844768 0.617032 0.704390
O9    O     O_3   0.505200 0.340120 0.563670 -0.369044
O10   O     O_3   0.494800 0.840120 0.436330 -0.369046
V1    V     V_3+5 0.499040 0.064180 0.488190 1.434987
V2    V     V_3+5 0.500960 0.564180 0.511810 1.434986
C5    C     C_R   0.249685 0.001192 0.672825 0.014689
C6    C     C_R   0.750308 0.501208 0.327169 0.014727
C7    C     C_R   0.315047 0.853598 0.682910 -0.093979
C8    C     C_R   0.684948 0.353607 0.317085 -0.093995
C9    C     C_R   0.313177 0.717622 0.759826 -0.144313
C10   C     C_R   0.686817 0.217628 0.240167 -0.144321
H1    H     H_    0.363985 0.604604 0.772298 0.161217
H2    H     H_    0.636006 0.104601 0.227694 0.161195
C11   C     C_R   0.249647 0.734601 0.826103 -0.129737
C12   C     C_R   0.750343 0.234618 0.173888 -0.129690
H3    H     H_    0.254717 0.642224 0.890567 0.188944
H4    H     H_    0.745255 0.142263 0.109404 0.188946
C13   C     C_R   0.182837 0.878667 0.814177 -0.112399
C14   C     C_R   0.817166 0.378668 0.185827 -0.112424
C15   C     C_R   0.186114 0.015015 0.738689 0.083769
C16   C     C_R   0.813890 0.515018 0.261316 0.083703
C17   C     C_3   0.205117 0.225090 0.753521 0.333171
C18   C     C_3   0.794894 0.725093 0.246480 0.333175
C19   C     C_3   0.268344 0.211664 0.676214 -0.396001
C20   C     C_3   0.731641 0.711677 0.323760 -0.395901
H5    H     H_    0.341019 0.246711 0.706527 0.196225
H6    H     H_    0.658970 0.746700 0.293417 0.196194
H7    H     H_    0.241949 0.281537 0.602826 0.141645
H8    H     H_    0.758005 0.781577 0.397147 0.141658
C21   C     C_1   0.783558 0.877164 0.782826 -0.163470
C22   C     C_1   0.216442 0.377165 0.217174 -0.163463
C23   C     C_1   0.716224 0.860060 0.716724 -0.168833
C24   C     C_1   0.283776 0.360059 0.283276 -0.168836
O11   O     O_R   0.101720 0.231700 0.098560 -0.528749
O12   O     O_R   0.898280 0.731700 0.901440 -0.528739
O13   O     O_R   0.914700 0.558980 0.095690 -0.523851
O14   O     O_R   0.085300 0.058980 0.904310 -0.523846
C25   C     C_R   0.885073 0.390163 0.116809 0.724601
C26   C     C_R   0.114928 0.890164 0.883193 0.724565
O15   O     O_R   0.102080 0.561590 0.110390 -0.539822
O16   O     O_R   0.897920 0.061590 0.889610 -0.539820
O17   O     O_R   0.086950 0.728940 0.916330 -0.548616
O18   O     O_R   0.913050 0.228940 0.083670 -0.548591
C27   C     C_R   0.135940 0.391960 0.137429 0.756584
C28   C     C_R   0.864060 0.891959 0.862570 0.756606
O19   O     O_3   0.994770 0.394510 0.936380 -0.375955
O20   O     O_3   0.005230 0.894510 0.063620 -0.375960
V3    V     V_3+5 0.000970 0.670520 0.011800 1.460480
V4    V     V_3+5 0.999030 0.170520 0.988200 1.460491
Br1   Br    Br    0.274502 0.269168 0.888973 -0.614534
Br2   Br    Br    0.725548 0.769187 0.111014 -0.614538
C29   C     C_3   0.121398 0.358781 0.723647 -0.334441
C30   C     C_3   0.047314 0.281587 0.639697 -0.807550
H9    H     H_    0.076498 0.248043 0.571150 0.225711
H10   H     H_    0.015237 0.150558 0.665258 0.221860
H11   H     H_    0.993068 0.391795 0.619982 0.220332
H12   H     H_    0.089585 0.386387 0.790901 0.224406
H13   H     H_    0.145021 0.498675 0.698424 0.184793
C31   C     C_3   0.878618 0.858762 0.276374 -0.334479
C32   C     C_3   0.952625 0.781688 0.360430 -0.807776
H14   H     H_    0.923382 0.748408 0.428961 0.225760
H15   H     H_    0.984683 0.650536 0.335003 0.221900
H16   H     H_    0.006897 0.891852 0.380111 0.220353
H17   H     H_    0.910504 0.886181 0.209158 0.224418
H18   H     H_    0.854990 0.998727 0.301483 0.184862

loop_
_geom_bond_atom_site_label_1
_geom_bond_atom_site_label_2
_ccdc_geom_bond_type
O11   V4    S    
O12   V3    S    
O1    C3    A    
O2    C4    A    
C2    O7    A    
O17   V3    S    
O13   C25   A    
O18   V4    S    
O5    C3    A    
C19   H5    S    
O19   V3    S    
O20   V4    S    
C25   O18   A    
C18   Br2   S    
O16   V4    S    
C5    C7    A    
C29   H13   S    
C15   C17   S    
C31   C32   S    
O10   V2    S    
C18   C31   S    
C6    C8    A    
C17   C29   S    
O14   C26   A    
O6    V2    S    
C21   C23   T    
C22   C24   T    
O14   V4    S    
C13   C26   S    
C9    H1    S    
C11   C13   A    
C3    C8    S    
C26   O17   A    
C30   H11   S    
C20   H8    S    
O4    C2    A    
C32   H15   S    
O19   V4    S    
O15   C27   A    
O20   V3    S    
C30   H10   S    
O4    V2    S    
C19   H7    S    
C21   C28   S    
C22   C27   S    
O6    C4    A    
O1    V2    S    
O2    V1    S    
C1    C24   S    
C8    C10   A    
C12   C14   A    
C2    C23   S    
O9    V1    S    
C31   H18   S    
C5    C15   A    
C10   H2    S    
C6    C16   A    
O3    V1    S    
C9    C11   A    
C29   H12   S    
C7    C9    A    
C14   C25   S    
O3    C1    A    
C32   H16   S    
C11   H3    S    
C12   H4    S    
C30   H9    S    
C20   H6    S    
O7    V1    S    
C1    O8    A    
C13   C15   A    
O8    V2    S    
C14   C16   A    
C4    C7    S    
O5    V1    S    
C17   C19   S    
C18   C20   S    
O13   V3    S    
C29   C30   S    
C32   H14   S    
O15   V3    S    
O11   C27   A    
C17   Br1   S    
C10   C12   A    
O9    V2    S    
O12   C28   A    
C31   H17   S    
O10   V1    S    
C5    C19   S    
C6    C20   S    
O16   C28   A    
C16   C18   S    
