data_mof_unit_53658.cif
_audit_creation_date              2012-12-11T15:50:34-0500
_audit_creation_method            fapswitch 2.2
_symmetry_space_group_name_H-M    P1
_symmetry_Int_Tables_number       1
_space_group_crystal_system       triclinic
_cell_length_a                    19.012005
_cell_length_b                    10.999802
_cell_length_c                    18.743544
_cell_angle_alpha                 90.281999
_cell_angle_beta                  91.393448
_cell_angle_gamma                 89.98062
_cell_volume                      3918.59858435

loop_
_atom_site_label
_atom_site_type_symbol
_atom_type_description
_atom_site_fract_x
_atom_site_fract_y
_atom_site_fract_z
_atom_type_partial_charge
C1    C     C_R   0.274237 0.038877 0.855054 0.550458
C2    C     C_R   0.760610 0.572585 0.928477 0.018650
C3    C     C_R   0.229331 0.548870 0.352392 0.554921
C4    C     C_R   0.471295 0.823797 0.647918 0.548642
C5    C     C_R   0.532997 0.823355 0.354854 0.553605
C6    C     C_R   0.971295 0.323797 0.647918 0.548643
C7    C     C_R   0.032997 0.323355 0.354854 0.553602
C8    C     C_R   0.261200 0.642397 0.641419 0.562209
C9    C     C_R   0.739227 0.641831 0.357954 0.557753
C10   C     C_R   0.761200 0.142398 0.641419 0.562211
C11   C     C_R   0.239227 0.141828 0.357953 0.557748
C12   C     C_3   0.484380 0.912947 0.030566 -0.111139
C13   C     C_R   0.741362 0.076814 0.072950 0.017724
C14   C     C_3   0.533911 0.937325 0.967867 -0.125300
C15   C     C_3   0.984380 0.412947 0.030566 -0.111139
C16   C     C_3   0.033911 0.437325 0.967867 -0.125300
C17   C     C_3   0.450238 0.806068 0.988909 -0.103475
C18   C     C_3   0.588898 0.847982 0.000676 -0.137471
C19   C     C_3   0.950238 0.306068 0.988909 -0.103475
C20   C     C_3   0.088898 0.347982 0.000676 -0.137471
C21   C     C_3   0.500305 0.830031 0.927443 0.051759
C22   C     C_3   0.538687 0.823605 0.062020 0.053283
C23   C     C_3   0.000305 0.330031 0.927443 0.051759
C24   C     C_R   0.260610 0.072585 0.928477 0.018650
C25   C     C_3   0.038687 0.323605 0.062020 0.053283
C26   C     C_3   0.030169 0.784003 0.398008 -0.011202
C27   C     C_3   0.024469 0.753838 0.318266 -0.270889
C28   C     C_3   0.948064 0.747362 0.291962 -0.448505
C29   C     C_3   0.953876 0.809447 0.612005 -0.020044
C30   C     C_3   0.963879 0.751207 0.685642 -0.262765
C31   C     C_3   0.037491 0.774702 0.716913 -0.470142
C32   C     C_3   0.530175 0.284006 0.397996 -0.011234
C33   C     C_3   0.524486 0.253778 0.318263 -0.270878
C34   C     C_3   0.448085 0.247406 0.291932 -0.448533
C35   C     C_R   0.305369 0.553836 0.040163 0.007969
C36   C     C_3   0.453881 0.309435 0.612000 -0.020039
C37   C     C_3   0.463884 0.251212 0.685641 -0.262777
C38   C     C_3   0.537498 0.274703 0.716908 -0.470146
C39   C     C_R   0.696752 0.549014 0.961016 -0.007488
C40   C     C_R   0.805369 0.053836 0.040163 0.007970
C41   C     C_R   0.196752 0.049014 0.961016 -0.007488
C42   C     C_R   0.311099 0.564129 0.966634 0.022772
C43   C     C_R   0.690678 0.559316 0.034485 0.024927
C44   C     C_R   0.811099 0.064129 0.966634 0.022772
C45   C     C_R   0.726399 0.040007 0.145496 0.543060
C46   C     C_R   0.190678 0.059316 0.034485 0.024927
C47   C     C_R   0.188606 0.618813 0.956563 -0.179057
C48   C     C_R   0.813627 0.611815 0.045316 -0.173932
C49   C     C_R   0.688606 0.118813 0.956563 -0.179057
C50   C     C_R   0.313627 0.111815 0.045316 -0.173931
C51   C     C_R   0.184065 0.616235 0.030009 -0.173888
C52   C     C_R   0.818515 0.608599 0.971847 -0.165820
C53   C     C_R   0.684065 0.116235 0.030009 -0.173888
C54   C     C_R   0.318515 0.108599 0.971847 -0.165820
C55   C     C_3   0.351762 0.444775 0.043642 -0.272249
C56   C     C_R   0.774237 0.538877 0.855054 0.550459
C57   C     C_3   0.651575 0.438594 0.956872 -0.272422
C58   C     C_3   0.851762 0.944775 0.043642 -0.272249
C59   C     C_3   0.151575 0.938594 0.956872 -0.272422
C60   C     C_3   0.358054 0.455327 0.963390 -0.279830
C61   C     C_3   0.645053 0.448902 0.037064 -0.276199
C62   C     C_3   0.858054 0.955327 0.963390 -0.279830
C63   C     C_3   0.145053 0.948902 0.037064 -0.276199
C64   C     C_R   0.251960 0.591378 0.923477 0.016024
C65   C     C_R   0.749544 0.586954 0.077797 0.020029
C66   C     C_R   0.751960 0.091378 0.923477 0.016024
C67   C     C_R   0.226399 0.540007 0.145496 0.543059
C68   C     C_R   0.249544 0.086954 0.077797 0.020029
C69   C     C_R   0.518834 0.829871 0.430818 0.021629
C70   C     C_R   0.507683 0.835077 0.580406 0.020025
C71   C     C_R   0.018834 0.329870 0.430818 0.021627
C72   C     C_R   0.007683 0.335077 0.580406 0.020025
C73   C     C_R   0.471768 0.822038 0.854533 0.544772
C74   C     C_R   0.560453 0.816867 0.137698 0.565102
C75   C     C_R   0.971768 0.322038 0.854533 0.544772
C76   C     C_R   0.060453 0.316867 0.137698 0.565101
C77   C     C_R   0.538914 0.730836 0.472641 0.047488
C78   C     C_3   0.554365 0.741125 0.958803 -0.125567
C79   C     C_R   0.533842 0.732604 0.545766 0.026506
C80   C     C_R   0.038916 0.230836 0.472642 0.047489
C81   C     C_R   0.033844 0.232604 0.545767 0.026507
C82   C     C_R   0.501527 0.942964 0.540648 -0.170556
C83   C     C_R   0.504143 0.939286 0.465829 -0.180998
C84   C     C_R   0.001524 0.442962 0.540647 -0.170556
C85   C     C_R   0.004140 0.439283 0.465828 -0.181001
C86   C     C_3   0.515336 0.602552 0.466482 -0.270378
C87   C     C_3   0.511227 0.602876 0.546680 -0.274374
C88   C     C_3   0.015339 0.102552 0.466483 -0.270377
C89   C     C_3   0.504642 0.716781 0.020961 -0.102865
C90   C     C_3   0.011230 0.102875 0.546680 -0.274379
C91   C     C_R   0.252003 0.605502 0.418150 -0.004834
C92   C     C_R   0.746768 0.596810 0.580131 -0.009202
C93   C     C_R   0.752003 0.105504 0.418150 -0.004832
C94   C     C_R   0.246769 0.096807 0.580130 -0.009202
C95   C     C_R   0.205399 0.682490 0.453594 0.076105
C96   C     C_R   0.786760 0.686413 0.547851 0.081128
C97   C     C_R   0.705399 0.182491 0.453593 0.076110
C98   C     C_R   0.286762 0.186408 0.547849 0.081127
C99   C     C_R   0.208318 0.689979 0.526382 -0.001418
C100  C     C_3   0.054365 0.241125 0.958803 -0.125567
C101  C     C_R   0.784217 0.699286 0.475077 0.009347
C102  C     C_R   0.708319 0.189982 0.526381 -0.001419
C103  C     C_R   0.284219 0.199281 0.475076 0.009347
C104  C     C_R   0.311204 0.562831 0.530129 -0.148361
C105  C     C_R   0.698095 0.539253 0.464894 -0.162884
C106  C     C_R   0.811206 0.062837 0.530128 -0.148358
C107  C     C_R   0.198098 0.039247 0.464893 -0.162885
C108  C     C_R   0.310007 0.557939 0.455920 -0.167965
C109  C     C_R   0.697448 0.530949 0.538685 -0.161528
C110  C     C_R   0.810008 0.057943 0.455919 -0.167965
C111  C     C_3   0.004642 0.216781 0.020961 -0.102865
C112  C     C_R   0.197450 0.030943 0.538683 -0.161529
C113  C     C_3   0.126224 0.686996 0.452679 0.153785
C114  C     C_3   0.864755 0.704592 0.551024 0.154810
C115  C     C_3   0.626225 0.187000 0.452678 0.153790
C116  C     C_3   0.364758 0.204583 0.551022 0.154810
C117  C     C_3   0.130424 0.696335 0.533049 -0.245638
C118  C     C_3   0.861351 0.722341 0.471470 -0.238579
C119  C     C_3   0.630424 0.196339 0.533048 -0.245634
C120  C     C_3   0.361353 0.222332 0.471468 -0.238579
C121  C     C_R   0.260967 0.636011 0.851414 0.545174
C122  C     C_R   0.241362 0.576814 0.072950 0.017724
C123  C     C_R   0.739418 0.634824 0.149058 0.538607
C124  C     C_R   0.760967 0.136011 0.851414 0.545174
C125  C     C_R   0.239418 0.134824 0.149058 0.538606
C126  C     C_R   0.256655 0.620843 0.565867 0.011736
C127  C     C_R   0.744585 0.618514 0.432805 0.002926
C128  C     C_R   0.756656 0.120846 0.565866 0.011737
C129  C     C_R   0.244587 0.118509 0.432803 0.002926
C130  C     C_R   0.270664 0.046908 0.646990 0.555874
C131  C     C_R   0.729331 0.048870 0.352392 0.554925
C132  C     C_R   0.770664 0.546909 0.646990 0.555874
Cr1   Cr    Cr6+3 0.229640 0.835880 0.747370 0.988858
Cr2   Cr    Cr6+3 0.614230 0.677220 0.250660 1.011911
Cr3   Cr    Cr6+3 0.885770 0.177220 0.749340 1.015808
Cr4   Cr    Cr6+3 0.114230 0.177220 0.250660 1.011905
Cr5   Cr    Cr6+3 0.770360 0.835880 0.252630 0.981801
Cr6   Cr    Cr6+3 0.729640 0.335880 0.747370 0.988857
Cr7   Cr    Cr6+3 0.270360 0.335880 0.252630 0.981809
Cr8   Cr    Cr6+3 0.387390 0.989720 0.750850 0.984160
Cr9   Cr    Cr6+3 0.612610 0.989720 0.249150 0.983802
Cr10  Cr    Cr6+3 0.887390 0.489720 0.750850 0.984157
Cr11  Cr    Cr6+3 0.112610 0.489720 0.249150 0.983817
Cr12  Cr    Cr6+3 0.385770 0.677220 0.749340 1.015809
H1    H     H_    0.392764 0.789900 0.982697 0.122369
H2    H     H_    0.956959 0.091679 0.564514 0.160199
H3    H     H_    0.556821 0.543017 0.446070 0.165106
H4    H     H_    0.456957 0.591680 0.564514 0.160203
H5    H     H_    0.463422 0.593667 0.438548 0.128285
H6    H     H_    0.551042 0.543895 0.573421 0.121486
H7    H     H_    0.963426 0.093665 0.438549 0.128286
H8    H     H_    0.051044 0.043895 0.573422 0.121488
H9    H     H_    0.349419 0.505721 0.428858 0.119070
H10   H     H_    0.665026 0.462560 0.562321 0.141370
H11   H     H_    0.849421 0.005727 0.428857 0.119062
H12   H     H_    0.646429 0.863092 0.007109 0.119137
H13   H     H_    0.165028 0.962554 0.562320 0.141372
H14   H     H_    0.101754 0.601073 0.433512 0.141728
H15   H     H_    0.893221 0.620992 0.566368 0.127033
H16   H     H_    0.601754 0.101078 0.433512 0.141716
H17   H     H_    0.393221 0.120981 0.566366 0.127038
H18   H     H_    0.112065 0.784547 0.554295 0.137418
H19   H     H_    0.874276 0.815479 0.454389 0.143928
H20   H     H_    0.612067 0.284552 0.554294 0.137421
H21   H     H_    0.374279 0.315471 0.454387 0.143936
H22   H     H_    0.109121 0.615509 0.560401 0.098161
H23   H     H_    0.892764 0.289900 0.982697 0.122369
H24   H     H_    0.888256 0.648834 0.441904 0.080980
H25   H     H_    0.609121 0.115514 0.560401 0.098157
H26   H     H_    0.388258 0.148826 0.441901 0.080976
H27   H     H_    0.455911 0.982916 0.061419 0.116545
H28   H     H_    0.543702 0.027456 0.944000 0.104334
H29   H     H_    0.955911 0.482916 0.061419 0.116546
H30   H     H_    0.043702 0.527456 0.944000 0.104334
H31   H     H_    0.581290 0.673119 0.925490 0.124438
H32   H     H_    0.492330 0.626125 0.043127 0.118262
H33   H     H_    0.081290 0.173119 0.925490 0.124438
H34   H     H_    0.146429 0.363092 0.007109 0.119137
H35   H     H_    0.992330 0.126125 0.043127 0.118262
H36   H     H_    0.142683 0.647293 0.925701 0.128083
H37   H     H_    0.859747 0.638847 0.076585 0.127691
H38   H     H_    0.642683 0.147293 0.925701 0.128083
H39   H     H_    0.359747 0.138847 0.076585 0.127692
H40   H     H_    0.823210 0.862008 0.060081 0.171173
H41   H     H_    0.181508 0.857703 0.939851 0.177285
H42   H     H_    0.323210 0.362008 0.060081 0.171173
H43   H     H_    0.681508 0.357703 0.939851 0.177285
H44   H     H_    0.401927 0.462967 0.073439 0.128386
H45   H     H_    0.489737 0.027391 0.566795 0.104219
H46   H     H_    0.601197 0.454451 0.927075 0.124645
H47   H     H_    0.901927 0.962967 0.073439 0.128385
H48   H     H_    0.101197 0.954451 0.927075 0.124645
H49   H     H_    0.412002 0.479622 0.946818 0.140913
H50   H     H_    0.590829 0.471060 0.053735 0.133438
H51   H     H_    0.912001 0.979622 0.946818 0.140914
H52   H     H_    0.090829 0.971060 0.053735 0.133438
H53   H     H_    0.333517 0.378216 0.933335 0.141049
H54   H     H_    0.670526 0.372899 0.066834 0.144451
H55   H     H_    0.833517 0.878216 0.933335 0.141049
H56   H     H_    0.492359 0.019501 0.435210 0.100632
H57   H     H_    0.170526 0.872899 0.066834 0.144452
H58   H     H_    0.352398 0.517287 0.559557 0.184759
H59   H     H_    0.665306 0.480608 0.432432 0.195059
H60   H     H_    0.852401 0.017294 0.559556 0.184759
H61   H     H_    0.165308 0.980601 0.432431 0.195058
H62   H     H_    0.003954 0.872373 0.406656 0.137380
H63   H     H_    0.000729 0.718335 0.430361 0.099878
H64   H     H_    0.052359 0.824699 0.287722 0.166774
H65   H     H_    0.049498 0.664945 0.307813 0.210622
H66   H     H_    0.921467 0.669379 0.317178 0.166128
H67   H     H_    0.989732 0.527390 0.566794 0.104218
H68   H     H_    0.946106 0.733460 0.233222 0.140285
H69   H     H_    0.919870 0.832971 0.304682 0.156404
H70   H     H_    0.970740 0.904971 0.617083 0.150419
H71   H     H_    0.988274 0.765725 0.572011 0.102057
H72   H     H_    0.924384 0.788549 0.722648 0.185954
H73   H     H_    0.956372 0.651806 0.681054 0.196097
H74   H     H_    0.077490 0.734569 0.681769 0.169178
H75   H     H_    0.042739 0.731849 0.770306 0.142227
H76   H     H_    0.047210 0.873869 0.722831 0.140254
H77   H     H_    0.503966 0.372389 0.406616 0.137411
H78   H     H_    0.992353 0.519495 0.435208 0.100636
H79   H     H_    0.500726 0.218368 0.430362 0.099877
H80   H     H_    0.552429 0.324559 0.287706 0.166837
H81   H     H_    0.549467 0.164831 0.307850 0.210610
H82   H     H_    0.421435 0.169494 0.317164 0.166172
H83   H     H_    0.446141 0.233446 0.233197 0.140277
H84   H     H_    0.419934 0.333076 0.304611 0.156346
H85   H     H_    0.470748 0.404957 0.617070 0.150416
H86   H     H_    0.488277 0.265700 0.572009 0.102057
H87   H     H_    0.424393 0.288568 0.722646 0.185950
H88   H     H_    0.456373 0.151813 0.681062 0.196103
H89   H     H_    0.056825 0.043018 0.446070 0.165111
H90   H     H_    0.577491 0.234544 0.681771 0.169183
H91   H     H_    0.542744 0.231877 0.770308 0.142223
H92   H     H_    0.547225 0.373868 0.722810 0.140259
H93   H     H_    0.133245 0.636448 0.052150 0.145181
H94   H     H_    0.869543 0.627122 0.949802 0.142644
H95   H     H_    0.633245 0.136448 0.052150 0.145181
H96   H     H_    0.369543 0.127122 0.949802 0.142644
O1    O     O_R   0.214300 0.709080 0.827500 -0.537418
O2    O     O_R   0.543340 0.717710 0.330180 -0.513921
O3    O     O_R   0.956660 0.217710 0.669820 -0.526856
O4    O     O_R   0.043340 0.217710 0.330180 -0.513925
O5    O     O_R   0.320590 0.625770 0.672930 -0.498107
O6    O     O_R   0.679410 0.625770 0.327070 -0.500349
O7    O     O_R   0.820590 0.125770 0.672930 -0.498106
O8    O     O_R   0.179410 0.125770 0.327070 -0.500350
O9    O     O_3   0.334270 0.834280 0.749190 -0.247375
O10   O     O_3   0.665730 0.834280 0.250810 -0.267106
O11   O     O_3   0.834270 0.334280 0.749190 -0.247375
O12   O     O_R   0.785700 0.709080 0.172500 -0.536764
O13   O     O_3   0.165730 0.334280 0.250810 -0.267108
O14   O     O_R   0.236190 0.958390 0.823150 -0.503624
O15   O     O_R   0.763810 0.958390 0.176850 -0.504318
O16   O     O_R   0.736190 0.458390 0.823150 -0.503624
O17   O     O_R   0.263810 0.458390 0.176850 -0.504318
O18   O     O_R   0.332090 0.075280 0.831290 -0.532637
O19   O     O_R   0.667910 0.075280 0.168710 -0.538919
O20   O     O_R   0.832090 0.575280 0.831290 -0.532639
O21   O     O_R   0.167910 0.575280 0.168710 -0.538921
O22   O     O_R   0.446280 0.918040 0.826620 -0.509690
O23   O     O_R   0.714300 0.209080 0.827500 -0.537419
O24   O     O_R   0.553720 0.918040 0.173380 -0.508108
O25   O     O_R   0.946280 0.418040 0.826620 -0.509690
O26   O     O_R   0.053720 0.418040 0.173380 -0.508107
O27   O     O_R   0.457080 0.716270 0.831760 -0.523463
O28   O     O_R   0.542920 0.716270 0.168240 -0.521191
O29   O     O_R   0.957080 0.216270 0.831760 -0.523464
O30   O     O_R   0.042920 0.216270 0.168240 -0.521193
O31   O     O_R   0.320980 0.624440 0.823040 -0.494982
O32   O     O_R   0.679020 0.624440 0.176960 -0.511474
O33   O     O_R   0.820980 0.124440 0.823040 -0.494982
O34   O     O_R   0.285700 0.209080 0.172500 -0.536761
O35   O     O_R   0.179020 0.124440 0.176960 -0.511475
O36   O     O_R   0.213880 0.710510 0.665560 -0.533180
O37   O     O_R   0.786120 0.710510 0.334440 -0.530397
O38   O     O_R   0.713880 0.210510 0.665560 -0.533181
O39   O     O_R   0.286120 0.210510 0.334440 -0.530397
O40   O     O_R   0.235800 0.959720 0.673040 -0.510131
O41   O     O_R   0.764200 0.959720 0.326960 -0.505127
O42   O     O_R   0.735800 0.459720 0.673040 -0.510130
O43   O     O_R   0.264200 0.459720 0.326960 -0.505120
O44   O     O_R   0.331670 0.076720 0.669350 -0.527199
O45   O     O_R   0.445900 0.919370 0.676500 -0.528000
O46   O     O_R   0.668330 0.076720 0.330650 -0.531302
O47   O     O_R   0.831670 0.576720 0.669350 -0.527205
O48   O     O_R   0.168330 0.576720 0.330650 -0.531298
O49   O     O_3   0.101555 0.794951 0.419934 -0.586458
O50   O     O_3   0.882143 0.810470 0.590353 -0.572481
O51   O     O_3   0.601558 0.294955 0.419933 -0.586464
O52   O     O_3   0.382147 0.310460 0.590351 -0.572480
O53   O     O_R   0.554100 0.919370 0.323500 -0.520739
O54   O     O_R   0.945900 0.419370 0.676500 -0.528001
O55   O     O_R   0.054100 0.419370 0.323500 -0.520709
O56   O     O_R   0.456660 0.717710 0.669820 -0.526854

loop_
_geom_bond_atom_site_label_1
_geom_bond_atom_site_label_2
_ccdc_geom_bond_type
C123  O32   A    
C37   H88   S    
C107  C112  A    
Cr10  O25   S    
C104  C108  A    
C107  C129  A    
C86   H3    S    
C79   C87   S    
Cr8   O18   S    
C14   C21   S    
Cr7   O39   S    
C31   H76   S    
C33   H81   S    
C125  O35   A    
C95   C99   A    
C92   C109  A    
C24   C54   A    
C27   H65   S    
Cr3   O3    S    
C35   C42   A    
C108  H9    S    
C26   H63   S    
Cr7   O34   S    
C48   C65   A    
C97   C115  S    
C85   H78   S    
C93   C110  A    
Cr11  O48   S    
Cr1   O36   S    
C111  H35   S    
C24   C41   A    
C96   C114  S    
C56   O20   A    
C19   H23   S    
C11   C129  S    
C77   C79   A    
C78   C89   S    
C3    O48   A    
C40   C58   S    
C87   H4    S    
C15   H29   S    
C17   C89   S    
C90   H8    S    
C38   H91   S    
C19   C23   S    
C17   C21   S    
Cr1   O14   S    
C15   C19   S    
C37   C38   S    
C116  H17   S    
C117  H22   S    
C16   C20   S    
C9    C127  S    
C109  H10   S    
C72   C84   A    
C2    C52   A    
C45   O15   A    
C81   C90   S    
C8    C126  S    
C8    O5    A    
Cr12  O27   S    
Cr2   O10   S    
C42   C64   A    
C18   H12   S    
C1    O14   A    
C43   C61   S    
C1    O18   A    
C75   O25   A    
Cr10  O11   S    
C70   C79   A    
C35   C122  A    
C57   C61   S    
C19   C111  S    
Cr10  O54   S    
C59   C63   S    
C4    O45   A    
C115  H16   S    
C25   C76   S    
C80   C88   S    
C13   C45   S    
Cr11  O55   S    
C30   C31   S    
Cr12  O56   S    
C49   C53   A    
C22   C89   S    
C70   C82   A    
C107  H61   S    
C33   H80   S    
C48   C52   A    
C100  C111  S    
C63   H52   S    
C89   H32   S    
C113  O49   S    
C29   O50   S    
Cr2   O6    S    
C9    O6    A    
C102  C119  S    
C98   C103  A    
Cr12  O9    S    
C76   O26   A    
C69   C77   A    
Cr5   O10   S    
C84   H67   S    
C121  O1    A    
C88   H89   S    
Cr5   O37   S    
C94   C130  S    
C101  C118  S    
C58   H40   S    
C36   C37   S    
C92   C132  S    
C62   H55   S    
C102  C128  A    
C15   C25   S    
Cr2   O32   S    
C21   C73   S    
Cr3   O29   S    
C110  H11   S    
C52   H94   S    
Cr10  O47   S    
C31   H74   S    
C23   C100  S    
Cr8   O22   S    
Cr12  O5    S    
Cr6   O38   S    
Cr8   O44   S    
C10   C128  S    
C67   O21   A    
C60   H49   S    
C99   C126  A    
C114  O50   S    
C57   H43   S    
C49   C66   A    
C105  C127  A    
Cr3   O7    S    
Cr4   O13   S    
C116  O52   S    
C116  C120  S    
Cr3   O33   S    
C7    O4    A    
C34   H84   S    
C46   C68   A    
C29   C30   S    
C99   C117  S    
C124  O33   A    
C55   H44   S    
C119  H25   S    
C113  C117  S    
C16   C23   S    
C115  C119  S    
C56   O16   A    
C82   H45   S    
C78   H31   S    
Cr8   O45   S    
C88   H7    S    
Cr4   O35   S    
C22   C74   S    
C93   C97   A    
C131  O41   A    
Cr5   O12   S    
C16   H30   S    
C28   H69   S    
C37   H87   S    
C105  C109  A    
C63   H57   S    
C18   C22   S    
C72   C81   A    
Cr3   O11   S    
C119  H20   S    
C117  H18   S    
C47   H36   S    
C46   C63   S    
C123  O12   A    
C2    C56   S    
C94   C112  A    
C101  C127  A    
C59   H41   S    
C25   C111  S    
C91   C95   A    
C32   O51   S    
C40   C44   A    
C1    C24   S    
Cr11  O13   S    
C10   O7    A    
C83   H56   S    
C55   C60   S    
C68   C125  S    
C74   O24   A    
C58   C62   S    
C132  O42   A    
Cr1   O9    S    
C103  C120  S    
C53   H95   S    
C4    C70   S    
C32   H77   S    
C26   H62   S    
C6    C72   S    
C26   C27   S    
C50   C54   A    
C11   O8    A    
C34   H82   S    
C38   H92   S    
C48   H37   S    
C105  H59   S    
C132  O47   A    
C20   C25   S    
C94   C98   A    
C28   H66   S    
C64   C121  S    
C106  C128  A    
Cr4   O8    S    
C3    C91   S    
C27   H64   S    
C55   H42   S    
Cr2   O2    S    
C13   C40   A    
C5    C69   S    
C36   H85   S    
C87   H6    S    
C76   O30   A    
C21   C78   S    
C5    O2    A    
C121  O31   A    
C13   C53   A    
C97   C102  A    
Cr5   O41   S    
C96   C101  A    
Cr9   O10   S    
C9    O37   A    
C59   H48   S    
C62   H51   S    
Cr6   O16   S    
C11   O39   A    
C120  H21   S    
C12   H27   S    
C31   H75   S    
C125  O34   A    
Cr2   O28   S    
C118  H19   S    
C112  H13   S    
C84   C85   A    
C86   C87   S    
C20   H34   S    
C124  O23   A    
C17   H1    S    
C5    O53   A    
Cr9   O53   S    
C20   C100  S    
C43   C65   A    
Cr6   O42   S    
Cr9   O19   S    
C103  C129  A    
C67   O17   A    
C60   H53   S    
C88   C90   S    
C115  O51   S    
C8    O36   A    
C47   C64   A    
C32   H79   S    
C91   C108  A    
C23   C75   S    
C61   H54   S    
C38   H90   S    
C131  O46   A    
C47   C51   A    
C28   H68   S    
Cr11  O26   S    
C32   C33   S    
C120  H26   S    
C29   H70   S    
Cr7   O17   S    
C118  H24   S    
C65   C123  S    
C130  O40   A    
C29   H71   S    
C106  H60   S    
C82   C83   A    
C58   H47   S    
C51   C122  A    
C93   C131  S    
C50   C68   A    
C12   C22   S    
C14   C18   S    
C26   O49   S    
C44   C66   A    
C50   H39   S    
C92   C96   A    
Cr1   O40   S    
Cr7   O13   S    
C7    C71   S    
C15   C16   S    
C39   C57   S    
C130  O44   A    
C73   O27   A    
Cr1   O1    S    
C71   C85   A    
C74   O28   A    
C2    C39   A    
C41   C46   A    
Cr11  O21   S    
C113  H14   S    
C18   C78   S    
C3    O43   A    
C100  H33   S    
C71   C80   A    
C45   O19   A    
Cr4   O4    S    
C35   C55   S    
Cr12  O31   S    
C41   C59   S    
C14   H28   S    
Cr6   O11   S    
C86   H5    S    
C42   C60   S    
C7    O55   A    
C39   C43   A    
C75   O29   A    
C44   C62   S    
C30   H72   S    
C104  H58   S    
C69   C83   A    
C98   C116  S    
C33   C34   S    
C51   H93   S    
Cr10  O20   S    
C10   O38   A    
C114  C118  S    
C30   H73   S    
C12   C14   S    
C77   C86   S    
Cr9   O24   S    
C66   C124  S    
C6    O3    A    
Cr5   O15   S    
C67   C122  S    
Cr9   O46   S    
C73   O22   A    
C106  C110  A    
C36   O52   S    
Cr8   O9    S    
C4    O56   A    
C80   C81   A    
C6    O54   A    
Cr7   O43   S    
C34   H83   S    
C54   H96   S    
C57   H46   S    
C90   H2    S    
C12   C17   S    
C95   C113  S    
C114  H15   S    
C49   H38   S    
C104  C126  A    
Cr6   O23   S    
C36   H86   S    
C27   C28   S    
Cr4   O30   S    
C61   H50   S    
