data_mof_unit_64556.cif
_audit_creation_date              2012-12-10T16:43:22-0500
_audit_creation_method            fapswitch 2.2
_symmetry_space_group_name_H-M    P1
_symmetry_Int_Tables_number       1
_space_group_crystal_system       triclinic
_cell_length_a                    18.468151
_cell_length_b                    18.457794
_cell_length_c                    18.435722
_cell_angle_alpha                 119.925327
_cell_angle_beta                  90.486352
_cell_angle_gamma                 119.481633
_cell_volume                      4464.49198755

loop_
_atom_site_label
_atom_site_type_symbol
_atom_type_description
_atom_site_fract_x
_atom_site_fract_y
_atom_site_fract_z
_atom_type_partial_charge
C1    C     C_R   0.362028 0.999962 0.139015 0.513705
C2    C     C_2   0.792234 0.986771 0.678274 -0.007713
C3    C     C_2   0.715317 0.933329 0.769567 0.256222
C4    C     C_R   0.639230 0.000322 0.862131 0.527995
C5    C     C_2   0.702132 0.007332 0.814679 -0.042674
C6    C     C_2   0.278140 0.444414 0.734787 0.243291
C7    C     C_2   0.193192 0.387244 0.682692 0.278942
C8    C     C_2   0.335043 0.553649 0.771756 0.020322
C9    C     C_2   0.307632 0.613434 0.816876 -0.095344
C10   C     C_2   0.276614 0.058884 0.332971 -0.120103
C11   C     C_2   0.189604 0.014780 0.304370 0.083959
C12   C     C_R   0.121415 0.043361 0.812716 -0.116380
C13   C     C_2   0.330287 0.071120 0.276890 0.001113
C14   C     C_2   0.308911 0.989052 0.195720 0.296360
C15   C     C_2   0.761535 0.925674 0.216940 0.021609
C16   C     C_R   0.639631 0.276902 0.138751 0.507444
C17   C     C_2   0.790166 0.984286 0.306048 -0.096591
C18   C     C_2   0.693115 0.920291 0.171251 0.000100
C19   C     C_2   0.702472 0.006343 0.192230 0.024478
C20   C     C_2   0.793773 0.554421 0.221383 0.249458
C21   C     C_2   0.795641 0.612284 0.305091 0.300393
C22   C     C_2   0.724837 0.443186 0.164185 -0.144958
C23   C     C_R   0.186441 0.027026 0.786110 -0.085471
C24   C     C_2   0.704034 0.386462 0.195387 -0.098217
C25   C     C_R   0.138343 0.276989 0.638014 0.533278
C26   C     C_R   0.860915 0.722861 0.361157 0.544333
C27   C     C_R   0.860091 0.998900 0.637140 0.506720
C28   C     C_R   0.361886 0.723052 0.861728 0.499746
C29   C     C_R   0.137861 0.001843 0.361101 0.503532
C30   C     C_R   0.858386 0.997883 0.360153 0.509737
C31   C     C_R   0.139904 0.001245 0.641444 0.536013
C32   C     C_R   0.639283 0.999568 0.139405 0.519314
C33   C     C_R   0.360207 0.002099 0.862007 0.514130
C34   C     C_R   0.244895 0.035219 0.845269 -0.017304
C35   C     C_R   0.240865 0.069196 0.933106 0.003201
C36   C     C_R   0.172806 0.080675 0.955644 0.073568
C37   C     C_R   0.113720 0.068500 0.895917 0.277104
C38   C     C_3   0.355827 0.446744 0.834508 -0.117148
C39   C     C_3   0.149656 0.411098 0.585294 -0.111316
C40   C     C_3   0.262922 0.830228 0.155428 -0.109507
C41   C     C_3   0.879791 0.543645 0.130771 -0.109123
C42   C     C_3   0.674198 0.592051 0.344967 -0.120714
C43   C     C_3   0.063005 0.168403 0.934661 -0.120003
C44   C     C_3   0.350670 0.052110 0.607771 -0.093608
C45   C     C_R   0.305671 0.011202 0.813980 -0.002620
C46   C     C_3   0.658983 0.761488 0.694039 -0.090224
C47   C     C_R   0.314749 0.992628 0.732487 -0.129439
C48   C     C_R   0.262993 0.993621 0.678264 0.252934
C49   C     C_R   0.196110 0.005958 0.702659 0.045353
C50   C     C_2   0.785012 0.952106 0.728671 -0.166223
Cl1   Cl    Cl    0.436790 0.598016 0.751901 -0.025511
Cl2   Cl    Cl    0.135080 0.983236 0.202976 0.002220
Cl3   Cl    Cl    0.422555 0.196505 0.322232 -0.065577
Cl4   Cl    Cl    0.801483 0.854808 0.149967 -0.002029
Cl5   Cl    Cl    0.324994 0.112644 0.021589 -0.051978
Cl6   Cl    Cl    0.597480 0.796635 0.090457 -0.069666
Cl7   Cl    Cl    0.798994 0.130825 0.269385 -0.082955
Cl8   Cl    Cl    0.162152 0.114609 0.061060 -0.032953
Cl9   Cl    Cl    0.713763 0.003389 0.646429 -0.088175
H1    H     H_    0.361403 0.974745 0.709640 0.130630
H2    H     H_    0.310644 0.453463 0.873089 0.093978
H3    H     H_    0.418251 0.522927 0.863689 0.140819
H4    H     H_    0.373028 0.399787 0.840513 0.146483
H5    H     H_    0.101179 0.328414 0.532363 0.130192
H6    H     H_    0.215206 0.438556 0.575818 0.107939
H7    H     H_    0.125683 0.452568 0.578261 0.159252
H8    H     H_    0.286429 0.808993 0.097642 0.125663
H9    H     H_    0.205336 0.758653 0.142413 0.145023
H10   H     H_    0.314847 0.867164 0.217089 0.101329
H11   H     H_    0.827689 0.479399 0.064593 0.123735
H12   H     H_    0.740250 0.077323 0.818632 0.071132
H13   H     H_    0.901489 0.515247 0.161033 0.109054
H14   H     H_    0.937681 0.592887 0.120212 0.159022
H15   H     H_    0.639956 0.567385 0.278900 0.108872
H16   H     H_    0.705251 0.674808 0.395191 0.123161
H17   H     H_    0.623267 0.550032 0.366195 0.152123
H18   H     H_    0.129209 0.235715 0.985575 0.112624
H19   H     H_    0.012990 0.179706 0.961129 0.150860
H20   H     H_    0.057055 0.164351 0.872480 0.098971
H21   H     H_    0.358012 0.125937 0.650632 0.136707
H22   H     H_    0.351065 0.038156 0.541906 0.146092
H23   H     H_    0.243580 0.580998 0.825313 0.137737
H24   H     H_    0.408022 0.057302 0.635568 0.109539
H25   H     H_    0.721603 0.766676 0.696764 0.133102
H26   H     H_    0.632176 0.750661 0.632451 0.111787
H27   H     H_    0.610134 0.692720 0.691054 0.154156
H28   H     H_    0.309939 0.087740 0.399537 0.127537
H29   H     H_    0.759616 0.022666 0.341436 0.106319
H30   H     H_    0.694270 0.407641 0.094548 0.147048
H31   H     H_    0.737816 0.420229 0.263524 0.168239
H32   H     H_    0.075349 0.037044 0.769761 0.143927
H33   H     H_    0.830797 0.934855 0.739490 0.155913
O1    O     O_3   0.500000 0.000000 0.000000 -0.460675
O2    O     O_R   0.054120 0.939900 0.325040 -0.518286
O3    O     O_R   0.884120 0.060070 0.444330 -0.541362
O4    O     O_R   0.325020 0.939940 0.054210 -0.516897
O5    O     O_R   0.175860 0.060090 0.615830 -0.517988
O6    O     O_R   0.884120 0.939900 0.324160 -0.525898
O7    O     O_R   0.055710 0.939940 0.615850 -0.547703
O8    O     O_R   0.885720 0.939940 0.614980 -0.556454
O9    O     O_R   0.174930 0.060060 0.445830 -0.551093
O10   O     O_R   0.054120 0.229160 0.614300 -0.531001
O11   O     O_R   0.885050 0.770830 0.325070 -0.507876
O12   O     O_R   0.614240 0.229150 0.054160 -0.543598
O13   O     O_R   0.614240 0.060060 0.885070 -0.558481
O14   O     O_R   0.614900 0.229170 0.174980 -0.526577
O15   O     O_R   0.445840 0.770840 0.885740 -0.524808
O16   O     O_R   0.615830 0.060100 0.175880 -0.539232
O17   O     O_R   0.324090 0.939910 0.884220 -0.519306
O18   O     O_R   0.615830 0.939930 0.055710 -0.528479
O19   O     O_R   0.444240 0.060060 0.884190 -0.545882
O20   O     O_3   0.314956 0.397986 0.743661 -0.553406
O21   O     O_3   0.156193 0.431856 0.670683 -0.599316
O22   O     O_3   0.235456 0.892762 0.165347 -0.559968
O23   O     O_R   0.325020 0.770840 0.885120 -0.536493
O24   O     O_3   0.850779 0.602264 0.186933 -0.551982
O25   O     O_3   0.736672 0.568386 0.340173 -0.600365
O26   O     O_3   0.045591 0.077072 0.918121 -0.544956
O27   O     O_3   0.270247 0.970276 0.595841 -0.553425
O28   O     O_3   0.670976 0.847590 0.771226 -0.520516
O29   O     O_R   0.445840 0.060100 0.175010 -0.559230
O30   O     O_R   0.614900 0.939900 0.885710 -0.471720
O31   O     O_3   0.999960 0.000000 0.500040 -0.466023
O32   O     O_R   0.174930 0.229160 0.614920 -0.513767
O33   O     O_R   0.885720 0.770850 0.445880 -0.526935
O34   O     O_R   0.885050 0.060100 0.614330 -0.527419
Zn1   Zn    Zn3+2 0.542440 0.085830 0.956610 0.934786
Zn2   Zn    Zn3+2 0.543390 0.085850 0.129220 0.948137
Zn3   Zn    Zn3+2 0.543390 0.914160 0.957530 0.979814
Zn4   Zn    Zn3+2 0.370780 0.914160 0.956640 0.962704
Zn5   Zn    Zn3+2 0.957510 0.914170 0.543430 0.942043
Zn6   Zn    Zn3+2 0.956570 0.085840 0.542520 0.940709
Zn7   Zn    Zn3+2 0.956570 0.914150 0.370820 0.979119
Zn8   Zn    Zn3+2 0.129180 0.085840 0.543400 0.957793

loop_
_geom_bond_atom_site_label_1
_geom_bond_atom_site_label_2
_ccdc_geom_bond_type
C15   C18   S    
C21   C26   S    
O31   Zn6   S    
C17   H29   S    
C33   C45   S    
C12   H32   S    
C35   C36   A    
O15   Zn3   S    
C44   H24   S    
O8    Zn5   S    
O9    Zn8   S    
C19   Cl7   S    
C43   H19   S    
C39   H5    S    
O6    Zn7   S    
C42   H16   S    
C32   O18   A    
O31   Zn7   S    
C36   C37   A    
O10   Zn6   S    
C18   C19   D    
C36   Cl8   S    
C29   O2    A    
C27   O34   A    
C25   O10   A    
C23   C49   A    
C28   O15   A    
C43   H20   S    
O14   Zn2   S    
O2    Zn7   S    
O18   Zn3   S    
C34   C35   A    
C12   C37   A    
C21   O25   S    
C11   Cl2   S    
C2    C50   D    
C47   H1    S    
C16   O12   A    
C40   O22   S    
C37   O26   S    
C8    C9    D    
C39   O21   S    
C40   H8    S    
C2    C27   S    
C33   O19   A    
C31   O7    A    
O30   Zn3   S    
C16   O14   A    
C9    H23   S    
C38   H2    S    
C16   C24   S    
C13   C14   D    
C17   C30   S    
C39   H6    S    
O5    Zn8   S    
C31   C49   S    
O1    Zn3   S    
C19   C32   S    
C3    C50   S    
C48   O27   S    
C13   Cl3   S    
C45   C47   A    
C27   O8    A    
C10   H28   S    
C42   H15   S    
C40   H10   S    
O13   Zn1   S    
O31   Zn8   S    
C46   O28   S    
C15   Cl4   S    
C44   H21   S    
O29   Zn2   S    
C44   H22   S    
C3    O28   S    
C20   O24   S    
C2    Cl9   S    
C6    C8    S    
C44   O27   S    
C14   O22   S    
C35   Cl5   S    
C26   O33   A    
O1    Zn1   S    
C30   O3    A    
C29   O9    A    
C28   O23   A    
C26   O11   A    
O33   Zn5   S    
C47   C48   A    
C12   C23   A    
O34   Zn6   S    
C23   C34   A    
C4    O30   A    
C34   C45   A    
O16   Zn2   S    
C8    Cl1   S    
C41   H13   S    
C46   H25   S    
C50   H33   S    
C48   C49   A    
C20   C22   S    
O19   Zn1   S    
O3    Zn6   S    
C39   H7    S    
C22   C24   D    
C33   O17   A    
C41   O24   S    
C38   O20   S    
O1    Zn4   S    
O4    Zn4   S    
C38   H4    S    
C15   C17   D    
O31   Zn5   S    
C6    O20   S    
C32   O16   A    
C4    C5    S    
C3    C5    D    
C10   C13   S    
C24   H31   S    
C42   O25   S    
C6    C7    D    
C18   Cl6   S    
C43   H18   S    
C4    O13   A    
C30   O6    A    
C42   H17   S    
C7    C25   S    
O7    Zn5   S    
C46   H26   S    
O11   Zn7   S    
O1    Zn2   S    
C5    H12   S    
C7    O21   S    
O12   Zn1   S    
C1    O4    A    
C22   H30   S    
C31   O5    A    
C25   O32   A    
C1    O29   A    
C10   C11   D    
C43   O26   S    
C41   H14   S    
O32   Zn8   S    
C20   C21   D    
C11   C29   S    
C40   H9    S    
O17   Zn4   S    
C1    C14   S    
C46   H27   S    
C9    C28   S    
C41   H11   S    
C38   H3    S    
O23   Zn4   S    
