data_mof_unit_37255.cif
_audit_creation_date              2012-12-10T17:24:42-0500
_audit_creation_method            fapswitch 2.2
_symmetry_space_group_name_H-M    P1
_symmetry_Int_Tables_number       1
_space_group_crystal_system       triclinic
_cell_length_a                    23.516414
_cell_length_b                    10.866632
_cell_length_c                    9.588406
_cell_angle_alpha                 92.12741
_cell_angle_beta                  89.877726
_cell_angle_gamma                 93.161094
_cell_volume                      2444.84719539

loop_
_atom_site_label
_atom_site_type_symbol
_atom_type_description
_atom_site_fract_x
_atom_site_fract_y
_atom_site_fract_z
_atom_type_partial_charge
C1    C     C_R   0.503963 0.263354 0.497819 0.801512
C2    C     C_R   0.965296 0.269006 0.509929 0.141285
C3    C     C_R   0.025041 0.272979 0.509582 -0.152191
C4    C     C_R   0.057343 0.384740 0.503756 -0.061334
C5    C     C_R   0.029711 0.495766 0.497594 -0.020243
C6    C     C_R   0.062300 0.608530 0.491584 -0.006369
C7    C     C_R   0.034734 0.719346 0.485139 -0.164326
C8    C     C_R   0.975558 0.718650 0.484882 -0.165565
C9    C     C_R   0.117139 0.388161 0.504340 0.541991
C10   C     C_R   0.121925 0.607525 0.492687 0.532358
C11   C     C_R   0.238679 0.497424 0.375914 -0.148304
C12   C     C_R   0.390965 0.499660 0.500190 0.820256
C13   C     C_R   0.297897 0.497518 0.374919 -0.218714
C14   C     C_R   0.328293 0.499771 0.500903 -0.078657
C15   C     C_R   0.298359 0.502215 0.627928 -0.217134
C16   C     C_R   0.238818 0.502405 0.629988 0.212917
C17   C     C_R   0.208879 0.499682 0.502392 0.370787
C18   C     C_R   0.760890 0.492167 0.624915 -0.107448
C19   C     C_R   0.701625 0.493179 0.625496 -0.227103
C20   C     C_R   0.671625 0.500547 0.499615 -0.035319
C21   C     C_R   0.702037 0.507607 0.373452 -0.224104
C22   C     C_R   0.761305 0.507081 0.373310 -0.108767
C23   C     C_R   0.498846 0.738282 0.503585 0.784635
C24   C     C_R   0.790805 0.499025 0.498897 0.373109
C25   C     C_R   0.562378 0.141520 0.718096 -0.200732
C26   C     C_R   0.565651 0.097845 0.851345 -0.137410
C27   C     C_R   0.540674 0.982139 0.880828 0.200325
C28   C     C_R   0.518248 0.905454 0.770109 -0.244502
C29   C     C_R   0.516475 0.947699 0.631717 0.073584
C30   C     C_R   0.530821 0.073674 0.613467 0.095942
C31   C     C_R   0.510224 0.130468 0.495065 -0.103049
C32   C     C_R   0.487052 0.058705 0.383516 -0.206061
C33   C     C_R   0.483381 0.931554 0.389590 -0.205207
C34   C     C_R   0.609014 0.500420 0.499873 0.769506
C35   C     C_R   0.498203 0.873722 0.511715 -0.101092
C36   C     C_R   0.582747 0.648992 0.148806 -0.161796
C37   C     C_R   0.626754 0.710500 0.078378 -0.218472
C38   C     C_R   0.625560 0.713396 0.934695 -0.184977
C39   C     C_R   0.581325 0.651312 0.861151 -0.171769
C40   C     C_R   0.540232 0.573885 0.927812 0.183575
C41   C     C_R   0.540521 0.573345 0.077318 0.206620
C42   C     C_R   0.461765 0.429087 0.071156 -0.074140
C43   C     C_R   0.461834 0.428984 0.923162 -0.058291
C44   C     C_R   0.883156 0.605965 0.491542 0.528586
C45   C     C_R   0.876442 0.386403 0.504553 0.535559
C46   C     C_R   0.936615 0.381278 0.504157 -0.031485
C47   C     C_R   0.969565 0.494437 0.497607 -0.051917
C48   C     C_R   0.942626 0.607126 0.491200 -0.001191
Cu1   Cu    Cu3+1 0.500000 0.499990 0.640660 0.924769
Cu2   Cu    Cu3+1 0.500000 0.500010 0.359340 0.930808
H1    H     H_    0.679382 0.487616 0.724275 0.164481
H2    H     H_    0.680142 0.513409 0.274897 0.164968
H3    H     H_    0.784363 0.512345 0.275652 0.135104
H4    H     H_    0.471067 0.101062 0.292029 0.159931
H5    H     H_    0.582238 0.231716 0.699788 0.165684
H6    H     H_    0.585178 0.157893 0.932289 0.150916
H7    H     H_    0.497405 0.819209 0.797752 0.171209
H8    H     H_    0.467309 0.878197 0.298987 0.168327
H9    H     H_    0.430491 0.370890 0.124169 0.135148
H10   H     H_    0.046566 0.187559 0.514156 0.188474
H11   H     H_    0.583025 0.667263 0.258430 0.199908
H12   H     H_    0.659826 0.763416 0.136286 0.161101
H13   H     H_    0.657494 0.768996 0.880322 0.162110
H14   H     H_    0.580200 0.669960 0.753141 0.203425
H15   H     H_    0.430600 0.370685 0.865584 0.142256
H16   H     H_    0.058765 0.807052 0.480441 0.189249
H17   H     H_    0.955708 0.806011 0.479941 0.183174
H18   H     H_    0.215712 0.495323 0.277998 0.144567
H19   H     H_    0.319802 0.495582 0.275459 0.162726
H20   H     H_    0.321209 0.504169 0.726113 0.161810
H21   H     H_    0.783638 0.486009 0.722256 0.134905
N1    N     N_R   0.851664 0.497110 0.498355 -0.470968
N2    N     N_R   0.147919 0.498441 0.499580 -0.470065
N3    N     N_R   0.500540 0.501210 0.147910 -0.196303
N4    N     N_R   0.500560 0.501290 0.852040 -0.200283
O1    O     O_R   0.500000 0.319640 0.618810 -0.578109
O2    O     O_2   0.842474 0.282757 0.510627 -0.541735
O3    O     O_2   0.144402 0.282387 0.510152 -0.529068
O4    O     O_2   0.153735 0.714488 0.487584 -0.527513
O5    O     O_R   0.500000 0.319660 0.381240 -0.578935
O6    O     O_R   0.417880 0.499950 0.618810 -0.581788
O7    O     O_R   0.417880 0.499980 0.381240 -0.579862
O8    O     O_R   0.500000 0.680340 0.618760 -0.609154
O9    O     O_R   0.500000 0.680360 0.381190 -0.596801
O10   O     O_R   0.582120 0.500020 0.618760 -0.605043
O11   O     O_R   0.582120 0.500050 0.381190 -0.597091
O12   O     O_2   0.856782 0.712897 0.485677 -0.539264
C49   C     C_3   0.934596 0.143428 0.516471 -0.721852
H22   H     H_    0.908220 0.138497 0.612456 0.259724
H23   H     H_    0.907757 0.124839 0.422130 0.260635
H24   H     H_    0.964563 0.068042 0.519942 0.193123
C50   C     C_3   0.532625 0.945234 0.030338 -0.401819
C51   C     C_3   0.583744 0.983605 0.124167 -0.805340
H25   H     H_    0.624444 0.967889 0.069205 0.254582
H26   H     H_    0.582879 0.082658 0.156571 0.243746
H27   H     H_    0.582008 0.929359 0.220007 0.251844
H28   H     H_    0.494439 0.989250 0.072669 0.190766
H29   H     H_    0.523829 0.844117 0.034541 0.210248
C52   C     C_3   0.209007 0.505783 0.769113 -0.826306
H30   H     H_    0.224248 0.589698 0.830644 0.231621
H31   H     H_    0.218851 0.423124 0.827345 0.233134
H32   H     H_    0.162095 0.507351 0.759246 0.237948

loop_
_geom_bond_atom_site_label_1
_geom_bond_atom_site_label_2
_ccdc_geom_bond_type
C44   C48   A    
C33   H8    S    
C19   C20   A    
C1    C31   S    
C37   H12   S    
Cu2   O9    S    
C7    C8    A    
C45   C46   A    
C2    C46   A    
C39   H14   S    
C5    C47   A    
Cu2   O7    S    
C26   C27   A    
C51   H25   S    
C23   O8    A    
C18   C24   A    
C28   C29   A    
C37   C38   A    
Cu2   N3    S    
C5    C6    A    
C10   N2    A    
C15   C16   A    
C18   H21   S    
C18   C19   A    
C34   O11   A    
Cu1   O6    S    
C41   N3    A    
C11   C17   A    
C47   C48   A    
C16   C17   A    
Cu1   N4    S    
C2    C49   S    
C44   O12   S    
C20   C34   S    
C3    H10   S    
C51   H26   S    
C21   C22   A    
C45   N1    A    
C17   N2    S    
C36   C41   A    
C9    N2    A    
C32   H4    S    
C50   H28   S    
C22   H3    S    
C43   N4    A    
C38   C39   A    
C42   N3    A    
C23   O9    A    
C50   H29   S    
Cu1   O10   S    
C39   C40   A    
C25   C26   A    
C28   H7    S    
C26   H6    S    
C34   O10   A    
C8    C48   A    
C29   C30   A    
C31   C32   A    
C49   H24   S    
C43   H15   S    
Cu1   O1    S    
C12   O7    A    
C27   C50   S    
C20   C21   A    
C40   C41   A    
C52   H31   S    
C12   C14   S    
C51   H27   S    
C23   C35   S    
C22   C24   A    
C42   C43   A    
C3    C4    A    
C11   H18   S    
C24   N1    S    
C38   H13   S    
C25   C30   A    
C15   H20   S    
C46   C47   A    
C36   C37   A    
C1    O1    A    
C25   H5    S    
C49   H23   S    
C4    C5    A    
Cu2   O5    S    
C42   H9    S    
C6    C10   A    
C10   O4    S    
C16   C52   S    
C6    C7    A    
C29   C35   A    
C40   N4    A    
C32   C33   A    
Cu1   O8    S    
C2    C3    A    
C52   H30   S    
C7    H16   S    
C11   C13   A    
C30   C31   A    
C13   H19   S    
C50   C51   S    
C33   C35   A    
C12   O6    A    
C44   N1    A    
C9    O3    S    
Cu2   O11   S    
C19   H1    S    
C52   H32   S    
C49   H22   S    
C8    H17   S    
Cu1   Cu2   S    
C27   C28   A    
C1    O5    A    
C14   C15   A    
C45   O2    S    
C4    C9    A    
C13   C14   A    
C21   H2    S    
C36   H11   S    
