data_mof_unit_13030.cif
_audit_creation_date              2012-12-10T18:52:17-0500
_audit_creation_method            fapswitch 2.2
_symmetry_space_group_name_H-M    P1
_symmetry_Int_Tables_number       1
_space_group_crystal_system       triclinic
_cell_length_a                    15.710108
_cell_length_b                    10.632554
_cell_length_c                    9.920518
_cell_angle_alpha                 90.423522
_cell_angle_beta                  90.891149
_cell_angle_gamma                 91.254294
_cell_volume                      1656.46215576

loop_
_atom_site_label
_atom_site_type_symbol
_atom_type_description
_atom_site_fract_x
_atom_site_fract_y
_atom_site_fract_z
_atom_type_partial_charge
C1    C     C_R   0.499027 0.260374 0.499378 0.941235
C2    C     C_R   0.440435 0.430277 0.068232 0.233866
C3    C     C_R   0.338016 0.499980 0.499077 0.905180
C4    C     C_R   0.661942 0.500373 0.500917 0.893658
C5    C     C_3   0.970388 0.381643 0.494894 -0.326676
C6    C     C_3   0.029352 0.623639 0.504510 -0.326484
C7    C     C_3   0.025421 0.445308 0.384932 -0.323444
C8    C     C_3   0.974275 0.559898 0.614595 -0.303821
C9    C     C_1   0.249036 0.501437 0.497296 -0.138637
C10   C     C_1   0.750865 0.500731 0.502675 -0.140335
C11   C     C_3   0.028494 0.441364 0.605404 0.596240
C12   C     C_R   0.500928 0.739587 0.500508 0.925196
C13   C     C_3   0.971094 0.563872 0.394179 0.575341
C14   C     C_3   0.082787 0.503767 0.497478 0.071684
C15   C     C_3   0.917036 0.501340 0.502209 0.075339
C16   C     C_1   0.173700 0.502797 0.496965 0.011920
C17   C     C_1   0.826178 0.501012 0.502922 0.011754
C18   C     C_R   0.441348 0.060903 0.414368 0.450355
C19   C     C_R   0.559573 0.939000 0.583701 0.456143
C20   C     C_3   0.995696 0.675424 0.199793 0.063384
C21   C     C_3   0.952418 0.740168 0.080853 -0.301699
C22   C     C_3   0.017522 0.791849 0.981722 -0.986225
C23   C     C_R   0.443327 0.931032 0.416145 -0.416975
C24   C     C_3   0.000955 0.325672 0.798591 0.084512
C25   C     C_3   0.999163 0.398454 0.932072 -0.358752
C26   C     C_3   0.929738 0.346653 0.023668 -0.937384
C27   C     C_3   0.605583 0.768879 0.137961 0.130752
C28   C     C_3   0.666051 0.840149 0.235254 -0.303996
C29   C     C_3   0.654990 0.982112 0.225520 -0.971299
C30   C     C_3   0.388917 0.219660 0.885007 0.170830
C31   C     C_3   0.478034 0.165721 0.913174 -0.432140
C32   C     C_3   0.474195 0.022427 0.921623 -0.919980
C33   C     C_R   0.558080 0.068847 0.581033 -0.398766
C34   C     C_R   0.501339 0.872058 0.501034 -0.098025
C35   C     C_R   0.499034 0.127863 0.498087 -0.095658
C36   C     C_R   0.558459 0.571245 0.075287 0.441887
C37   C     C_R   0.443267 0.425527 0.924212 0.479214
C38   C     C_R   0.559425 0.569814 0.931711 0.243096
H1    H     H_    0.048846 0.400255 0.291699 0.164188
H2    H     H_    0.913681 0.818799 0.118851 0.227326
H3    H     H_    0.060055 0.863138 0.032234 0.269471
H4    H     H_    0.983920 0.837125 0.896226 0.269000
H5    H     H_    0.056527 0.714719 0.941267 0.268822
H6    H     H_    0.017268 0.226582 0.820011 0.165492
H7    H     H_    0.935895 0.322785 0.751595 0.121022
H8    H     H_    0.061978 0.392302 0.984468 0.235524
H9    H     H_    0.986964 0.498907 0.911857 0.221594
H10   H     H_    0.866327 0.352565 0.973254 0.273967
H11   H     H_    0.928737 0.402770 0.118308 0.287858
H12   H     H_    0.950798 0.605391 0.707496 0.163216
H13   H     H_    0.942109 0.247116 0.049286 0.260720
H14   H     H_    0.348564 0.061777 0.281754 0.332214
H15   H     H_    0.653266 0.938129 0.714664 0.334724
H16   H     H_    0.538659 0.791242 0.163197 0.131299
H17   H     H_    0.618657 0.802852 0.034632 0.180263
H18   H     H_    0.653859 0.809694 0.340143 0.237252
H19   H     H_    0.732930 0.817693 0.211171 0.236897
H20   H     H_    0.672469 0.015484 0.123576 0.263472
H21   H     H_    0.696935 0.030791 0.301424 0.273201
H22   H     H_    0.588055 0.006879 0.245122 0.280805
H23   H     H_    0.944348 0.283719 0.493186 0.155925
H24   H     H_    0.359809 0.165881 0.798922 0.158482
H25   H     H_    0.346106 0.201600 0.970881 0.191051
H26   H     H_    0.522237 0.193981 0.832472 0.243865
H27   H     H_    0.504441 0.202703 0.010442 0.220394
H28   H     H_    0.433324 0.992303 0.006419 0.259359
H29   H     H_    0.539281 0.986823 0.939219 0.265515
H30   H     H_    0.448432 0.980762 0.826025 0.275740
H31   H     H_    0.605757 0.653694 0.778128 0.415677
H32   H     H_    0.394113 0.346737 0.221817 0.417781
H33   H     H_    0.055482 0.721495 0.506588 0.155795
H34   H     H_    0.399181 0.875828 0.353364 0.158573
H35   H     H_    0.603358 0.123989 0.641763 0.151754
H36   H     H_    0.035486 0.598484 0.160105 0.142078
H37   H     H_    0.037140 0.745828 0.254483 0.140840
H38   H     H_    0.909032 0.671783 0.027400 0.239812
N1    N     N_R   0.499980 0.499970 0.857200 -0.220215
N2    N     N_R   0.500020 0.500030 0.142800 -0.219771
O1    O     O_R   0.499990 0.316750 0.614620 -0.615722
O2    O     O_3   0.065084 0.377208 0.715353 -0.633735
O3    O     O_3   0.383333 0.123867 0.335052 -0.777443
O4    O     O_3   0.617959 0.876009 0.662288 -0.783757
O5    O     O_3   0.620125 0.638414 0.148512 -0.567377
O6    O     O_3   0.388354 0.348745 0.847435 -0.580970
O7    O     O_3   0.624134 0.635782 0.870674 -0.734494
O8    O     O_3   0.375369 0.365706 0.129701 -0.743766
O9    O     O_R   0.500010 0.683250 0.385380 -0.629326
O10   O     O_R   0.500000 0.316780 0.385290 -0.617136
O11   O     O_R   0.500000 0.683220 0.614710 -0.615548
O12   O     O_R   0.376780 0.499970 0.614640 -0.564500
O13   O     O_R   0.623220 0.500030 0.385360 -0.563428
O14   O     O_R   0.376780 0.500000 0.385310 -0.621438
O15   O     O_R   0.623220 0.500000 0.614690 -0.623403
O16   O     O_3   0.932422 0.626996 0.285513 -0.639063
Zn1   Zn    Zn3+2 0.500000 0.499980 0.653120 0.991941
Zn2   Zn    Zn3+2 0.500000 0.500020 0.346880 0.986895

loop_
_geom_bond_atom_site_label_1
_geom_bond_atom_site_label_2
_ccdc_geom_bond_type
O10   Zn2   S    
C28   H18   S    
C27   H16   S    
O12   Zn1   S    
C28   H19   S    
C21   H38   S    
C3    O12   A    
C3    C9    S    
C24   H7    S    
C28   C29   S    
C9    C16   T    
C5    C11   S    
C30   C31   S    
C11   C14   S    
C27   H17   S    
C22   H3    S    
C10   C17   T    
O14   Zn2   S    
C18   O3    S    
C31   H27   S    
O13   Zn2   S    
C24   O2    S    
C7    C14   S    
C31   C32   S    
N2    Zn2   S    
C37   O6    S    
C19   O4    S    
C18   C35   A    
C25   H9    S    
C26   H10   S    
C32   H30   S    
C4    O13   A    
C1    O10   A    
O15   Zn1   S    
C21   C22   S    
C31   H26   S    
C6    H33   S    
C38   O7    S    
C5    H23   S    
C18   C23   A    
C29   H21   S    
C12   O11   A    
C24   C25   S    
C19   C33   A    
C26   H11   S    
C5    C7    S    
C6    C8    S    
C25   C26   S    
C37   N1    A    
N1    Zn1   S    
C20   H37   S    
H15   O4    S    
O11   Zn1   S    
O1    Zn1   S    
C2    N2    A    
C6    C14   S    
C22   H5    S    
C29   H22   S    
C23   C34   A    
O9    Zn2   S    
C20   H36   S    
C29   H20   S    
C32   H29   S    
C33   H35   S    
C8    C15   S    
C30   H24   S    
C1    O1    A    
C14   C16   S    
C12   C34   S    
C36   C38   A    
H32   O8    S    
C8    H12   S    
H31   O7    S    
C1    C35   S    
C32   H28   S    
C15   C17   S    
C20   O16   S    
C12   O9    A    
C23   H34   S    
C19   C34   A    
C38   N1    A    
C13   O16   S    
C13   C15   S    
C36   N2    A    
C26   H13   S    
C6    C13   S    
C2    C37   A    
C22   H4    S    
C21   H2    S    
C8    C11   S    
C24   H6    S    
C27   O5    S    
C33   C35   A    
C2    O8    S    
C30   O6    S    
H14   O3    S    
C5    C15   S    
C11   O2    S    
C4    O15   A    
C7    C13   S    
C20   C21   S    
C27   C28   S    
C7    H1    S    
C3    O14   A    
C36   O5    S    
C30   H25   S    
C4    C10   S    
C25   H8    S    
