data_mof_unit_64448.cif
_audit_creation_date              2012-12-10T18:42:49-0500
_audit_creation_method            fapswitch 2.2
_symmetry_space_group_name_H-M    P1
_symmetry_Int_Tables_number       1
_space_group_crystal_system       triclinic
_cell_length_a                    45.029632
_cell_length_b                    31.848543
_cell_length_c                    31.832682
_cell_angle_alpha                 90.000075
_cell_angle_beta                  135.014004
_cell_angle_gamma                 89.999845
_cell_volume                      32273.0510833

loop_
_atom_site_label
_atom_site_type_symbol
_atom_type_description
_atom_site_fract_x
_atom_site_fract_y
_atom_site_fract_z
_atom_type_partial_charge
C1    C     C_R   0.581410 0.000000 0.581411 0.908893
C2    C     C_3   0.999608 0.208824 0.499396 0.062049
C3    C     C_R   0.581397 0.500000 0.081471 0.910703
C4    C     C_3   0.019841 0.034476 0.783868 -0.163646
C5    C     C_3   0.019826 0.965515 0.783852 -0.163660
C6    C     C_3   0.519827 0.534484 0.783854 -0.163648
C7    C     C_3   0.519840 0.465523 0.783866 -0.163659
C8    C     C_3   0.479998 0.534477 0.716099 -0.163313
C9    C     C_3   0.480010 0.465516 0.716111 -0.163324
C10   C     C_3   0.980012 0.034485 0.716113 -0.163312
C11   C     C_3   0.979996 0.965524 0.716097 -0.163325
C12   C     C_1   0.499951 0.500000 0.625949 -0.184046
C13   C     C_3   0.464843 0.235894 0.445251 -0.184206
C14   C     C_1   0.999951 1.000000 0.625949 -0.184046
C15   C     C_1   0.999918 1.000000 0.874050 -0.186947
C16   C     C_1   0.499918 0.500000 0.874050 -0.186947
C17   C     C_3   0.539755 0.500007 0.775897 -0.162236
C18   C     C_3   0.039755 0.999991 0.775897 -0.162236
C19   C     C_3   0.499926 0.500000 0.708941 0.205725
C20   C     C_3   0.999926 1.000000 0.708941 0.205725
C21   C     C_3   0.999911 1.000000 0.791025 0.205585
C22   C     C_3   0.499911 0.500000 0.791025 0.205585
C23   C     C_3   0.534223 0.236124 0.512803 -0.326229
C24   C     C_3   0.464925 0.764106 0.445186 -0.184211
C25   C     C_3   0.534312 0.763875 0.513032 -0.326228
C26   C     C_3   0.034223 0.736124 0.512803 -0.326230
C27   C     C_3   0.034312 0.263875 0.513032 -0.326229
C28   C     C_3   0.960082 0.000009 0.724068 -0.162982
C29   C     C_3   0.460082 0.499993 0.724068 -0.162983
C30   C     C_1   0.499939 0.500000 0.663479 -0.077580
C31   C     C_1   0.999939 1.000000 0.663479 -0.077580
C32   C     C_1   0.999910 1.000000 0.836499 -0.078932
C33   C     C_1   0.499910 0.500000 0.836499 -0.078932
C34   C     C_3   0.019995 0.965519 0.256112 -0.163616
C35   C     C_3   0.964843 0.735894 0.445251 -0.184206
C36   C     C_3   0.019995 0.034481 0.256111 -0.163622
C37   C     C_3   0.519995 0.465519 0.256112 -0.163615
C38   C     C_3   0.519994 0.534481 0.256111 -0.163622
C39   C     C_3   0.480158 0.465519 0.244149 -0.163063
C40   C     C_3   0.480157 0.534481 0.244149 -0.163066
C41   C     C_3   0.980158 0.965519 0.244149 -0.163063
C42   C     C_3   0.980157 0.034481 0.244149 -0.163066
C43   C     C_1   0.500043 0.500000 0.374160 -0.185271
C44   C     C_1   0.000043 0.000000 0.374160 -0.185271
C45   C     C_1   0.000066 0.000000 0.126057 -0.186837
C46   C     C_3   0.964925 0.264106 0.445186 -0.184211
C47   C     C_1   0.500066 0.500000 0.126057 -0.186837
C48   C     C_3   0.539909 0.500000 0.303937 -0.163141
C49   C     C_3   0.039909 0.000000 0.303937 -0.163140
C50   C     C_3   0.500072 0.500000 0.291174 0.205594
C51   C     C_3   0.000072 0.000000 0.291174 0.205594
C52   C     C_3   0.000080 0.000000 0.209086 0.205617
C53   C     C_3   0.500080 0.500000 0.209086 0.205617
C54   C     C_1   0.500023 0.125866 0.499977 -0.181039
C55   C     C_1   0.500023 0.874134 0.499977 -0.181038
C56   C     C_1   0.000023 0.625866 0.499977 -0.181039
C57   C     C_3   0.498897 0.264072 0.458633 -0.183730
C58   C     C_1   0.000023 0.374134 0.499977 -0.181038
C59   C     C_3   0.960243 0.000000 0.196324 -0.162698
C60   C     C_3   0.460243 0.500000 0.196324 -0.162698
C61   C     C_1   0.500059 0.500000 0.336635 -0.078097
C62   C     C_1   0.000059 0.000000 0.336635 -0.078097
C63   C     C_1   0.000077 0.000000 0.163609 -0.078688
C64   C     C_1   0.500077 0.500000 0.163609 -0.078688
C65   C     C_1   0.499949 0.374119 0.499924 -0.181031
C66   C     C_1   0.499949 0.625881 0.499923 -0.181032
C67   C     C_1   0.999950 0.874119 0.499924 -0.181030
C68   C     C_3   0.499063 0.735928 0.458794 -0.183727
C69   C     C_1   0.999949 0.125881 0.499923 -0.181032
C70   C     C_3   0.500565 0.236408 0.539555 0.503924
C71   C     C_3   0.500404 0.763592 0.539396 0.503925
C72   C     C_3   0.000565 0.736408 0.539555 0.503924
C73   C     C_3   0.000404 0.263592 0.539396 0.503926
C74   C     C_3   0.500062 0.208810 0.499608 0.061899
C75   C     C_3   0.500064 0.791190 0.499610 0.061897
C76   C     C_3   0.000062 0.708810 0.499608 0.061898
C77   C     C_3   0.000064 0.291190 0.499610 0.061897
C78   C     C_3   0.598985 0.249485 0.646641 -0.313300
C79   C     C_3   0.998897 0.764072 0.458633 -0.183730
C80   C     C_3   0.598787 0.750513 0.646850 -0.313278
C81   C     C_3   0.098985 0.749485 0.646641 -0.313302
C82   C     C_3   0.098787 0.250513 0.646850 -0.313279
C83   C     C_3   0.496652 0.250567 0.606403 -0.313918
C84   C     C_3   0.496195 0.749433 0.605930 -0.313917
C85   C     C_3   0.996652 0.750567 0.606403 -0.313918
C86   C     C_3   0.996195 0.249433 0.605930 -0.313918
C87   C     C_3   0.999063 0.235928 0.458794 -0.183727
C88   C     C_1   0.500038 0.163373 0.499838 0.009607
C89   C     C_R   0.081410 0.500000 0.581411 0.908893
C90   C     C_1   0.500040 0.836627 0.499839 0.009606
C91   C     C_1   0.000038 0.663373 0.499838 0.009608
C92   C     C_1   0.000040 0.336627 0.499839 0.009606
C93   C     C_1   0.499823 0.336613 0.499710 0.009632
C94   C     C_1   0.499823 0.663387 0.499708 0.009632
C95   C     C_1   0.999823 0.836613 0.499710 0.009632
C96   C     C_1   0.999823 0.163387 0.499708 0.009632
C97   C     C_3   0.763950 0.965506 0.783855 -0.164082
C98   C     C_3   0.763950 0.034468 0.783901 -0.164074
C99   C     C_3   0.263950 0.465506 0.783855 -0.164080
C100  C     C_3   0.465243 0.263862 0.485663 -0.326901
C101  C     C_3   0.263950 0.534468 0.783902 -0.164075
C102  C     C_3   0.736041 0.965533 0.716105 -0.163387
C103  C     C_3   0.736041 0.034494 0.716151 -0.163383
C104  C     C_3   0.236041 0.465533 0.716105 -0.163387
C105  C     C_3   0.236041 0.534495 0.716151 -0.163382
C106  C     C_1   0.625932 0.000000 0.625925 -0.186131
C107  C     C_1   0.125932 0.500000 0.625925 -0.186131
C108  C     C_1   0.874061 0.000000 0.874098 -0.187099
C109  C     C_1   0.374061 0.500000 0.874098 -0.187099
C110  C     C_R   0.500002 0.081390 0.500006 0.903644
C111  C     C_3   0.465158 0.736139 0.485434 -0.326912
C112  C     C_R   0.500003 0.918610 0.500006 0.903647
C113  C     C_R   0.000003 0.581390 0.500006 0.903644
C114  C     C_R   0.000003 0.418610 0.500006 0.903647
C115  C     C_3   0.736058 0.999974 0.775897 -0.163722
C116  C     C_3   0.236058 0.499973 0.775897 -0.163722
C117  C     C_3   0.708947 0.000000 0.708946 0.206186
C118  C     C_3   0.208947 0.500000 0.708946 0.206185
C119  C     C_3   0.791044 0.000000 0.791061 0.206338
C120  C     C_3   0.291044 0.500000 0.791061 0.206338
C121  C     C_3   0.763934 0.000027 0.724110 -0.162337
C122  C     C_3   0.965243 0.763862 0.485663 -0.326900
C123  C     C_3   0.263934 0.500027 0.724110 -0.162337
C124  C     C_1   0.663474 0.000000 0.663466 -0.079269
C125  C     C_1   0.163474 0.500000 0.663466 -0.079269
C126  C     C_1   0.836519 0.000000 0.836546 -0.079264
C127  C     C_1   0.336519 0.500000 0.836546 -0.079264
C128  C     C_3   0.236053 0.034470 0.256044 -0.163360
C129  C     C_3   0.236054 0.965509 0.256010 -0.163356
C130  C     C_3   0.736053 0.534490 0.256010 -0.163362
C131  C     C_3   0.736054 0.465529 0.256044 -0.163354
C132  C     C_3   0.263923 0.034490 0.244072 -0.162805
C133  C     C_3   0.965158 0.236139 0.485434 -0.326914
C134  C     C_3   0.263923 0.965529 0.244038 -0.162798
C135  C     C_3   0.763923 0.534470 0.244038 -0.162806
C136  C     C_3   0.763923 0.465509 0.244073 -0.162797
C137  C     C_1   0.374055 1.000000 0.374076 -0.183747
C138  C     C_1   0.874055 0.500000 0.374076 -0.183747
C139  C     C_1   0.125921 1.000000 0.125995 -0.186668
C140  C     C_1   0.625921 0.500000 0.125995 -0.186668
C141  C     C_R   0.418579 1.000000 0.418588 0.910913
C142  C     C_R   0.918579 0.500000 0.418588 0.910913
C143  C     C_3   0.263967 0.999980 0.303851 -0.162429
C144  C     C_3   0.499608 0.291176 0.499398 0.062046
C145  C     C_3   0.763967 0.500019 0.303851 -0.162429
C146  C     C_3   0.291037 1.000000 0.291081 0.205097
C147  C     C_3   0.791037 0.500000 0.291081 0.205096
C148  C     C_3   0.208939 1.000000 0.209002 0.205028
C149  C     C_3   0.708939 0.500000 0.209002 0.205029
C150  C     C_3   0.236010 0.000019 0.196231 -0.162981
C151  C     C_3   0.736010 0.499980 0.196231 -0.162982
C152  C     C_1   0.336513 1.000000 0.336544 -0.076749
C153  C     C_1   0.836513 0.500000 0.336544 -0.076750
C154  C     C_1   0.163464 1.000000 0.163534 -0.078338
C155  C     C_3   0.499608 0.708824 0.499396 0.062048
C156  C     C_1   0.663464 0.500000 0.163534 -0.078338
C157  C     C_R   0.499968 0.500000 0.581443 0.911431
C158  C     C_R   0.999968 0.000000 0.581443 0.911431
C159  C     C_R   0.499987 0.418595 0.500036 0.904250
C160  C     C_R   0.499987 0.581405 0.500036 0.904262
C161  C     C_R   0.999987 0.918595 0.500036 0.904250
C162  C     C_R   0.999987 0.081405 0.500036 0.904262
C163  C     C_R   0.500020 0.500000 0.418659 0.909368
C164  C     C_R   0.000020 0.000000 0.418659 0.909368
C165  C     C_R   0.000044 0.000000 0.081514 0.910823
C166  C     C_3   0.999608 0.791176 0.499398 0.062046
C167  C     C_R   0.500044 0.500000 0.081514 0.910823
C168  C     C_3   0.534382 0.263600 0.552845 0.504082
C169  C     C_3   0.534305 0.736399 0.552909 0.504088
C170  C     C_3   0.034382 0.763600 0.552845 0.504083
C171  C     C_3   0.034305 0.236399 0.552909 0.504088
C172  C     C_R   0.918583 0.000000 0.918631 0.910560
C173  C     C_R   0.418583 0.500000 0.918631 0.910560
C174  C     C_R   0.999936 1.000000 0.918592 0.910459
C175  C     C_R   0.499936 0.500000 0.918592 0.910459
C176  C     C_R   0.081398 1.000000 0.081471 0.910703
H1    H     H_    0.561991 0.223986 0.523342 0.156139
H2    H     H_    0.776137 0.437230 0.239968 0.134335
H3    H     H_    0.223839 0.062733 0.260178 0.135293
H4    H     H_    0.223840 0.937230 0.260116 0.135296
H5    H     H_    0.723839 0.562769 0.260116 0.135294
H6    H     H_    0.723840 0.437266 0.260178 0.135295
H7    H     H_    0.223760 0.000035 0.151324 0.133710
H8    H     H_    0.723760 0.499964 0.151324 0.133710
H9    H     H_    0.276216 0.999964 0.348758 0.136579
H10   H     H_    0.776216 0.500036 0.348758 0.136579
H11   H     H_    0.463666 0.562746 0.687529 0.133272
H12   H     H_    0.562151 0.776013 0.523758 0.156133
H13   H     H_    0.463689 0.437241 0.687552 0.133268
H14   H     H_    0.963691 0.062760 0.687554 0.133272
H15   H     H_    0.963664 0.937256 0.687527 0.133268
H16   H     H_    0.036175 0.062744 0.812438 0.134939
H17   H     H_    0.036147 0.937240 0.812410 0.134935
H18   H     H_    0.536150 0.562758 0.812413 0.134940
H19   H     H_    0.536173 0.437255 0.812435 0.134935
H20   H     H_    0.927419 0.000016 0.703611 0.132928
H21   H     H_    0.427419 0.499987 0.703611 0.132928
H22   H     H_    0.572418 0.500013 0.796355 0.136440
H23   H     H_    0.061991 0.723986 0.523342 0.156139
H24   H     H_    0.072418 0.999984 0.796355 0.136440
H25   H     H_    0.463827 0.437248 0.240036 0.133889
H26   H     H_    0.463826 0.562751 0.240035 0.133888
H27   H     H_    0.963827 0.937249 0.240035 0.133889
H28   H     H_    0.963826 0.062752 0.240035 0.133888
H29   H     H_    0.036327 0.937249 0.260226 0.134928
H30   H     H_    0.036326 0.062751 0.260226 0.134926
H31   H     H_    0.536327 0.437249 0.260227 0.134927
H32   H     H_    0.536326 0.562752 0.260225 0.134926
H33   H     H_    0.927584 1.000000 0.151419 0.133414
H34   H     H_    0.062151 0.276013 0.523758 0.156133
H35   H     H_    0.427584 0.500000 0.151419 0.133414
H36   H     H_    0.572568 0.500001 0.348842 0.135958
H37   H     H_    0.072568 0.000000 0.348842 0.135958
H38   H     H_    0.497864 0.276469 0.425025 0.156095
H39   H     H_    0.498165 0.723530 0.425316 0.156095
H40   H     H_    0.997864 0.776469 0.425025 0.156095
H41   H     H_    0.998165 0.223530 0.425317 0.156095
H42   H     H_    0.436420 0.223479 0.400880 0.156443
H43   H     H_    0.436568 0.776522 0.400764 0.156448
H44   H     H_    0.936420 0.723479 0.400880 0.156443
H45   H     H_    0.723841 0.999952 0.796338 0.135384
H46   H     H_    0.936568 0.276522 0.400764 0.156448
H47   H     H_    0.437132 0.275998 0.474215 0.156821
H48   H     H_    0.436978 0.724003 0.473801 0.156825
H49   H     H_    0.937132 0.775998 0.474215 0.156821
H50   H     H_    0.936978 0.224003 0.473801 0.156826
H51   H     H_    0.723809 0.937272 0.687523 0.133192
H52   H     H_    0.723809 0.062777 0.687606 0.133187
H53   H     H_    0.223810 0.437273 0.687522 0.133192
H54   H     H_    0.223809 0.562777 0.687607 0.133187
H55   H     H_    0.776181 0.937225 0.812400 0.134369
H56   H     H_    0.223841 0.499951 0.796338 0.135384
H57   H     H_    0.776180 0.062728 0.812483 0.134367
H58   H     H_    0.276181 0.437224 0.812399 0.134368
H59   H     H_    0.276180 0.562727 0.812484 0.134368
H60   H     H_    0.776152 0.000049 0.703669 0.132861
H61   H     H_    0.276152 0.500050 0.703669 0.132861
H62   H     H_    0.612752 0.236551 0.631054 0.158921
H63   H     H_    0.584944 0.223919 0.651812 0.192624
H64   H     H_    0.625026 0.263346 0.691228 0.192990
H65   H     H_    0.584668 0.776081 0.651883 0.192629
H66   H     H_    0.612677 0.763445 0.631442 0.158919
H67   H     H_    0.276137 0.062769 0.239968 0.134330
H68   H     H_    0.624751 0.736652 0.691469 0.192985
H69   H     H_    0.112752 0.736551 0.631054 0.158921
H70   H     H_    0.084944 0.723919 0.651812 0.192624
H71   H     H_    0.125026 0.763346 0.691228 0.192990
H72   H     H_    0.084668 0.276081 0.651883 0.192629
H73   H     H_    0.112677 0.263445 0.631442 0.158920
H74   H     H_    0.124751 0.236652 0.691469 0.192986
H75   H     H_    0.464257 0.263517 0.572650 0.158988
H76   H     H_    0.520196 0.276118 0.626361 0.192034
H77   H     H_    0.501066 0.236721 0.642483 0.193103
H78   H     H_    0.276137 0.937266 0.239906 0.134335
H79   H     H_    0.519747 0.723877 0.625991 0.192022
H80   H     H_    0.463803 0.736492 0.572048 0.158995
H81   H     H_    0.500485 0.763278 0.641904 0.193103
H82   H     H_    0.964257 0.763517 0.572650 0.158987
H83   H     H_    0.020196 0.776118 0.626361 0.192035
H84   H     H_    0.001066 0.736721 0.642483 0.193103
H85   H     H_    0.019747 0.223877 0.625991 0.192022
H86   H     H_    0.963803 0.236492 0.572048 0.158995
H87   H     H_    0.000484 0.263278 0.641904 0.193103
H88   H     H_    0.776137 0.562733 0.239905 0.134331
O1    O     O_R   0.561630 0.000000 0.596420 -0.616708
O2    O     O_R   0.965230 0.000000 0.403640 -0.618513
O3    O     O_R   0.000030 0.965220 0.061700 -0.618040
O4    O     O_R   0.000030 0.034780 0.061700 -0.618041
O5    O     O_R   0.500030 0.465220 0.061700 -0.618040
O6    O     O_R   0.500030 0.534780 0.061700 -0.618041
O7    O     O_R   0.938380 0.965210 0.938430 -0.617958
O8    O     O_R   0.938380 0.034790 0.938430 -0.617959
O9    O     O_R   0.438380 0.465210 0.938430 -0.617959
O10   O     O_R   0.438380 0.534790 0.938430 -0.617959
O11   O     O_R   0.999950 0.965200 0.938400 -0.617911
O12   O     O_R   0.061630 0.500000 0.596420 -0.616708
O13   O     O_R   0.999950 0.034800 0.938400 -0.617910
O14   O     O_R   0.499950 0.465200 0.938400 -0.617911
O15   O     O_R   0.499950 0.534800 0.938400 -0.617910
O16   O     O_R   0.061600 0.965210 0.061670 -0.617981
O17   O     O_R   0.061600 0.034790 0.061670 -0.617981
O18   O     O_R   0.561600 0.465210 0.061670 -0.617981
O19   O     O_R   0.561600 0.534790 0.061670 -0.617981
O20   O     O_R   0.561580 0.000000 0.526800 -0.618880
O21   O     O_R   0.061580 0.500000 0.526800 -0.618880
O22   O     O_R   0.500020 0.061610 0.534810 -0.608530
O23   O     O_R   0.465210 0.438380 0.465220 -0.621493
O24   O     O_R   0.500020 0.938390 0.534810 -0.608538
O25   O     O_R   0.000020 0.561610 0.534810 -0.608530
O26   O     O_R   0.000020 0.438390 0.534810 -0.608538
O27   O     O_R   0.499970 0.061600 0.465200 -0.621199
O28   O     O_R   0.499970 0.938400 0.465200 -0.621196
O29   O     O_R   0.999970 0.561600 0.465200 -0.621199
O30   O     O_R   0.999970 0.438400 0.465200 -0.621196
O31   O     O_R   0.438410 0.000000 0.473200 -0.615313
O32   O     O_R   0.938410 0.500000 0.473200 -0.615313
O33   O     O_R   0.438360 0.000000 0.403580 -0.618860
O34   O     O_R   0.465210 0.561620 0.465220 -0.621493
O35   O     O_R   0.938360 0.500000 0.403580 -0.618860
O36   O     O_R   0.534760 0.500000 0.596460 -0.614424
O37   O     O_R   0.034760 0.000000 0.596460 -0.614424
O38   O     O_R   0.465190 0.500000 0.526830 -0.619707
O39   O     O_R   0.965190 0.000000 0.526830 -0.619707
O40   O     O_R   0.534770 0.438380 0.534860 -0.609016
O41   O     O_R   0.534770 0.561620 0.534860 -0.609031
O42   O     O_R   0.034770 0.938380 0.534860 -0.609016
O43   O     O_R   0.034770 0.061620 0.534860 -0.609031
O44   O     O_3   0.569629 0.281324 0.608303 -0.610442
O45   O     O_R   0.965210 0.938380 0.465220 -0.621493
O46   O     O_3   0.569468 0.718675 0.608429 -0.610452
O47   O     O_3   0.069629 0.781324 0.608303 -0.610442
O48   O     O_3   0.069468 0.218675 0.608429 -0.610452
O49   O     O_3   0.502227 0.218709 0.581818 -0.609717
O50   O     O_3   0.501900 0.781291 0.581498 -0.609716
O51   O     O_3   0.002227 0.718709 0.581818 -0.609717
O52   O     O_3   0.001900 0.281291 0.581498 -0.609716
O53   O     O_R   0.965210 0.061620 0.465220 -0.621492
O54   O     O_R   0.534790 0.500000 0.473270 -0.617144
O55   O     O_R   0.034790 0.000000 0.473270 -0.617144
O56   O     O_R   0.465230 0.500000 0.403640 -0.618513
Zn1   Zn    Zn3+2 0.500030 0.000000 0.546480 0.978698
Zn2   Zn    Zn3+2 0.999990 0.046460 0.000050 0.959944
Zn3   Zn    Zn3+2 0.499990 0.453540 0.000050 0.959945
Zn4   Zn    Zn3+2 0.499990 0.546460 0.000050 0.959944
Zn5   Zn    Zn3+2 0.000030 0.500000 0.546480 0.978698
Zn6   Zn    Zn3+2 0.499960 0.000000 0.453520 0.959367
Zn7   Zn    Zn3+2 0.999960 0.500000 0.453520 0.959367
Zn8   Zn    Zn3+2 0.546440 0.500000 0.546540 0.978342
Zn9   Zn    Zn3+2 0.046440 0.000000 0.546540 0.978342
Zn10  Zn    Zn3+2 0.453540 0.500000 0.453560 0.958787
Zn11  Zn    Zn3+2 0.953540 0.000000 0.453560 0.958787
Zn12  Zn    Zn3+2 0.999990 0.953540 0.000050 0.959945

loop_
_geom_bond_atom_site_label_1
_geom_bond_atom_site_label_2
_ccdc_geom_bond_type
C89   O21   A    
C22   C29   S    
C132  C150  S    
C81   H71   S    
C82   H73   S    
C36   C42   S    
O38   Zn10  S    
C162  O43   A    
C151  H8    S    
C104  C123  S    
C14   C158  S    
O11   Zn12  S    
O13   Zn2   S    
C53   C64   S    
C109  C173  S    
C169  O46   S    
C113  O25   A    
C49   H37   S    
C171  O48   S    
C105  C123  S    
C75   C90   S    
C9    C19   S    
C48   H36   S    
C10   C20   S    
C49   C51   S    
O41   Zn8   S    
C70   C74   S    
C142  O32   A    
C12   C157  S    
C97   C115  S    
C84   O50   S    
C2    C171  S    
C4    C18   S    
C48   C50   S    
C78   H62   S    
C143  H9    S    
C103  C117  S    
C172  O7    A    
C9    H13   S    
C35   C122  S    
C8    H11   S    
C134  C146  S    
C11   C20   S    
O34   Zn10  S    
O32   Zn5   S    
C15   C32   T    
C100  C144  S    
C47   C64   T    
C5    C18   S    
C139  C154  T    
C122  H49   S    
O15   Zn4   S    
C80   O46   S    
C155  C169  S    
C110  O22   A    
O54   Zn8   S    
C36   H30   S    
C134  H78   S    
C140  C156  T    
C16   C175  S    
C21   C28   S    
C40   H26   S    
C105  C118  S    
C131  C149  S    
O8    Zn2   S    
C103  C121  S    
C95   C166  S    
C6    H18   S    
C43   C61   T    
O5    Zn3   S    
O30   Zn7   S    
C161  O42   A    
C162  O53   A    
C52   C63   S    
C46   C77   S    
C72   O51   S    
C170  O47   S    
C7    C22   S    
C46   H46   S    
C82   H72   S    
C105  H54   S    
C2    C96   S    
C54   C88   T    
C104  H53   S    
C38   C53   S    
O4    Zn2   S    
C39   C60   S    
C116  C118  S    
C111  H48   S    
C147  C153  S    
C23   H1    S    
C119  C126  S    
C5    C21   S    
C26   C170  S    
C106  C124  T    
C73   C77   S    
C70   O49   S    
C108  C126  T    
C19   C30   S    
C111  C155  S    
C86   H86   S    
C110  O27   A    
C40   C60   S    
C42   H28   S    
C175  O14   A    
C14   C31   T    
C120  C127  S    
O53   Zn11  S    
C8    C29   S    
C52   C59   S    
C148  C150  S    
C55   C90   T    
C149  C151  S    
C131  H6    S    
C135  C151  S    
C13   C57   S    
C80   H65   S    
C54   C110  S    
O37   Zn9   S    
C68   H39   S    
O27   Zn6   S    
C94   C155  S    
C7    C17   S    
C13   H42   S    
C102  C121  S    
C38   C48   S    
C36   C52   S    
C159  O40   A    
C37   C53   S    
C141  O33   A    
C135  H88   S    
C116  H56   S    
C67   C95   T    
O31   Zn1   S    
C139  C176  S    
C51   C62   S    
C128  C143  S    
C53   C60   S    
C109  C127  T    
C119  C121  S    
C34   H29   S    
C113  O29   A    
C129  H4    S    
C35   C76   S    
C114  O26   A    
C8    C19   S    
C84   H81   S    
C69   C162  S    
C107  C125  T    
C131  C136  S    
O42   Zn9   S    
C81   O47   S    
C100  H47   S    
C164  O2    A    
C23   C168  S    
C97   C119  S    
C84   H80   S    
C121  H60   S    
C2    C87   S    
C85   H83   S    
C27   C87   S    
C102  C117  S    
C93   C144  S    
C85   H84   S    
C79   H40   S    
C166  C170  S    
C135  C147  S    
O29   Zn7   S    
C18   H24   S    
C173  O9    A    
C23   C74   S    
C46   C87   S    
C23   C57   S    
C6    C17   S    
C83   O49   S    
C34   C49   S    
C57   C144  S    
C101  C120  S    
C81   H70   S    
C82   H74   S    
O43   Zn9   S    
C130  H5    S    
C42   C59   S    
O6    Zn4   S    
C108  C172  S    
C98   C115  S    
C35   C79   S    
C28   H20   S    
C41   C51   S    
C131  C145  S    
C11   H15   S    
O14   Zn3   S    
C76   C91   S    
C173  O10   A    
C174  O13   A    
C58   C114  S    
C50   C61   S    
C58   C92   T    
C59   H33   S    
O24   Zn1   S    
O21   Zn7   S    
C143  C146  S    
C78   H63   S    
C83   H76   S    
C4    H16   S    
C130  C135  S    
C167  O6    A    
C157  O38   A    
C172  O8    A    
C68   C155  S    
C34   C41   S    
C117  C124  S    
C175  O15   A    
C5    C11   S    
O3    Zn12  S    
C176  O16   A    
C160  O41   A    
C98   C103  S    
C6    C22   S    
O19   Zn4   S    
C3    O18   A    
C115  C117  S    
C165  O4    A    
C56   C113  S    
C71   C169  S    
C137  C152  T    
C118  C125  S    
C97   C102  S    
C120  C123  S    
O25   Zn5   S    
C83   H75   S    
C99   C104  S    
C130  C145  S    
C37   H31   S    
O45   Zn11  S    
C25   C68   S    
C148  C154  S    
O40   Zn8   S    
C145  C147  S    
C104  C118  S    
O9    Zn3   S    
C2    C133  S    
C73   O52   S    
C133  H50   S    
C138  C142  S    
C99   H58   S    
C128  C148  S    
O23   Zn10  S    
C6    C8    S    
C103  H52   S    
C27   H34   S    
C25   C75   S    
C163  O56   A    
C70   C168  S    
C164  O55   A    
C67   C161  S    
C174  O11   A    
C89   C107  S    
C84   H79   S    
C17   H22   S    
C128  H3    S    
O26   Zn5   S    
C138  C153  T    
C83   H77   S    
C114  O30   A    
C39   H25   S    
O18   Zn3   S    
C7    H19   S    
C86   H87   S    
C99   C116  S    
C136  C151  S    
C5    H17   S    
C10   C28   S    
C137  C141  S    
O35   Zn7   S    
C15   C174  S    
C12   C30   T    
C115  H45   S    
O16   Zn12  S    
C85   O51   S    
C24   C75   S    
C86   O52   S    
C129  C143  S    
C34   C52   S    
C26   C79   S    
C132  C146  S    
O39   Zn11  S    
C37   C39   S    
C46   C133  S    
C38   C40   S    
C11   C28   S    
C78   O44   S    
C80   H66   S    
O36   Zn8   S    
C60   H35   S    
O1    Zn1   S    
O22   Zn1   S    
C24   C68   S    
C71   O50   S    
C129  C134  S    
C24   H43   S    
C82   O48   S    
C13   C74   S    
C101  C116  S    
C44   C164  S    
C74   C88   S    
C45   C165  S    
C36   C49   S    
C43   C163  S    
C77   C92   S    
C122  C166  S    
C55   C112  S    
C65   C159  S    
C69   C96   T    
C35   H44   S    
C66   C160  S    
C98   C119  S    
C10   H14   S    
C38   H32   S    
C144  C168  S    
C149  C156  S    
C163  O54   A    
C141  O31   A    
O10   Zn4   S    
C134  C150  S    
C136  H2    S    
C160  O34   A    
C129  C148  S    
C99   C120  S    
C56   C91   T    
C71   C111  S    
C101  H59   S    
C89   O12   A    
C26   C76   S    
C85   H82   S    
C73   C171  S    
C158  O37   A    
C9    C29   S    
C42   C51   S    
C66   C94   T    
C3    O19   A    
O7    Zn12  S    
C79   C166  S    
C24   C111  S    
C128  C132  S    
C70   C100  S    
C101  C105  S    
C21   C32   S    
C81   H69   S    
C41   C59   S    
C142  O35   A    
O55   Zn9   S    
C44   C62   T    
C45   C63   T    
C159  O23   A    
C80   H68   S    
C72   C170  S    
C176  O17   A    
C25   H12   S    
C16   C33   T    
C47   C167  S    
O2    Zn11  S    
C132  H67   S    
C130  C149  S    
C72   C76   S    
C40   C50   S    
C37   C48   S    
C26   H23   S    
C146  C152  S    
C73   C133  S    
C29   H21   S    
C161  O45   A    
C112  O28   A    
C41   H27   S    
C4    C10   S    
C27   C171  S    
C25   C169  S    
C7    C9    S    
C22   C33   S    
C78   H64   S    
C86   H85   S    
C72   C122  S    
C168  O44   S    
O20   Zn6   S    
O17   Zn2   S    
C167  O5    A    
C27   C77   S    
C158  O39   A    
C1    O20   A    
C150  H7    S    
C1    C106  S    
C145  H10   S    
C13   C100  S    
C71   C75   S    
C4    C21   S    
C97   H55   S    
C98   H57   S    
C65   C93   T    
C102  H51   S    
C17   C19   S    
C18   C20   S    
C87   H41   S    
C157  O36   A    
O12   Zn5   S    
C136  C147  S    
O28   Zn6   S    
C39   C50   S    
C1    O1    A    
C57   H38   S    
C165  O3    A    
O56   Zn10  S    
C3    C140  S    
C112  O24   A    
C123  H61   S    
O33   Zn6   S    
C20   C31   S    
