data_mof_unit_42941.cif
_audit_creation_date              2012-12-11T16:45:46-0500
_audit_creation_method            fapswitch 2.2
_symmetry_space_group_name_H-M    P1
_symmetry_Int_Tables_number       1
_space_group_crystal_system       triclinic
_cell_length_a                    19.736868
_cell_length_b                    17.046826
_cell_length_c                    15.487835
_cell_angle_alpha                 89.530898
_cell_angle_beta                  53.273121
_cell_angle_gamma                 90.191967
_cell_volume                      4176.14773966

loop_
_atom_site_label
_atom_site_type_symbol
_atom_type_description
_atom_site_fract_x
_atom_site_fract_y
_atom_site_fract_z
_atom_type_partial_charge
C1    C     C_R   0.840305 0.672514 0.045303 -0.120430
C2    C     C_R   0.154432 0.311534 0.065074 0.154584
C3    C     C_R   0.348829 0.811235 0.929716 0.148851
C4    C     C_R   0.653212 0.811246 0.066943 0.150429
C5    C     C_R   0.885135 0.684887 0.301299 0.030362
C6    C     C_R   0.104431 0.688719 0.701290 0.011550
C7    C     C_R   0.361406 0.174931 0.314186 0.035454
C8    C     C_R   0.610336 0.187525 0.700307 0.027523
C9    C     C_R   0.823300 0.712642 0.486312 0.135904
C10   C     C_R   0.142839 0.714616 0.521799 0.139867
C11   C     C_R   0.281870 0.184076 0.506329 0.139224
C12   C     C_R   0.160874 0.672454 0.952085 -0.123796
C13   C     C_R   0.685082 0.309974 0.612686 0.145837
C14   C     C_R   0.825543 0.726577 0.396388 0.049062
C15   C     C_R   0.122395 0.745415 0.618095 0.054003
C16   C     C_R   0.293389 0.208159 0.412686 0.053654
C17   C     C_R   0.635961 0.247630 0.619661 0.035271
C18   C     C_R   0.229326 0.249927 0.418779 -0.196827
C19   C     C_R   0.626036 0.238085 0.537618 -0.199563
C20   C     C_R   0.755133 0.759309 0.407813 -0.199877
C21   C     C_R   0.146056 0.823271 0.617865 -0.203622
C22   C     C_R   0.162652 0.279474 0.517220 -0.208694
C23   C     C_R   0.340823 0.173102 0.043565 -0.120385
C24   C     C_R   0.677878 0.281192 0.441374 -0.213041
C25   C     C_R   0.688532 0.787126 0.506590 -0.208352
C26   C     C_R   0.203559 0.862289 0.521013 -0.188311
C27   C     C_R   0.161024 0.266230 0.607739 0.040627
C28   C     C_R   0.739742 0.331937 0.428228 0.041598
C29   C     C_R   0.692587 0.781473 0.593161 0.044270
C30   C     C_R   0.236977 0.824434 0.423312 0.050072
C31   C     C_R   0.757873 0.740710 0.583660 0.138959
C32   C     C_R   0.199898 0.754162 0.424682 0.132505
C33   C     C_R   0.216704 0.212780 0.602944 0.145756
C34   C     C_R   0.661133 0.172115 0.951312 -0.122639
C35   C     C_R   0.736318 0.351282 0.518128 0.158828
C36   C     C_3   0.814709 0.764896 0.612833 -0.475928
C37   C     C_3   0.144140 0.744828 0.390047 -0.457355
C38   C     C_3   0.271295 0.219766 0.640507 -0.463265
C39   C     C_3   0.806995 0.356031 0.528480 -0.517078
C40   C     C_R   0.853209 0.324781 0.222777 0.061385
C41   C     C_R   0.102359 0.302718 0.793353 0.052761
C42   C     C_R   0.357208 0.821017 0.221074 0.066062
C43   C     C_R   0.614902 0.806654 0.786832 0.059181
C44   C     C_3   0.887346 0.733821 0.504372 -0.513266
C45   C     C_R   0.811882 0.359637 0.323784 0.027327
C46   C     C_3   0.082051 0.702641 0.495337 -0.523510
C47   C     C_3   0.342926 0.187293 0.533078 -0.529712
C48   C     C_3   0.750865 0.310651 0.632537 -0.508389
C49   C     C_2   0.787046 0.182702 0.953335 -0.200044
C50   C     C_2   0.217115 0.183996 0.038301 -0.198693
C51   C     C_2   0.286616 0.682946 0.954327 -0.198730
C52   C     C_2   0.716421 0.683838 0.040026 -0.199822
C53   C     C_2   0.311129 0.752647 0.902747 -0.206889
C54   C     C_2   0.691927 0.752437 0.092180 -0.206175
C55   C     C_2   0.810927 0.252783 0.902787 -0.207361
C56   C     C_R   0.118511 0.318853 0.695797 0.030864
C57   C     C_2   0.192605 0.252503 0.090619 -0.207879
C58   C     C_R   0.865922 0.388688 0.896289 -0.159507
C59   C     C_R   0.135177 0.387888 0.102023 -0.161305
C60   C     C_R   0.365945 0.888713 0.896236 -0.160033
C61   C     C_R   0.634922 0.887953 0.102445 -0.159893
C62   C     C_R   0.905600 0.608047 0.302568 -0.157808
C63   C     C_R   0.090769 0.609292 0.698850 -0.150792
C64   C     C_R   0.393201 0.102260 0.309155 -0.158813
C65   C     C_R   0.594798 0.109048 0.696465 -0.148566
C66   C     C_R   0.876276 0.298712 0.991632 -0.112932
C67   C     C_R   0.314825 0.853181 0.323560 0.017232
C68   C     C_R   0.126927 0.299895 0.003284 -0.126788
C69   C     C_R   0.376845 0.798624 0.990875 -0.112878
C70   C     C_R   0.624973 0.799311 0.006007 -0.122453
C71   C     C_R   0.898972 0.698316 0.204861 0.030352
C72   C     C_R   0.096248 0.700126 0.796075 0.055388
C73   C     C_R   0.384182 0.193787 0.213616 0.027961
C74   C     C_R   0.596844 0.200045 0.797338 0.043362
C75   C     C_R   0.859949 0.423110 0.312786 -0.157870
C76   C     C_R   0.099272 0.396428 0.694005 -0.150847
C77   C     C_R   0.362645 0.917010 0.315014 -0.148576
C78   C     C_R   0.637849 0.826279 0.686447 0.025481
C79   C     C_R   0.609633 0.900921 0.689074 -0.155449
C80   C     C_R   0.830427 0.580803 0.949679 -0.151770
C81   C     C_R   0.170355 0.580243 0.048592 -0.150704
C82   C     C_R   0.330694 0.080751 0.949068 -0.151053
C83   C     C_R   0.670583 0.080105 0.048088 -0.152238
C84   C     C_R   0.789431 0.643784 0.018936 0.148030
C85   C     C_R   0.212239 0.643352 0.977548 0.149724
C86   C     C_R   0.289921 0.143998 0.017551 0.149427
C87   C     C_R   0.712582 0.143069 0.976704 0.151195
C88   C     C_R   0.848558 0.311255 0.930051 0.149532
H1    H     H_    0.117638 0.317913 0.520434 0.127698
H2    H     H_    0.172479 0.706130 0.319058 0.189874
H3    H     H_    0.250591 0.179331 0.709040 0.189126
H4    H     H_    0.819576 0.417102 0.540467 0.183468
H5    H     H_    0.932391 0.780257 0.447765 0.203764
H6    H     H_    0.021946 0.734918 0.550074 0.211052
H7    H     H_    0.395405 0.230100 0.481888 0.203408
H8    H     H_    0.775248 0.251296 0.629910 0.203025
H9    H     H_    0.290405 0.772780 0.855568 0.125022
H10   H     H_    0.712047 0.771438 0.140229 0.124436
H11   H     H_    0.789778 0.273241 0.856199 0.125480
H12   H     H_    0.675399 0.269078 0.374799 0.141349
H13   H     H_    0.211963 0.271136 0.139625 0.124906
H14   H     H_    0.862145 0.415460 0.835742 0.090966
H15   H     H_    0.139235 0.413021 0.162718 0.091576
H16   H     H_    0.362028 0.915551 0.835842 0.090488
H17   H     H_    0.639403 0.913483 0.162593 0.091726
H18   H     H_    0.885850 0.242621 0.014767 0.086693
H19   H     H_    0.122017 0.245183 0.973299 0.094775
H20   H     H_    0.387554 0.742386 0.012173 0.086019
H21   H     H_    0.616707 0.743942 0.980505 0.097849
H22   H     H_    0.809656 0.547345 0.910303 0.096462
H23   H     H_    0.636504 0.816076 0.514042 0.128588
H24   H     H_    0.191191 0.546152 0.087732 0.097099
H25   H     H_    0.310065 0.047135 0.909651 0.096286
H26   H     H_    0.691536 0.046026 0.087097 0.097553
H27   H     H_    0.232408 0.262490 0.347868 0.137636
H28   H     H_    0.585146 0.192543 0.543277 0.128374
H29   H     H_    0.751235 0.763331 0.341083 0.135233
H30   H     H_    0.126764 0.853270 0.689672 0.121875
H31   H     H_    0.830360 0.722910 0.092681 0.108120
H32   H     H_    0.171605 0.722693 0.902865 0.101128
H33   H     H_    0.331415 0.224659 0.088499 0.106035
H34   H     H_    0.225311 0.919788 0.523847 0.122419
H35   H     H_    0.672063 0.221874 0.901218 0.094280
H36   H     H_    0.917087 0.681028 0.510737 0.191620
H37   H     H_    0.073929 0.639583 0.485428 0.182120
H38   H     H_    0.362681 0.127956 0.539807 0.185567
H39   H     H_    0.733203 0.346590 0.702488 0.182231
H40   H     H_    0.810281 0.161302 0.997149 0.124376
H41   H     H_    0.195078 0.163890 0.992830 0.123150
H42   H     H_    0.309302 0.661851 0.998900 0.123962
H43   H     H_    0.694169 0.663738 0.994774 0.123770
H44   H     H_    0.901810 0.222565 0.147184 0.082695
H45   H     H_    0.817346 0.829562 0.619661 0.202077
H46   H     H_    0.818106 0.212100 0.273203 0.105875
H47   H     H_    0.034719 0.232066 0.925196 0.085875
H48   H     H_    0.055915 0.192384 0.814277 0.099072
H49   H     H_    0.412265 0.725136 0.131111 0.082540
H50   H     H_    0.343882 0.705733 0.259395 0.095096
H51   H     H_    0.545864 0.720500 0.895152 0.084710
H52   H     H_    0.618568 0.687777 0.771963 0.096845
H53   H     H_    0.907872 0.579317 0.363311 0.096780
H54   H     H_    0.081854 0.580672 0.644178 0.102836
H55   H     H_    0.393242 0.072423 0.370840 0.099460
H56   H     H_    0.120275 0.801657 0.382775 0.197920
H57   H     H_    0.589314 0.081149 0.638420 0.097246
H58   H     H_    0.904525 0.817531 0.206684 0.099646
H59   H     H_    0.976298 0.776624 0.087635 0.111244
H60   H     H_    0.133147 0.805904 0.814059 0.077421
H61   H     H_    0.031115 0.801918 0.852937 0.100316
H62   H     H_    0.413580 0.308078 0.210412 0.103915
H63   H     H_    0.446945 0.272731 0.091085 0.107353
H64   H     H_    0.611619 0.303753 0.848373 0.077849
H65   H     H_    0.536137 0.304642 0.828560 0.105342
H66   H     H_    0.846782 0.462857 0.374649 0.114577
H67   H     H_    0.282454 0.281557 0.651950 0.201545
H68   H     H_    0.097883 0.426443 0.633303 0.099157
H69   H     H_    0.351823 0.952074 0.379411 0.097957
H70   H     H_    0.612392 0.932251 0.626015 0.103076
H71   H     H_    0.863899 0.322920 0.465149 0.204205
H72   H     H_    0.802568 0.730121 0.681930 0.191222
N1    N     N_R   0.908660 0.628630 0.995840 -0.045092
N2    N     N_R   0.096530 0.421430 0.063580 -0.038112
N3    N     N_R   0.403470 0.921430 0.936420 -0.038207
N4    N     N_R   0.596530 0.921430 0.063580 -0.038772
N5    N     N_R   0.927500 0.575670 0.211370 -0.042739
N6    N     N_R   0.072500 0.575670 0.788630 -0.044962
N7    N     N_R   0.427500 0.075670 0.211370 -0.041669
N8    N     N_R   0.572500 0.075670 0.788630 -0.044534
N9    N     N_R   0.908660 0.365680 0.995820 -0.046470
N10   N     N_R   0.091340 0.365680 0.004180 -0.047382
N11   N     N_R   0.408660 0.865680 0.995820 -0.047031
N12   N     N_R   0.091340 0.628630 0.004160 -0.047393
N13   N     N_R   0.591340 0.865680 0.004180 -0.046631
N14   N     N_R   0.922310 0.631420 0.151980 -0.046714
N15   N     N_R   0.077690 0.631420 0.848020 -0.047315
N16   N     N_R   0.422310 0.131420 0.151980 -0.049478
N17   N     N_R   0.577690 0.131420 0.848020 -0.047697
N18   N     N_R   0.927500 0.426330 0.211360 -0.046712
N19   N     N_R   0.072500 0.426330 0.788640 -0.044674
N20   N     N_R   0.427500 0.926330 0.211360 -0.045436
N21   N     N_R   0.572500 0.926330 0.788640 -0.044733
N22   N     N_R   0.903470 0.570760 0.936440 -0.040696
N23   N     N_R   0.408660 0.128630 0.995840 -0.045197
N24   N     N_R   0.096530 0.570760 0.063560 -0.040219
N25   N     N_R   0.403470 0.070760 0.936440 -0.040286
N26   N     N_R   0.596530 0.070760 0.063560 -0.041023
N27   N     N_3   0.841686 0.245511 0.203614 -0.226557
N28   N     N_3   0.082699 0.226319 0.842923 -0.229592
N29   N     N_3   0.352084 0.740861 0.198152 -0.223118
N30   N     N_3   0.608512 0.729140 0.827838 -0.229081
N31   N     N_3   0.912810 0.773589 0.154542 -0.236572
N32   N     N_3   0.077768 0.772288 0.852117 -0.230091
N33   N     N_3   0.395543 0.272271 0.172697 -0.237519
N34   N     N_R   0.591340 0.128630 0.004160 -0.047677
N35   N     N_3   0.563049 0.271069 0.857494 -0.221714
N36   N     N_R   0.922310 0.368460 0.151950 -0.056705
N37   N     N_R   0.077690 0.368460 0.848050 -0.054284
N38   N     N_R   0.422310 0.868460 0.151950 -0.057668
N39   N     N_R   0.577690 0.868460 0.848050 -0.053034
N40   N     N_R   0.903470 0.421430 0.936420 -0.037842
Ni1   Ni    Ni4+2 0.000000 0.630300 0.000000 0.210367
Ni2   Ni    Ni4+2 0.500000 0.130300 0.000000 0.207577
Ni3   Ni    Ni4+2 1.000000 0.369700 0.000000 0.199158
Ni4   Ni    Ni4+2 0.500000 0.869700 0.000000 0.200552
Ni5   Ni    Ni4+2 0.988090 0.497570 0.863760 0.203851
Ni6   Ni    Ni4+2 0.011910 0.497570 0.136240 0.204799
Ni7   Ni    Ni4+2 0.488090 0.997570 0.863760 0.204380
Ni8   Ni    Ni4+2 0.511910 0.997570 0.136240 0.205962

loop_
_geom_bond_atom_site_label_1
_geom_bond_atom_site_label_2
_ccdc_geom_bond_type
H60   N32   S    
C83   C87   A    
C21   C26   A    
N19   Ni5   S    
C4    C61   A    
N40   Ni5   S    
C56   C76   A    
C37   H56   S    
C73   N33   S    
C61   N4    A    
H52   N30   S    
H47   N28   S    
C49   C87   S    
C46   H37   S    
C11   C47   S    
C67   C77   A    
C80   C84   A    
C76   N19   A    
C36   H45   S    
C51   C85   S    
C79   H70   S    
C4    C70   A    
C2    C57   S    
C23   H33   S    
C40   N27   S    
C27   C33   A    
C43   C78   A    
C6    C72   A    
C65   N8    A    
C58   N40   A    
N6    N15   A    
C34   H35   S    
C12   C85   A    
N13   Ni4   S    
C45   C75   A    
N1    Ni1   S    
C3    C69   A    
C13   C35   A    
C64   N7    A    
C2    C68   A    
C10   C15   A    
N23   N25   A    
C66   C88   A    
C71   N31   S    
C20   C25   A    
N8    N17   A    
N34   Ni2   S    
C68   H19   S    
N1    N22   A    
C60   N3    A    
N24   Ni6   S    
C1    H31   S    
C72   N15   A    
N11   Ni4   S    
C52   C84   S    
C75   N18   A    
N25   Ni7   S    
C44   H5    S    
C66   N9    A    
C6    C15   S    
C12   H32   S    
C68   N10   A    
C51   H42   S    
C63   N6    A    
C29   C78   S    
C28   C35   A    
H59   N31   S    
C9    C44   S    
C23   C86   A    
C46   H6    S    
C10   C46   S    
C83   N26   A    
N37   Ni3   S    
C58   H14   S    
N6    Ni5   S    
C80   N22   A    
C61   H17   S    
N5    Ni6   S    
C31   C36   S    
C30   C67   S    
C42   N29   S    
C4    C54   S    
C3    C60   A    
C34   N34   A    
C1    N1    A    
C8    C65   A    
C18   C22   A    
N2    Ni6   S    
C52   H43   S    
C83   H26   S    
C38   H67   S    
C66   H18   S    
H44   N27   S    
C20   H29   S    
C69   H20   S    
C52   C54   D    
C25   C29   A    
C40   C45   A    
C28   C45   S    
C77   N20   A    
C82   N25   A    
N16   Ni2   S    
C42   N38   A    
C43   N30   S    
C12   N12   A    
N4    Ni8   S    
C9    C31   A    
C78   C79   A    
N19   N37   A    
C53   H9    S    
N5    N14   A    
C82   C86   A    
N18   N36   A    
C38   H3    S    
C44   H36   S    
N14   Ni1   S    
C79   N21   A    
C41   N28   S    
C1    C84   A    
C6    C63   A    
C50   C86   S    
C35   C39   S    
C9    C14   A    
H62   N33   S    
C23   N23   A    
C21   H30   S    
C50   H41   S    
C14   C20   A    
N9    Ni3   S    
C11   C16   A    
N12   N24   A    
H65   N35   S    
C81   H24   S    
C11   C33   A    
C7    C73   A    
C8    C74   A    
N10   Ni3   S    
N8    Ni7   S    
N4    N13   A    
H51   N30   S    
C16   C18   A    
C32   C37   S    
C27   C56   S    
N36   Ni3   S    
N21   Ni7   S    
N15   Ni1   S    
C5    C14   S    
N9    N40   A    
H49   N29   S    
C37   H2    S    
C41   N37   A    
C7    C16   S    
C2    C59   A    
C26   C30   A    
C36   H72   S    
C70   H21   S    
N38   Ni4   S    
N39   Ni4   S    
H58   N31   S    
C36   C44   S    
H50   N29   S    
C22   H1    S    
C62   H53   S    
C80   H22   S    
N21   N39   A    
C39   H4    S    
N3    N11   A    
C47   H38   S    
C40   N36   A    
C49   H40   S    
C74   N35   S    
H61   N32   S    
C48   H8    S    
H64   N35   S    
C39   H71   S    
C24   H12   S    
C50   C57   D    
H46   N27   S    
N26   N34   A    
C41   C56   A    
C24   C28   A    
C82   H25   S    
C39   C48   S    
C58   C88   A    
C18   H27   S    
C13   C48   S    
C64   H55   S    
N26   Ni8   S    
N23   Ni2   S    
C57   H13   S    
C8    C17   S    
C71   N14   A    
C13   C17   A    
C22   C27   A    
N22   Ni5   S    
C59   H15   S    
N7    Ni8   S    
H63   N33   S    
C73   N16   A    
C19   C24   A    
N2    N10   A    
C29   C31   A    
C59   N2    A    
C49   C55   D    
C48   H39   S    
C30   C32   A    
C3    C53   S    
C75   H66   S    
C42   C67   A    
C74   N17   A    
C38   C47   S    
C19   H28   S    
N18   Ni6   S    
N3    Ni7   S    
C17   C19   A    
C63   H54   S    
C76   H68   S    
C5    C62   A    
C55   C88   S    
C34   C87   A    
C69   N11   A    
N12   Ni1   S    
C70   N13   A    
C81   C85   A    
C7    C64   A    
N20   N38   A    
C25   H23   S    
C10   C32   A    
C15   C21   A    
C62   N5    A    
N20   Ni8   S    
C5    C71   A    
C55   H11   S    
C47   H7    S    
N17   Ni2   S    
C54   H10   S    
C33   C38   S    
C43   N39   A    
C26   H34   S    
C81   N24   A    
C51   C53   D    
C37   C46   S    
C60   H16   S    
C65   H57   S    
C72   N32   S    
H48   N28   S    
C77   H69   S    
N7    N16   A    
