data_mof_unit_34652.cif
_audit_creation_date              2012-10-26T19:03:29-0400
_audit_creation_method            fapswitch 2.2
_symmetry_space_group_name_H-M    P1
_symmetry_Int_Tables_number       1
_space_group_crystal_system       triclinic
_cell_length_a                    10.932554
_cell_length_b                    13.039534
_cell_length_c                    11.753282
_cell_angle_alpha                 101.167104
_cell_angle_beta                  94.149126
_cell_angle_gamma                 92.017185
_cell_volume                      1637.38808482

loop_
_atom_site_label
_atom_site_type_symbol
_atom_type_description
_atom_site_fract_x
_atom_site_fract_y
_atom_site_fract_z
_atom_type_partial_charge
Br1   Br    Br    0.327932 0.357594 0.743348 -0.400155
Br2   Br    Br    0.150857 0.760595 0.936017 -0.491061
Br3   Br    Br    0.325781 0.779188 0.325136 -0.524393
C1    C     C_R   0.499214 0.299083 0.477204 0.591451
C2    C     C_R   0.438874 0.121298 0.361139 0.217943
C3    C     C_R   0.551350 0.139547 0.551541 0.235458
C4    C     C_R   0.262676 0.507576 0.501089 0.617410
C5    C     C_R   0.530707 0.031779 0.547939 0.018882
C6    C     C_R   0.462174 0.968953 0.449935 -0.068273
C7    C     C_R   0.440732 0.861072 0.445263 0.125394
C8    C     C_R   0.564627 0.877314 0.627873 -0.183645
C9    C     C_R   0.576199 0.985079 0.640068 0.267203
C10   C     C_R   0.366488 0.410332 0.023862 0.251974
C11   C     C_R   0.383516 0.420057 0.145889 0.037820
C12   C     C_R   0.071826 0.579714 0.596230 -0.095786
C13   C     C_R   0.559965 0.531217 0.156237 0.053891
C14   C     C_R   0.549619 0.523654 0.033640 -0.083867
C15   C     C_R   0.451403 0.463604 0.965000 -0.010355
C16   C     C_R   0.498313 0.700853 0.521607 0.586571
C17   C     C_R   0.444722 0.457636 0.840786 0.302216
C18   C     C_R   0.608944 0.585806 0.861247 0.402206
C19   C     C_R   0.634428 0.577247 0.979418 0.208042
C20   C     C_R   0.737513 0.501001 0.499795 0.606690
C21   C     C_R   0.135565 0.644982 0.697065 0.324200
C22   C     C_R   0.068934 0.693360 0.789291 0.126123
C23   C     C_R   0.128692 0.518178 0.501365 -0.020604
C24   C     C_R   0.946140 0.710175 0.766600 -0.107284
C25   C     C_R   0.886570 0.664054 0.659493 0.294262
C26   C     C_R   0.942099 0.582736 0.586352 -0.097968
C27   C     C_3   0.102329 0.486707 0.225126 -0.108076
C28   C     C_3   0.561776 0.059915 0.829052 -0.090950
C29   C     C_3   0.479694 0.145865 0.182086 -0.113359
C30   C     C_3   0.742001 0.213778 0.611377 -0.058317
C31   C     C_3   0.637803 0.761298 0.875567 -0.081729
C32   C     C_3   0.252307 0.255115 0.971483 -0.100783
C33   C     C_3   0.841998 0.577996 0.010151 -0.104493
C34   C     C_R   0.054033 0.462694 0.403067 0.272010
C35   C     C_3   0.267272 0.776204 0.675128 -0.092601
C36   C     C_3   0.821591 0.774337 0.544067 -0.128884
C37   C     C_3   0.826684 0.388179 0.227458 -0.068266
C38   C     C_R   0.927530 0.449294 0.408763 0.250072
C39   C     C_R   0.871212 0.510966 0.499088 -0.030974
C40   C     C_R   0.498815 0.814748 0.532354 -0.057677
C41   C     C_R   0.497273 0.185030 0.462104 0.007774
C42   C     C_R   0.419073 0.014750 0.357115 -0.093912
Cu1   Cu    Cu3+1 0.509250 0.507730 0.615930 1.137664
Cu2   Cu    Cu3+1 0.490750 0.492270 0.384070 1.009565
H1    H     H_    0.319280 0.381115 0.190914 0.181187
H2    H     H_    0.480230 0.102408 0.804992 0.149431
H3    H     H_    0.612032 0.109703 0.906793 0.134555
H4    H     H_    0.477553 0.061657 0.139977 0.117115
H5    H     H_    0.574830 0.173886 0.217930 0.124894
H6    H     H_    0.453917 0.190733 0.113941 0.111398
H7    H     H_    0.744231 0.256370 0.538096 0.111952
H8    H     H_    0.784420 0.136889 0.588130 0.135892
H9    H     H_    0.798844 0.261177 0.686530 0.151582
H10   H     H_    0.645804 0.773003 0.971902 0.159134
H11   H     H_    0.542115 0.775706 0.846140 0.126635
H12   H     H_    0.633387 0.579229 0.209692 0.175039
H13   H     H_    0.701485 0.822183 0.855814 0.129845
H14   H     H_    0.233308 0.242326 0.059349 0.139269
H15   H     H_    0.337280 0.216813 0.942688 0.108302
H16   H     H_    0.174943 0.216162 0.910332 0.170862
H17   H     H_    0.858163 0.580569 0.918473 0.170205
H18   H     H_    0.836474 0.495356 0.021965 0.081543
H19   H     H_    0.922689 0.618179 0.065623 0.171230
H20   H     H_    0.199519 0.830993 0.715446 0.124858
H21   H     H_    0.257013 0.770533 0.579455 0.132722
H22   H     H_    0.358188 0.812640 0.710989 0.141147
H23   H     H_    0.900815 0.766003 0.827797 0.172381
H24   H     H_    0.868853 0.847420 0.595418 0.131286
H25   H     H_    0.740418 0.796030 0.493986 0.144640
H26   H     H_    0.881685 0.735309 0.477761 0.110617
H27   H     H_    0.814539 0.472958 0.229614 0.103306
H28   H     H_    0.736921 0.346554 0.195001 0.129938
H29   H     H_    0.893719 0.357882 0.164311 0.148038
H30   H     H_    0.611399 0.841913 0.691917 0.175962
H31   H     H_    0.370595 0.968988 0.279418 0.204636
H32   H     H_    0.017575 0.531454 0.224618 0.078906
H33   H     H_    0.107666 0.441978 0.135432 0.165339
H34   H     H_    0.182156 0.543851 0.245945 0.191773
H35   H     H_    0.532207 0.985224 0.853764 0.079283
N1    N     N_R   0.523180 0.519350 0.790130 -0.243404
N2    N     N_R   0.476820 0.480650 0.209890 -0.280440
O1    O     O_R   0.506570 0.354460 0.582000 -0.448870
O2    O     O_3   0.641146 0.042483 0.738537 -0.528048
O3    O     O_3   0.394859 0.163621 0.267999 -0.534906
O4    O     O_3   0.621478 0.201498 0.644153 -0.507879
O5    O     O_3   0.671401 0.661632 0.817969 -0.514553
O6    O     O_3   0.257696 0.362672 0.967174 -0.544568
O7    O     O_3   0.736033 0.630302 0.044784 -0.593174
O8    O     O_3   0.258089 0.674961 0.701401 -0.509927
O9    O     O_3   0.783561 0.708621 0.619139 -0.535040
O10   O     O_3   0.861982 0.364899 0.337196 -0.547214
O11   O     O_R   0.490940 0.341410 0.386200 -0.483185
O12   O     O_R   0.327470 0.506530 0.597920 -0.422306
O13   O     O_R   0.311840 0.493480 0.402120 -0.488211
O14   O     O_R   0.509060 0.658590 0.613800 -0.444770
O15   O     O_R   0.493430 0.645540 0.418000 -0.470936
O16   O     O_R   0.688160 0.506520 0.597880 -0.460231
O17   O     O_R   0.672530 0.493470 0.402080 -0.522069
O18   O     O_3   0.104272 0.415585 0.302550 -0.536583

loop_
_geom_bond_atom_site_label_1
_geom_bond_atom_site_label_2
_ccdc_geom_bond_type
C30   H8    S    
C6    C42   A    
Cu2   O17   S    
C10   O6    S    
C38   C39   A    
C11   N2    A    
C3    O4    S    
C18   O5    S    
C4    O12   A    
C20   C39   S    
C10   C15   A    
C25   C26   A    
C30   O4    S    
C34   O18   S    
C26   C39   A    
C33   H19   S    
C35   O8    S    
C13   N2    A    
Cu2   O15   S    
C29   H5    S    
C8    H30   S    
C36   O9    S    
C18   N1    A    
C5    C6    A    
C31   H10   S    
C19   O7    S    
C8    C40   A    
C42   H31   S    
C32   H15   S    
C6    C7    A    
Cu1   O1    S    
C27   H33   S    
C30   H9    S    
C20   O16   A    
Cu1   O14   S    
C35   H22   S    
C28   O2    S    
C3    C41   A    
C18   C19   A    
C31   H13   S    
C28   H2    S    
C21   O8    S    
C16   O14   A    
C16   C40   S    
C12   C26   A    
C21   C22   A    
C16   O15   A    
C33   H18   S    
C13   C14   A    
C12   C23   A    
C3    C5    A    
C1    O1    A    
C1    C41   S    
C29   O3    S    
C2    C42   A    
C37   H29   S    
C25   O9    S    
C13   H12   S    
C29   H4    S    
C1    O11   A    
C38   O10   S    
C5    C9    A    
C27   O18   S    
C14   C15   A    
C32   H14   S    
Cu2   N2    S    
C28   H35   S    
C24   H23   S    
C27   H32   S    
C33   O7    S    
C12   C21   A    
C2    C41   A    
C35   H21   S    
C28   H3    S    
C29   H6    S    
C30   H7    S    
Cu1   O16   S    
Cu1   Cu2   S    
Br1   C17   S    
Cu2   O11   S    
C4    O13   A    
C7    C40   A    
C37   O10   S    
C11   H1    S    
C8    C9    A    
C23   C34   A    
C22   C24   A    
C14   C19   A    
Cu2   O13   S    
C37   H28   S    
C9    O2    S    
C27   H34   S    
C31   O5    S    
Br3   C7    S    
C33   H17   S    
C20   O17   A    
C4    C23   S    
C37   H27   S    
Br2   C22   S    
C15   C17   A    
C36   H26   S    
C34   C38   A    
C36   H25   S    
Cu1   N1    S    
C2    O3    S    
C32   O6    S    
Cu1   O12   S    
C35   H20   S    
C17   N1    A    
C24   C25   A    
C31   H11   S    
C36   H24   S    
C32   H16   S    
C10   C11   A    
