data_mof_unit_44179.cif
_audit_creation_date              2012-12-10T22:16:25-0500
_audit_creation_method            fapswitch 2.2
_symmetry_space_group_name_H-M    P1
_symmetry_Int_Tables_number       1
_space_group_crystal_system       triclinic
_cell_length_a                    27.006437
_cell_length_b                    27.070676
_cell_length_c                    26.993625
_cell_angle_alpha                 90.249585
_cell_angle_beta                  89.872813
_cell_angle_gamma                 89.968733
_cell_volume                      19734.3281081

loop_
_atom_site_label
_atom_site_type_symbol
_atom_type_description
_atom_site_fract_x
_atom_site_fract_y
_atom_site_fract_z
_atom_type_partial_charge
C1    C     C_R   0.568802 0.298620 0.298876 0.955584
C2    C     C_R   0.429193 0.702380 0.701800 0.932273
C3    C     C_R   0.702300 0.297528 0.569935 0.934431
C4    C     C_R   0.298081 0.701305 0.429918 0.935191
C5    C     C_R   0.430011 0.298065 0.701537 0.953630
C6    C     C_R   0.569248 0.701385 0.298318 0.945339
C7    C     C_R   0.295969 0.295704 0.428515 0.954576
C8    C     C_R   0.701307 0.701572 0.569405 0.941200
C9    C     C_R   0.569322 0.701479 0.701345 0.931689
C10   C     C_R   0.427642 0.296058 0.296971 0.986851
C11   C     C_R   0.701882 0.701853 0.429238 0.943841
C12   C     C_R   0.298300 0.298139 0.569812 0.961677
C13   C     C_R   0.429110 0.701663 0.297884 0.943391
C14   C     C_R   0.572756 0.295507 0.703994 0.926670
C15   C     C_R   0.297669 0.702345 0.569689 0.935340
C16   C     C_R   0.701293 0.298503 0.430316 0.938251
C17   C     C_R   0.704263 0.426933 0.703935 0.936908
C18   C     C_R   0.298446 0.568685 0.298571 0.952597
C19   C     C_R   0.701611 0.569763 0.297914 0.940404
C20   C     C_R   0.298150 0.429467 0.701935 0.940587
C21   C     C_R   0.298145 0.570134 0.701328 0.947385
C22   C     C_R   0.701765 0.429259 0.297763 0.944484
C23   C     C_R   0.297244 0.428538 0.297996 0.958770
C24   C     C_R   0.701561 0.570298 0.701761 0.923263
C25   C     C_R   0.071985 0.797131 0.296338 0.972148
C26   C     C_R   0.929988 0.201961 0.701577 0.934984
C27   C     C_R   0.701519 0.797935 0.070345 0.931013
C28   C     C_R   0.298297 0.201244 0.930696 0.944374
C29   C     C_R   0.930280 0.798140 0.701471 0.930169
C30   C     C_R   0.070465 0.201572 0.298006 0.937575
C31   C     C_R   0.298099 0.798315 0.931146 0.948127
C32   C     C_R   0.701624 0.201792 0.070220 0.964891
C33   C     C_R   0.070921 0.202304 0.701515 0.938278
C34   C     C_R   0.930955 0.798573 0.298781 0.949564
C35   C     C_R   0.701542 0.202232 0.929226 0.948795
C36   C     C_R   0.297752 0.798182 0.070835 0.943524
C37   C     C_R   0.931289 0.201573 0.298309 0.970425
C38   C     C_R   0.070538 0.798188 0.701577 0.928922
C39   C     C_R   0.296044 0.204606 0.072158 0.965314
C40   C     C_R   0.701933 0.798122 0.930221 0.926408
C41   C     C_R   0.202251 0.701881 0.071306 0.941611
C42   C     C_R   0.798864 0.298548 0.930241 0.927971
C43   C     C_R   0.201599 0.930443 0.701316 0.949803
C44   C     C_R   0.798150 0.071014 0.297302 0.947462
C45   C     C_R   0.202782 0.297048 0.930132 0.941225
C46   C     C_R   0.798224 0.701985 0.070659 0.929372
C47   C     C_R   0.201394 0.069147 0.298700 0.940514
C48   C     C_R   0.798348 0.929599 0.701635 0.927016
C49   C     C_R   0.793841 0.294506 0.074477 0.931857
C50   C     C_R   0.201924 0.701411 0.930498 0.943064
C51   C     C_R   0.797961 0.070672 0.701790 0.926964
C52   C     C_R   0.203752 0.928701 0.295971 0.946708
C53   C     C_R   0.798433 0.701604 0.930528 0.921448
C54   C     C_R   0.201154 0.298639 0.069197 0.948501
C55   C     C_R   0.798500 0.929968 0.298385 0.945188
C56   C     C_R   0.202827 0.071245 0.701979 0.964716
C57   C     C_R   0.298794 0.931385 0.201265 0.961324
C58   C     C_R   0.701356 0.070465 0.797947 0.926319
C59   C     C_R   0.070209 0.298134 0.201765 0.940466
C60   C     C_R   0.930357 0.701686 0.798670 0.919879
C61   C     C_R   0.702148 0.070626 0.202477 0.947318
C62   C     C_R   0.297837 0.929592 0.798529 0.931467
C63   C     C_R   0.930260 0.702021 0.202094 0.929327
C64   C     C_R   0.070883 0.297399 0.798318 0.938646
C65   C     C_R   0.702030 0.929578 0.798296 0.933222
C66   C     C_R   0.296800 0.072432 0.202943 0.968026
C67   C     C_R   0.930361 0.298018 0.797957 0.930336
C68   C     C_R   0.070245 0.701693 0.202475 0.943049
C69   C     C_R   0.297562 0.070024 0.797886 0.929769
C70   C     C_R   0.701309 0.930074 0.201596 0.933565
C71   C     C_R   0.070784 0.701777 0.798242 0.925344
C72   C     C_R   0.927410 0.296419 0.203801 0.955399
C73   C     C_R   0.569679 0.798364 0.798608 0.949194
C74   C     C_R   0.427580 0.204572 0.203707 0.975807
C75   C     C_R   0.201670 0.798657 0.569044 0.949567
C76   C     C_R   0.798631 0.201873 0.429516 0.951651
C77   C     C_R   0.430011 0.798640 0.201756 0.940289
C78   C     C_R   0.569049 0.201972 0.797996 0.907044
C79   C     C_R   0.798406 0.798063 0.429889 0.939646
C80   C     C_R   0.202820 0.202605 0.569692 0.941445
C81   C     C_R   0.569461 0.201604 0.201758 0.950971
C82   C     C_R   0.428908 0.797707 0.798216 0.947625
C83   C     C_R   0.201571 0.201290 0.430366 0.950454
C84   C     C_R   0.798517 0.798267 0.569218 0.933520
C85   C     C_R   0.429885 0.201336 0.798564 0.933198
C86   C     C_R   0.569385 0.798065 0.201919 0.937347
C87   C     C_R   0.798204 0.201916 0.569421 0.943377
C88   C     C_R   0.202981 0.797729 0.428312 0.952215
C89   C     C_R   0.201934 0.429670 0.201780 0.953684
C90   C     C_R   0.798387 0.569982 0.798560 0.934762
C91   C     C_R   0.201678 0.569130 0.798739 0.946198
C92   C     C_R   0.796417 0.428677 0.203266 0.941452
C93   C     C_R   0.798734 0.569612 0.201779 0.942775
C94   C     C_R   0.202658 0.428608 0.798130 0.942801
C95   C     C_R   0.798179 0.429334 0.797630 0.945099
C96   C     C_R   0.202065 0.569610 0.202519 0.952681
C97   C     C_R   0.675061 0.111160 0.175878 -0.297608
C98   C     C_R   0.323710 0.889426 0.827798 -0.284586
C99   C     C_R   0.825298 0.110891 0.673608 -0.293423
C100  C     C_R   0.180552 0.886521 0.318144 -0.337555
C101  C     C_R   0.323665 0.109523 0.824961 -0.313738
C102  C     C_R   0.672293 0.890683 0.174214 -0.303103
C103  C     C_R   0.173230 0.107600 0.327075 -0.303494
C104  C     C_R   0.826683 0.889780 0.673229 -0.292560
C105  C     C_R   0.674973 0.889767 0.826982 -0.294603
C106  C     C_R   0.321915 0.116359 0.177252 -0.293089
C107  C     C_R   0.826458 0.890410 0.326401 -0.301934
C108  C     C_R   0.178510 0.112887 0.673559 -0.287749
C109  C     C_R   0.326802 0.893272 0.173623 -0.313385
C110  C     C_R   0.671723 0.110689 0.824161 -0.294757
C111  C     C_R   0.174175 0.891642 0.672401 -0.312288
C112  C     C_R   0.827572 0.111449 0.323023 -0.293366
C113  C     C_R   0.891286 0.825068 0.672847 -0.308825
C114  C     C_R   0.110244 0.172824 0.325403 -0.300169
C115  C     C_R   0.891201 0.325433 0.824456 -0.310352
C116  C     C_R   0.110703 0.673034 0.177646 -0.305257
C117  C     C_R   0.893047 0.174291 0.324612 -0.317877
C118  C     C_R   0.110358 0.826212 0.673121 -0.292688
C119  C     C_R   0.891013 0.674847 0.175338 -0.316896
C120  C     C_R   0.112178 0.322003 0.827076 -0.292005
C121  C     C_R   0.112264 0.176467 0.672488 -0.294294
C122  C     C_R   0.892403 0.826193 0.327343 -0.309134
C123  C     C_R   0.111101 0.673668 0.826567 -0.290527
C124  C     C_R   0.881884 0.319329 0.181509 -0.295916
C125  C     C_R   0.115717 0.823367 0.318710 -0.295216
C126  C     C_R   0.890429 0.175088 0.673141 -0.305912
C127  C     C_R   0.109697 0.325931 0.173683 -0.299786
C128  C     C_R   0.891536 0.674196 0.827459 -0.299957
C129  C     C_R   0.177826 0.321548 0.890143 -0.341909
C130  C     C_R   0.826453 0.675089 0.111321 -0.292764
C131  C     C_R   0.672218 0.176156 0.888659 -0.276320
C132  C     C_R   0.324907 0.826948 0.111106 -0.296586
C133  C     C_R   0.826715 0.673628 0.892046 -0.308961
C134  C     C_R   0.172627 0.326337 0.108032 -0.305750
C135  C     C_R   0.324220 0.825561 0.892593 -0.320583
C136  C     C_R   0.674271 0.174357 0.110398 -0.304253
C137  C     C_R   0.812310 0.316180 0.121845 -0.282971
C138  C     C_R   0.175225 0.672724 0.891669 -0.309411
C139  C     C_R   0.319158 0.183794 0.116159 -0.331991
C140  C     C_R   0.674709 0.825755 0.891229 -0.312124
C141  C     C_R   0.175411 0.673282 0.112666 -0.288207
C142  C     C_R   0.827492 0.326385 0.890786 -0.303059
C143  C     C_R   0.672599 0.825026 0.110099 -0.298687
C144  C     C_R   0.325076 0.172473 0.891903 -0.317264
C145  C     C_R   0.175286 0.609047 0.177712 -0.327794
C146  C     C_R   0.826587 0.388946 0.823613 -0.295627
C147  C     C_R   0.827398 0.608813 0.174999 -0.307447
C148  C     C_R   0.177598 0.386696 0.826754 -0.293017
C149  C     C_R   0.826758 0.609029 0.826924 -0.291882
C150  C     C_R   0.174333 0.389718 0.174308 -0.303375
C151  C     C_R   0.174808 0.607633 0.827402 -0.315810
C152  C     C_R   0.818331 0.385116 0.179580 -0.317435
C153  C     C_R   0.390403 0.827631 0.174773 -0.300316
C154  C     C_R   0.607594 0.175364 0.824342 -0.324332
C155  C     C_R   0.387587 0.823975 0.826916 -0.290749
C156  C     C_R   0.608777 0.173378 0.175485 -0.312433
C157  C     C_R   0.390046 0.172188 0.826080 -0.299534
C158  C     C_R   0.608040 0.824953 0.174839 -0.328295
C159  C     C_R   0.383155 0.183675 0.179646 -0.301797
C160  C     C_R   0.609010 0.825683 0.826965 -0.305547
C161  C     C_R   0.178259 0.825632 0.385794 -0.292910
C162  C     C_R   0.825381 0.174957 0.608351 -0.324964
C163  C     C_R   0.174062 0.172719 0.391105 -0.298317
C164  C     C_R   0.826625 0.825392 0.607679 -0.320863
C165  C     C_R   0.827949 0.175196 0.389052 -0.289311
C166  C     C_R   0.174375 0.826946 0.607406 -0.316832
C167  C     C_R   0.826596 0.825725 0.390457 -0.301066
C168  C     C_R   0.178308 0.177084 0.609440 -0.336690
C169  C     C_R   0.672758 0.609577 0.673511 -0.297211
C170  C     C_R   0.321718 0.385899 0.325803 -0.295726
C171  C     C_R   0.324728 0.609915 0.672365 -0.298409
C172  C     C_R   0.673053 0.389231 0.325064 -0.293459
C173  C     C_R   0.325496 0.606802 0.326103 -0.324073
C174  C     C_R   0.681864 0.381868 0.680620 -0.271962
C175  C     C_R   0.673382 0.609146 0.324247 -0.313041
C176  C     C_R   0.325682 0.388908 0.674465 -0.296405
C177  C     C_R   0.390328 0.325019 0.673436 -0.293837
C178  C     C_R   0.607954 0.673208 0.325116 -0.316244
C179  C     C_R   0.383510 0.318102 0.322837 -0.284064
C180  C     C_R   0.607694 0.673403 0.672853 -0.308939
C181  C     C_R   0.388626 0.672502 0.324577 -0.294855
C182  C     C_R   0.617306 0.317742 0.680613 -0.301726
C183  C     C_R   0.388408 0.676165 0.673334 -0.295638
C184  C     C_R   0.606985 0.326589 0.326919 -0.312083
C185  C     C_R   0.672405 0.326338 0.391254 -0.303675
C186  C     C_R   0.323880 0.676222 0.608944 -0.329115
C187  C     C_R   0.674031 0.673799 0.388752 -0.292015
C188  C     C_R   0.325952 0.325136 0.609280 -0.298911
C189  C     C_R   0.324647 0.671840 0.390198 -0.296391
C190  C     C_R   0.677206 0.322358 0.611055 -0.321248
C191  C     C_R   0.318483 0.317599 0.385804 -0.344097
C192  C     C_R   0.672768 0.673903 0.607939 -0.312465
C193  C     C_R   0.695560 0.131211 0.130769 0.319857
C194  C     C_R   0.302551 0.869665 0.872489 0.311940
C195  C     C_R   0.871011 0.130451 0.693002 0.295756
C196  C     C_R   0.141380 0.861506 0.291289 0.298054
C197  C     C_R   0.301598 0.130159 0.869976 0.310119
C198  C     C_R   0.691046 0.871319 0.128647 0.303613
C199  C     C_R   0.128203 0.126524 0.307585 0.307888
C200  C     C_R   0.871952 0.870004 0.693197 0.295847
C201  C     C_R   0.696298 0.870125 0.871750 0.301136
C202  C     C_R   0.304459 0.135431 0.131962 0.320904
C203  C     C_R   0.872655 0.871162 0.308405 0.310207
C204  C     C_R   0.131020 0.130471 0.688550 0.313920
C205  C     C_R   0.306390 0.872881 0.129319 0.316065
C206  C     C_R   0.688081 0.129525 0.870491 0.304925
C207  C     C_R   0.129324 0.872076 0.692045 0.307455
C208  C     C_R   0.872375 0.130679 0.301932 0.312092
C209  C     C_R   0.872834 0.307779 0.871483 0.287186
C210  C     C_R   0.129383 0.690196 0.131558 0.320463
C211  C     C_R   0.870361 0.697307 0.132102 0.303051
C212  C     C_R   0.134167 0.298462 0.869530 0.305607
C213  C     C_R   0.130774 0.692967 0.871872 0.300667
C214  C     C_R   0.851579 0.292036 0.147841 0.194344
C215  C     C_R   0.127465 0.307612 0.127443 0.320749
C216  C     C_R   0.871268 0.695086 0.872583 0.303188
C217  C     C_R   0.194844 0.628311 0.132223 0.304163
C218  C     C_R   0.809138 0.370945 0.870626 0.313154
C219  C     C_R   0.871910 0.628791 0.195077 0.310013
C220  C     C_R   0.130667 0.368497 0.811121 0.307246
C221  C     C_R   0.806757 0.628097 0.872107 0.299815
C222  C     C_R   0.192294 0.370476 0.128419 0.327999
C223  C     C_R   0.129971 0.627669 0.808104 0.307982
C224  C     C_R   0.866453 0.367497 0.196286 0.311403
C225  C     C_R   0.200121 0.365678 0.870104 0.319362
C226  C     C_R   0.808569 0.628419 0.130231 0.300369
C227  C     C_R   0.870027 0.367534 0.800602 0.292218
C228  C     C_R   0.132577 0.630483 0.201486 0.306778
C229  C     C_R   0.789899 0.360143 0.142229 0.310202
C230  C     C_R   0.196167 0.627552 0.871708 0.309432
C231  C     C_R   0.129762 0.370766 0.193475 0.298350
C232  C     C_R   0.872058 0.629045 0.807682 0.254926
C233  C     C_R   0.371451 0.873298 0.193867 0.317771
C234  C     C_R   0.627333 0.130697 0.802798 0.311950
C235  C     C_R   0.368393 0.804759 0.872183 0.315833
C236  C     C_R   0.627587 0.191247 0.129572 0.315946
C237  C     C_R   0.368293 0.128855 0.803178 0.302947
C238  C     C_R   0.627517 0.870152 0.195375 0.311811
C239  C     C_R   0.355650 0.212094 0.143025 0.290896
C240  C     C_R   0.629038 0.805755 0.871322 0.311436
C241  C     C_R   0.629764 0.130743 0.197534 0.303088
C242  C     C_R   0.369495 0.870303 0.810407 0.298939
C243  C     C_R   0.627968 0.197541 0.868326 0.270493
C244  C     C_R   0.370338 0.808837 0.130253 0.307813
C245  C     C_R   0.628893 0.870470 0.808152 0.300967
C246  C     C_R   0.367310 0.135374 0.193730 0.324418
C247  C     C_R   0.628459 0.802919 0.130968 0.306914
C248  C     C_R   0.371910 0.189409 0.873707 0.311636
C249  C     C_R   0.132219 0.809707 0.367114 0.313150
C250  C     C_R   0.870109 0.195573 0.628097 0.312448
C251  C     C_R   0.193044 0.127627 0.372145 0.316791
C252  C     C_R   0.806918 0.870210 0.627633 0.306802
C253  C     C_R   0.873236 0.194469 0.369808 0.313183
C254  C     C_R   0.130291 0.806342 0.627587 0.302255
C255  C     C_R   0.806637 0.870756 0.370641 0.308769
C256  C     C_R   0.202814 0.134957 0.631352 0.296966
C257  C     C_R   0.870868 0.803960 0.627705 0.307593
C258  C     C_R   0.129320 0.190944 0.370926 0.310847
C259  C     C_R   0.804181 0.130954 0.628575 0.305358
C260  C     C_R   0.198841 0.869559 0.365426 0.311404
C261  C     C_R   0.132652 0.197421 0.628126 0.311290
C262  C     C_R   0.872564 0.805789 0.371517 0.309102
C263  C     C_R   0.194580 0.872006 0.627009 0.307139
C264  C     C_R   0.810360 0.130222 0.369132 0.305515
C265  C     C_R   0.692332 0.629153 0.628093 0.305929
C266  C     C_R   0.300013 0.364945 0.369382 0.312287
C267  C     C_R   0.370068 0.629416 0.690840 0.297641
C268  C     C_R   0.627568 0.369933 0.305777 0.306120
C269  C     C_R   0.304465 0.626833 0.370701 0.306144
C270  C     C_R   0.699315 0.365390 0.632283 0.296034
C271  C     C_R   0.628184 0.629177 0.303445 0.310206
C272  C     C_R   0.371649 0.370326 0.691898 0.311062
C273  C     C_R   0.691940 0.370287 0.370540 0.305009
C274  C     C_R   0.303462 0.630622 0.627817 0.305729
C275  C     C_R   0.367668 0.366878 0.309818 0.324103
C276  C     C_R   0.627003 0.628339 0.693131 0.302746
C277  C     C_R   0.307086 0.369670 0.629273 0.296210
C278  C     C_R   0.694131 0.629062 0.368361 0.302650
C279  C     C_R   0.644394 0.354602 0.707423 0.220336
C280  C     C_R   0.369787 0.627063 0.305006 0.314769
C281  C     C_R   0.357126 0.290412 0.360426 0.289994
C282  C     C_R   0.627832 0.694027 0.627550 0.306482
C283  C     C_R   0.366866 0.699527 0.630166 0.305457
C284  C     C_R   0.626332 0.307963 0.372669 0.316739
C285  C     C_R   0.627903 0.692363 0.370163 0.309448
C286  C     C_R   0.370821 0.305778 0.628039 0.306487
C287  C     C_R   0.633208 0.300575 0.631675 0.313188
C288  C     C_R   0.369722 0.689866 0.370752 0.305474
O1    O     O_R   0.553790 0.256330 0.314650 -0.573963
O2    O     O_R   0.446210 0.743670 0.685350 -0.533021
O3    O     O_R   0.685350 0.256330 0.553790 -0.543748
O4    O     O_R   0.314650 0.743670 0.446210 -0.559425
O5    O     O_R   0.446210 0.256330 0.685350 -0.543379
O6    O     O_R   0.553790 0.743670 0.314650 -0.555706
O7    O     O_R   0.314650 0.256330 0.446210 -0.545475
O8    O     O_R   0.685350 0.743670 0.553790 -0.562071
O9    O     O_R   0.553790 0.743670 0.685350 -0.537227
O10   O     O_R   0.446210 0.256330 0.314650 -0.541067
O11   O     O_R   0.685350 0.743670 0.446210 -0.539871
O12   O     O_R   0.314650 0.256330 0.553790 -0.570393
O13   O     O_R   0.446210 0.743670 0.314650 -0.546330
O14   O     O_R   0.553790 0.256330 0.685350 -0.531919
O15   O     O_R   0.314650 0.743670 0.553790 -0.529574
O16   O     O_R   0.685350 0.256330 0.446210 -0.540725
O17   O     O_R   0.743670 0.685350 0.553790 -0.551011
O18   O     O_R   0.256330 0.314650 0.446210 -0.543778
O19   O     O_R   0.743670 0.446210 0.685350 -0.536065
O20   O     O_R   0.256330 0.553790 0.314650 -0.563316
O21   O     O_R   0.743670 0.314650 0.446210 -0.560440
O22   O     O_R   0.256330 0.685350 0.553790 -0.553852
O23   O     O_R   0.743670 0.553790 0.314650 -0.549583
O24   O     O_R   0.256330 0.446210 0.685350 -0.558651
O25   O     O_R   0.256330 0.314650 0.553790 -0.542688
O26   O     O_R   0.743670 0.685350 0.446210 -0.531044
O27   O     O_R   0.256330 0.553790 0.685350 -0.534617
O28   O     O_R   0.743670 0.446210 0.314650 -0.531620
O29   O     O_R   0.256330 0.685350 0.446210 -0.538340
O30   O     O_R   0.743670 0.314650 0.553790 -0.548822
O31   O     O_R   0.256330 0.446210 0.314650 -0.534459
O32   O     O_R   0.743670 0.553790 0.685350 -0.538912
O33   O     O_R   0.314650 0.446210 0.743670 -0.556117
O34   O     O_R   0.685350 0.553790 0.256330 -0.538558
O35   O     O_R   0.553790 0.314650 0.743670 -0.575360
O36   O     O_R   0.446210 0.685350 0.256330 -0.537731
O37   O     O_R   0.685350 0.553790 0.743670 -0.545274
O38   O     O_R   0.314650 0.446210 0.256330 -0.553903
O39   O     O_R   0.446210 0.685350 0.743670 -0.536977
O40   O     O_R   0.553790 0.314650 0.256330 -0.547766
O41   O     O_R   0.685350 0.446210 0.256330 -0.525910
O42   O     O_R   0.314650 0.553790 0.743670 -0.572878
O43   O     O_R   0.446210 0.314650 0.256330 -0.525323
O44   O     O_R   0.553790 0.685350 0.743670 -0.566478
O45   O     O_R   0.314650 0.553790 0.256330 -0.545470
O46   O     O_R   0.685350 0.446210 0.743670 -0.531107
O47   O     O_R   0.553790 0.685350 0.256330 -0.543539
O48   O     O_R   0.446210 0.314650 0.743670 -0.593612
O49   O     O_R   0.053790 0.756330 0.314650 -0.543044
O50   O     O_R   0.946210 0.243670 0.685350 -0.529681
O51   O     O_R   0.685350 0.756330 0.053790 -0.537384
O52   O     O_R   0.314650 0.243670 0.946210 -0.568519
O53   O     O_R   0.946210 0.756330 0.685350 -0.539950
O54   O     O_R   0.053790 0.243670 0.314650 -0.553408
O55   O     O_R   0.314650 0.756330 0.946210 -0.549525
O56   O     O_R   0.685350 0.243670 0.053790 -0.540509
O57   O     O_R   0.053790 0.243670 0.685350 -0.535984
O58   O     O_R   0.946210 0.756330 0.314650 -0.541661
O59   O     O_R   0.685350 0.243670 0.946210 -0.540837
O60   O     O_R   0.314650 0.756330 0.053790 -0.543023
O61   O     O_R   0.946210 0.243670 0.314650 -0.562959
O62   O     O_R   0.053790 0.756330 0.685350 -0.541586
O63   O     O_R   0.314650 0.243670 0.053790 -0.546077
O64   O     O_R   0.685350 0.756330 0.946210 -0.536074
O65   O     O_R   0.243670 0.685350 0.053790 -0.542931
O66   O     O_R   0.756330 0.314650 0.946210 -0.586041
O67   O     O_R   0.243670 0.946210 0.685350 -0.540105
O68   O     O_R   0.756330 0.053790 0.314650 -0.543590
O69   O     O_R   0.243670 0.314650 0.946210 -0.531307
O70   O     O_R   0.756330 0.685350 0.053790 -0.543153
O71   O     O_R   0.243670 0.053790 0.314650 -0.541145
O72   O     O_R   0.756330 0.946210 0.685350 -0.538365
O73   O     O_R   0.756330 0.314650 0.053790 -0.537132
O74   O     O_R   0.243670 0.685350 0.946210 -0.541610
O75   O     O_R   0.756330 0.053790 0.685350 -0.533546
O76   O     O_R   0.243670 0.946210 0.314650 -0.552690
O77   O     O_R   0.756330 0.685350 0.946210 -0.538930
O78   O     O_R   0.243670 0.314650 0.053790 -0.530810
O79   O     O_R   0.756330 0.946210 0.314650 -0.550958
O80   O     O_R   0.243670 0.053790 0.685350 -0.532334
O81   O     O_R   0.314650 0.946210 0.243670 -0.564869
O82   O     O_R   0.685350 0.053790 0.756330 -0.538921
O83   O     O_R   0.053790 0.314650 0.243670 -0.544645
O84   O     O_R   0.946210 0.685350 0.756330 -0.550803
O85   O     O_R   0.685350 0.053790 0.243670 -0.541440
O86   O     O_R   0.314650 0.946210 0.756330 -0.602382
O87   O     O_R   0.946210 0.685350 0.243670 -0.541734
O88   O     O_R   0.053790 0.314650 0.756330 -0.570071
O89   O     O_R   0.685350 0.946210 0.756330 -0.541911
O90   O     O_R   0.314650 0.053790 0.243670 -0.543919
O91   O     O_R   0.946210 0.314650 0.756330 -0.533501
O92   O     O_R   0.053790 0.685350 0.243670 -0.543114
O93   O     O_R   0.314650 0.053790 0.756330 -0.542762
O94   O     O_R   0.685350 0.946210 0.243670 -0.538988
O95   O     O_R   0.053790 0.685350 0.756330 -0.540826
O96   O     O_R   0.946210 0.314650 0.243670 -0.562474
O97   O     O_R   0.053790 0.256330 0.814650 -0.533668
O98   O     O_R   0.946210 0.743670 0.185350 -0.534814
O99   O     O_R   0.185350 0.256330 0.053790 -0.570000
O100  O     O_R   0.814650 0.743670 0.946210 -0.558633
O101  O     O_R   0.946210 0.256330 0.185350 -0.544915
O102  O     O_R   0.053790 0.743670 0.814650 -0.538972
O103  O     O_R   0.814650 0.256330 0.946210 -0.544489
O104  O     O_R   0.185350 0.743670 0.053790 -0.537978
O105  O     O_R   0.053790 0.743670 0.185350 -0.534222
O106  O     O_R   0.946210 0.256330 0.814650 -0.549836
O107  O     O_R   0.185350 0.743670 0.946210 -0.556679
O108  O     O_R   0.814650 0.256330 0.053790 -0.572307
O109  O     O_R   0.946210 0.743670 0.814650 -0.538477
O110  O     O_R   0.053790 0.256330 0.185350 -0.550160
O111  O     O_R   0.814650 0.743670 0.053790 -0.528409
O112  O     O_R   0.185350 0.256330 0.946210 -0.526915
O113  O     O_R   0.743670 0.185350 0.053790 -0.513399
O114  O     O_R   0.256330 0.814650 0.946210 -0.565442
O115  O     O_R   0.743670 0.946210 0.185350 -0.557401
O116  O     O_R   0.256330 0.053790 0.814650 -0.537009
O117  O     O_R   0.743670 0.814650 0.946210 -0.543905
O118  O     O_R   0.256330 0.185350 0.053790 -0.558962
O119  O     O_R   0.743670 0.053790 0.814650 -0.562673
O120  O     O_R   0.256330 0.946210 0.185350 -0.539323
O121  O     O_R   0.256330 0.814650 0.053790 -0.543255
O122  O     O_R   0.743670 0.185350 0.946210 -0.552594
O123  O     O_R   0.256330 0.053790 0.185350 -0.546961
O124  O     O_R   0.743670 0.946210 0.814650 -0.537509
O125  O     O_R   0.256330 0.185350 0.946210 -0.520761
O126  O     O_R   0.743670 0.814650 0.053790 -0.526604
O127  O     O_R   0.256330 0.946210 0.814650 -0.536573
O128  O     O_R   0.743670 0.053790 0.185350 -0.536858
O129  O     O_R   0.814650 0.946210 0.743670 -0.536203
O130  O     O_R   0.185350 0.053790 0.256330 -0.583060
O131  O     O_R   0.053790 0.814650 0.743670 -0.535058
O132  O     O_R   0.946210 0.185350 0.256330 -0.540653
O133  O     O_R   0.185350 0.053790 0.743670 -0.547094
O134  O     O_R   0.814650 0.946210 0.256330 -0.550750
O135  O     O_R   0.946210 0.185350 0.743670 -0.546811
O136  O     O_R   0.053790 0.814650 0.256330 -0.535250
O137  O     O_R   0.185350 0.946210 0.256330 -0.541898
O138  O     O_R   0.814650 0.053790 0.743670 -0.542798
O139  O     O_R   0.946210 0.814650 0.256330 -0.574978
O140  O     O_R   0.053790 0.185350 0.743670 -0.550408
O141  O     O_R   0.814650 0.053790 0.256330 -0.546891
O142  O     O_R   0.185350 0.946210 0.743670 -0.552418
O143  O     O_R   0.053790 0.185350 0.256330 -0.552269
O144  O     O_R   0.946210 0.814650 0.743670 -0.541467
O145  O     O_R   0.553790 0.756330 0.814650 -0.553037
O146  O     O_R   0.446210 0.243670 0.185350 -0.540835
O147  O     O_R   0.185350 0.756330 0.553790 -0.545025
O148  O     O_R   0.814650 0.243670 0.446210 -0.537247
O149  O     O_R   0.446210 0.756330 0.185350 -0.550969
O150  O     O_R   0.553790 0.243670 0.814650 -0.569812
O151  O     O_R   0.814650 0.756330 0.446210 -0.532212
O152  O     O_R   0.185350 0.243670 0.553790 -0.540060
O153  O     O_R   0.553790 0.243670 0.185350 -0.568877
O154  O     O_R   0.446210 0.756330 0.814650 -0.536834
O155  O     O_R   0.185350 0.243670 0.446210 -0.557597
O156  O     O_R   0.814650 0.756330 0.553790 -0.545045
O157  O     O_R   0.446210 0.243670 0.814650 -0.542388
O158  O     O_R   0.553790 0.756330 0.185350 -0.529599
O159  O     O_R   0.814650 0.243670 0.553790 -0.551917
O160  O     O_R   0.185350 0.756330 0.446210 -0.543999
O161  O     O_R   0.243670 0.185350 0.553790 -0.533509
O162  O     O_R   0.756330 0.814650 0.446210 -0.537140
O163  O     O_R   0.243670 0.446210 0.185350 -0.544816
O164  O     O_R   0.756330 0.553790 0.814650 -0.561752
O165  O     O_R   0.243670 0.814650 0.446210 -0.538953
O166  O     O_R   0.756330 0.185350 0.553790 -0.533255
O167  O     O_R   0.243670 0.553790 0.814650 -0.552237
O168  O     O_R   0.756330 0.446210 0.185350 -0.544032
O169  O     O_R   0.756330 0.814650 0.553790 -0.550079
O170  O     O_R   0.243670 0.185350 0.446210 -0.544033
O171  O     O_R   0.756330 0.553790 0.185350 -0.569073
O172  O     O_R   0.243670 0.446210 0.814650 -0.529396
O173  O     O_R   0.756330 0.185350 0.446210 -0.547482
O174  O     O_R   0.243670 0.814650 0.553790 -0.560261
O175  O     O_R   0.756330 0.446210 0.814650 -0.527844
O176  O     O_R   0.243670 0.553790 0.185350 -0.559445
O177  O     O_R   0.814650 0.446210 0.243670 -0.534411
O178  O     O_R   0.185350 0.553790 0.756330 -0.549786
O179  O     O_R   0.553790 0.814650 0.243670 -0.548353
O180  O     O_R   0.446210 0.185350 0.756330 -0.529266
O181  O     O_R   0.185350 0.553790 0.243670 -0.537841
O182  O     O_R   0.814650 0.446210 0.756330 -0.531575
O183  O     O_R   0.446210 0.185350 0.243670 -0.532497
O184  O     O_R   0.553790 0.814650 0.756330 -0.561053
O185  O     O_R   0.185350 0.446210 0.756330 -0.552546
O186  O     O_R   0.814650 0.553790 0.243670 -0.565814
O187  O     O_R   0.446210 0.814650 0.756330 -0.548753
O188  O     O_R   0.553790 0.185350 0.243670 -0.534975
O189  O     O_R   0.814650 0.553790 0.756330 -0.526000
O190  O     O_R   0.185350 0.446210 0.243670 -0.588017
O191  O     O_R   0.553790 0.185350 0.756330 -0.542887
O192  O     O_R   0.446210 0.814650 0.243670 -0.541329
Zn1   Zn    Zn3+2 0.500000 0.210530 0.289470 1.209347
Zn2   Zn    Zn3+2 0.500000 0.789470 0.710530 1.237740
Zn3   Zn    Zn3+2 0.710530 0.210530 0.500000 1.222541
Zn4   Zn    Zn3+2 0.289470 0.789470 0.500000 1.198872
Zn5   Zn    Zn3+2 0.500000 0.210530 0.710530 1.254591
Zn6   Zn    Zn3+2 0.500000 0.789470 0.289470 1.217768
Zn7   Zn    Zn3+2 0.289470 0.210530 0.500000 1.180689
Zn8   Zn    Zn3+2 0.710530 0.789470 0.500000 1.206590
Zn9   Zn    Zn3+2 0.789470 0.710530 0.500000 1.228578
Zn10  Zn    Zn3+2 0.210530 0.289470 0.500000 1.214838
Zn11  Zn    Zn3+2 0.789470 0.500000 0.710530 1.295192
Zn12  Zn    Zn3+2 0.210530 0.500000 0.289470 1.173930
Zn13  Zn    Zn3+2 0.789470 0.289470 0.500000 1.180071
Zn14  Zn    Zn3+2 0.210530 0.710530 0.500000 1.220640
Zn15  Zn    Zn3+2 0.789470 0.500000 0.289470 1.210188
Zn16  Zn    Zn3+2 0.210530 0.500000 0.710530 1.241320
Zn17  Zn    Zn3+2 0.289470 0.500000 0.789470 1.198237
Zn18  Zn    Zn3+2 0.710530 0.500000 0.210530 1.226587
Zn19  Zn    Zn3+2 0.500000 0.289470 0.789470 1.184732
Zn20  Zn    Zn3+2 0.500000 0.710530 0.210530 1.222409
Zn21  Zn    Zn3+2 0.710530 0.500000 0.789470 1.260585
Zn22  Zn    Zn3+2 0.289470 0.500000 0.210530 1.206408
Zn23  Zn    Zn3+2 0.500000 0.710530 0.789470 1.205761
Zn24  Zn    Zn3+2 0.500000 0.289470 0.210530 1.217913
Zn25  Zn    Zn3+2 0.000000 0.710530 0.289470 1.247000
Zn26  Zn    Zn3+2 0.000000 0.289470 0.710530 1.237458
Zn27  Zn    Zn3+2 0.710530 0.710530 0.000000 1.284296
Zn28  Zn    Zn3+2 0.289470 0.289470 0.000000 1.186994
Zn29  Zn    Zn3+2 0.000000 0.710530 0.710530 1.282310
Zn30  Zn    Zn3+2 0.000000 0.289470 0.289470 1.194959
Zn31  Zn    Zn3+2 0.289470 0.710530 0.000000 1.246611
Zn32  Zn    Zn3+2 0.710530 0.289470 0.000000 1.237492
Zn33  Zn    Zn3+2 0.289470 1.000000 0.710530 1.232395
Zn34  Zn    Zn3+2 0.710530 1.000000 0.289470 1.243859
Zn35  Zn    Zn3+2 0.289470 1.000000 0.289470 1.207802
Zn36  Zn    Zn3+2 0.710530 1.000000 0.710530 1.282898
Zn37  Zn    Zn3+2 0.000000 0.210530 0.789470 1.253477
Zn38  Zn    Zn3+2 0.000000 0.789470 0.210530 1.205432
Zn39  Zn    Zn3+2 0.210530 0.210530 0.000000 1.195957
Zn40  Zn    Zn3+2 0.789470 0.789470 0.000000 1.226675
Zn41  Zn    Zn3+2 0.000000 0.210530 0.210530 1.241347
Zn42  Zn    Zn3+2 0.000000 0.789470 0.789470 1.260345
Zn43  Zn    Zn3+2 0.789470 0.210530 0.000000 1.250465
Zn44  Zn    Zn3+2 0.210530 0.789470 0.000000 1.200437
Zn45  Zn    Zn3+2 0.789470 0.000000 0.210530 1.248739
Zn46  Zn    Zn3+2 0.210530 1.000000 0.789470 1.239829
Zn47  Zn    Zn3+2 0.789470 1.000000 0.789470 1.270589
Zn48  Zn    Zn3+2 0.210530 0.000000 0.210530 1.190755
S1    S     S_3+6 0.741272 0.095288 0.095389 0.099276
O193  O     O_2   0.790200 0.096392 0.122298 -0.205780
O194  O     O_2   0.717607 0.045787 0.096644 -0.273435
O195  O     O_3   0.756282 0.101781 0.035210 -0.456701
H1    H     H_    0.774843 0.071247 0.026221 0.385506
S2    S     S_3+6 0.251926 0.904020 0.903219 0.112143
O196  O     O_2   0.267239 0.956951 0.903379 -0.194056
O197  O     O_2   0.206104 0.896972 0.872224 -0.296451
O198  O     O_3   0.233299 0.895712 0.961926 -0.433033
H2    H     H_    0.197039 0.901545 0.961952 0.367027
S3    S     S_3+6 0.904105 0.095717 0.740918 0.102143
O199  O     O_2   0.877232 0.102773 0.789451 -0.280056
O200  O     O_2   0.901410 0.043682 0.724181 -0.222057
O201  O     O_3   0.964492 0.101725 0.754041 -0.431184
H3    H     H_    0.970891 0.077138 0.780485 0.387121
S4    S     S_3+6 0.119798 0.879280 0.226032 0.087178
O202  O     O_2   0.118070 0.831866 0.196325 -0.287843
O203  O     O_2   0.068819 0.900598 0.233660 -0.269202
O204  O     O_3   0.143606 0.919681 0.184049 -0.477823
H4    H     H_    0.128068 0.911236 0.151405 0.381491
S5    S     S_3+6 0.244083 0.101480 0.896998 0.100543
O205  O     O_2   0.203451 0.108735 0.859661 -0.264103
O206  O     O_2   0.256178 0.047903 0.903078 -0.224403
O207  O     O_3   0.214557 0.113194 0.950462 -0.497402
H5    H     H_    0.187990 0.088017 0.952704 0.363399
S6    S     S_3+6 0.737346 0.904260 0.091975 0.091392
O208  O     O_2   0.786794 0.879556 0.099482 -0.268295
O209  O     O_2   0.721342 0.901140 0.038944 -0.226697
O210  O     O_3   0.748075 0.963951 0.100252 -0.443439
H6    H     H_    0.781029 0.970361 0.085240 0.378605
S7    S     S_3+6 0.088847 0.088941 0.268579 0.114019
O211  O     O_2   0.036456 0.095778 0.285563 -0.186362
O212  O     O_2   0.094005 0.106763 0.216041 -0.283755
O213  O     O_3   0.099166 0.027331 0.268748 -0.473827
H7    H     H_    0.093370 0.015783 0.234328 0.396404
S8    S     S_3+6 0.903223 0.903588 0.743604 0.106489
O214  O     O_2   0.902118 0.956221 0.728711 -0.221690
O215  O     O_2   0.873983 0.895801 0.790441 -0.248081
O216  O     O_3   0.962318 0.896859 0.760225 -0.434814
H8    H     H_    0.966905 0.919402 0.788951 0.381128
S9    S     S_3+6 0.750231 0.902309 0.901163 0.111299
O217  O     O_2   0.794613 0.891808 0.868868 -0.252587
O218  O     O_2   0.739633 0.956451 0.901729 -0.214034
O219  O     O_3   0.770586 0.894245 0.959338 -0.445451
H9    H     H_    0.795921 0.920267 0.964655 0.375947
S10   S     S_3+6 0.276443 0.091619 0.091392 0.085511
O220  O     O_2   0.303687 0.044212 0.099556 -0.205659
O221  O     O_2   0.222469 0.086633 0.105084 -0.303957
O222  O     O_3   0.279496 0.101097 0.030613 -0.465378
H10   H     H_    0.250824 0.080616 0.019274 0.408164
S11   S     S_3+6 0.910161 0.910490 0.270960 0.106176
O223  O     O_2   0.892231 0.908306 0.218160 -0.283116
O224  O     O_2   0.903483 0.961049 0.292025 -0.199911
O225  O     O_3   0.971291 0.900909 0.270915 -0.464629
H11   H     H_    0.980831 0.911789 0.237197 0.406178
S12   S     S_3+6 0.087916 0.086425 0.709868 0.096894
O226  O     O_2   0.090321 0.081735 0.765332 -0.238081
O227  O     O_2   0.036669 0.100848 0.694367 -0.254642
O228  O     O_3   0.101618 0.032836 0.681903 -0.505457
H12   H     H_    0.069374 0.018588 0.671987 0.419996
S13   S     S_3+6 0.264029 0.907393 0.090525 0.110270
O229  O     O_2   0.283857 0.903091 0.038816 -0.200507
O230  O     O_2   0.213315 0.884662 0.094357 -0.293739
O231  O     O_3   0.255844 0.967706 0.099601 -0.432872
H13   H     H_    0.226244 0.976308 0.079687 0.384503
S14   S     S_3+6 0.711282 0.086862 0.914110 0.101858
O232  O     O_2   0.692549 0.036528 0.900613 -0.250225
O233  O     O_2   0.766989 0.087207 0.914123 -0.236874
O234  O     O_3   0.688984 0.100913 0.970646 -0.502991
H14   H     H_    0.683085 0.068928 0.987388 0.416168
S15   S     S_3+6 0.091512 0.906817 0.735724 0.083313
O235  O     O_2   0.040256 0.903714 0.715373 -0.232199
O236  O     O_2   0.094741 0.882727 0.785738 -0.271278
O237  O     O_3   0.100232 0.967008 0.746163 -0.454950
H15   H     H_    0.086285 0.973129 0.779646 0.386332
S16   S     S_3+6 0.902014 0.097792 0.248698 0.145845
O238  O     O_2   0.902875 0.044382 0.260912 -0.183183
O239  O     O_2   0.869626 0.105375 0.204044 -0.227062
O240  O     O_3   0.960577 0.106024 0.228967 -0.428721
H16   H     H_    0.959039 0.105223 0.192242 0.376781
S17   S     S_3+6 0.910377 0.267285 0.909096 0.099881
O241  O     O_2   0.904430 0.215036 0.890595 -0.221308
O242  O     O_2   0.963069 0.282884 0.903092 -0.242179
O243  O     O_3   0.899358 0.267345 0.970466 -0.516558
H17   H     H_    0.924485 0.289093 0.985566 0.376102
S18   S     S_3+6 0.091929 0.725081 0.090318 0.087520
O244  O     O_2   0.108646 0.778175 0.091454 -0.273484
O245  O     O_2   0.100088 0.701937 0.040604 -0.226082
O246  O     O_3   0.030880 0.725191 0.097513 -0.461162
H18   H     H_    0.021882 0.752725 0.075217 0.412464
S19   S     S_3+6 0.898396 0.751933 0.100519 0.096117
O247  O     O_2   0.903456 0.735930 0.047570 -0.217507
O248  O     O_2   0.862222 0.793833 0.107099 -0.270407
O249  O     O_3   0.952422 0.781017 0.110189 -0.497968
H19   H     H_    0.950344 0.812359 0.091361 0.364157
S20   S     S_3+6 0.104422 0.240817 0.894857 0.108726
O250  O     O_2   0.051110 0.253447 0.903420 -0.208794
O251  O     O_2   0.109947 0.201769 0.855452 -0.272375
O252  O     O_3   0.116949 0.208669 0.946381 -0.493833
H20   H     H_    0.093993 0.180190 0.946089 0.366602
S21   S     S_3+6 0.093937 0.738209 0.905527 0.105557
O253  O     O_2   0.098285 0.787356 0.879973 -0.277105
O254  O     O_2   0.042778 0.718153 0.902482 -0.215906
O255  O     O_3   0.100824 0.750573 0.965724 -0.433461
H21   H     H_    0.081507 0.781204 0.971736 0.379499
S22   S     S_3+6 0.859221 0.225925 0.142249 0.098431
O256  O     O_2   0.870293 0.204645 0.192077 -0.257823
O257  O     O_2   0.813725 0.199658 0.124630 -0.233646
O258  O     O_3   0.906587 0.213952 0.103032 -0.457112
H22   H     H_    0.910435 0.243911 0.082336 0.357466
S23   S     S_3+6 0.088620 0.266898 0.091613 0.083648
O259  O     O_2   0.096828 0.215123 0.110083 -0.286160
O260  O     O_2   0.035080 0.280739 0.098157 -0.262397
O261  O     O_3   0.097847 0.266674 0.030682 -0.466749
H23   H     H_    0.086125 0.233308 0.021647 0.406073
S24   S     S_3+6 0.902107 0.749499 0.901877 0.107310
O262  O     O_2   0.956233 0.739953 0.901664 -0.194953
O263  O     O_2   0.890365 0.793694 0.870195 -0.279316
O264  O     O_3   0.894922 0.768348 0.960884 -0.437127
H24   H     H_    0.899735 0.804743 0.960543 0.368657
S25   S     S_3+6 0.238520 0.594316 0.093827 0.109735
O265  O     O_2   0.216837 0.597121 0.043314 -0.203071
O266  O     O_2   0.288096 0.619593 0.096172 -0.287418
O267  O     O_3   0.250522 0.534357 0.100989 -0.429781
H25   H     H_    0.283693 0.528891 0.086185 0.378766
S26   S     S_3+6 0.774105 0.411825 0.909551 0.103023
O268  O     O_2   0.797247 0.461582 0.903520 -0.209327
O269  O     O_2   0.720965 0.412596 0.892753 -0.248975
O270  O     O_3   0.773722 0.400671 0.970487 -0.472179
H26   H     H_    0.737987 0.400568 0.978822 0.404912
S27   S     S_3+6 0.906633 0.596192 0.243478 0.109750
O271  O     O_2   0.959790 0.597637 0.228230 -0.196601
O272  O     O_2   0.899094 0.624043 0.291362 -0.291470
O273  O     O_3   0.898159 0.536744 0.257546 -0.427985
H27   H     H_    0.903837 0.534280 0.293777 0.373250
S28   S     S_3+6 0.088993 0.412068 0.784742 0.082259
O274  O     O_2   0.098070 0.459300 0.812653 -0.214982
O275  O     O_2   0.099940 0.418058 0.730126 -0.294711
O276  O     O_3   0.028418 0.399790 0.791413 -0.499230
H28   H     H_    0.015318 0.412542 0.760010 0.416488
S29   S     S_3+6 0.756022 0.596236 0.904313 0.112045
O277  O     O_2   0.765721 0.599202 0.958179 -0.191083
O278  O     O_2   0.708527 0.622779 0.892487 -0.268322
O279  O     O_3   0.745173 0.535694 0.897705 -0.427938
H29   H     H_    0.710272 0.530936 0.908019 0.384026
S30   S     S_3+6 0.224990 0.411963 0.090062 0.089683
O280  O     O_2   0.200410 0.460735 0.098073 -0.216784
O281  O     O_2   0.278690 0.413455 0.105167 -0.297045
O282  O     O_3   0.222787 0.402297 0.029261 -0.467102
H30   H     H_    0.249542 0.424542 0.018243 0.413422
S31   S     S_3+6 0.091135 0.592408 0.766875 0.109537
O283  O     O_2   0.040467 0.597127 0.788369 -0.237837
O284  O     O_2   0.093684 0.614097 0.715685 -0.254333
O285  O     O_3   0.099917 0.531888 0.759781 -0.436856
H31   H     H_    0.079175 0.522416 0.731004 0.396248
S32   S     S_3+6 0.903557 0.406510 0.238154 0.103084
O286  O     O_2   0.902011 0.456670 0.215061 -0.201544
O287  O     O_2   0.878830 0.405958 0.288327 -0.289459
O288  O     O_3   0.963517 0.398931 0.251701 -0.422671
H32   H     H_    0.968440 0.412263 0.285814 0.378685
S33   S     S_3+6 0.254253 0.398537 0.898104 0.091234
O289  O     O_2   0.296139 0.394297 0.861489 -0.282683
O290  O     O_2   0.236860 0.450771 0.904237 -0.226368
O291  O     O_3   0.283961 0.388352 0.951767 -0.500516
H33   H     H_    0.312213 0.411744 0.952023 0.359685
S34   S     S_3+6 0.770175 0.589883 0.091463 0.113594
O292  O     O_2   0.718043 0.609922 0.091337 -0.257745
O293  O     O_2   0.793884 0.594952 0.042055 -0.206104
O294  O     O_3   0.766665 0.528063 0.100817 -0.469402
H34   H     H_    0.731491 0.518947 0.094694 0.393056
S35   S     S_3+6 0.896308 0.395874 0.742757 0.098489
O295  O     O_2   0.857524 0.388512 0.704061 -0.231416
O296  O     O_2   0.903221 0.449106 0.754670 -0.243072
O297  O     O_3   0.948552 0.384317 0.710308 -0.501292
H35   H     H_    0.948823 0.408680 0.682989 0.375009
S36   S     S_3+6 0.103727 0.605343 0.259892 0.110193
O298  O     O_2   0.109301 0.644768 0.298963 -0.271233
O299  O     O_2   0.050400 0.597049 0.247110 -0.208048
O300  O     O_3   0.116199 0.554059 0.292266 -0.507497
H36   H     H_    0.088747 0.551083 0.316632 0.363555
S37   S     S_3+6 0.726764 0.381360 0.118321 0.094048
O301  O     O_2   0.737666 0.400826 0.067503 -0.278367
O302  O     O_2   0.694529 0.335944 0.116480 -0.266977
O303  O     O_3   0.686688 0.425218 0.139391 -0.459614
H37   H     H_    0.657317 0.423413 0.116831 0.374858
S38   S     S_3+6 0.249326 0.597720 0.903203 0.103943
O304  O     O_2   0.294663 0.628069 0.891868 -0.286860
O305  O     O_2   0.239283 0.598613 0.957266 -0.200403
O306  O     O_3   0.266096 0.538550 0.895589 -0.441531
H38   H     H_    0.298813 0.535665 0.912065 0.371012
S39   S     S_3+6 0.089605 0.408901 0.230713 0.098376
O307  O     O_2   0.040868 0.403353 0.204970 -0.193991
O308  O     O_2   0.088519 0.388577 0.282864 -0.307395
O309  O     O_3   0.098010 0.470072 0.235830 -0.446442
H39   H     H_    0.100227 0.473780 0.272237 0.395063
S40   S     S_3+6 0.904920 0.593092 0.761014 0.106261
O310  O     O_2   0.880465 0.599845 0.711412 -0.206665
O311  O     O_2   0.958890 0.600623 0.752989 -0.207388
O312  O     O_3   0.901075 0.534871 0.779898 -0.486012
H40   H     H_    0.930274 0.529892 0.801386 0.393471
S41   S     S_3+6 0.409123 0.907487 0.237683 0.099358
O313  O     O_2   0.403838 0.883932 0.287859 -0.292513
O314  O     O_2   0.461216 0.903424 0.219329 -0.211657
O315  O     O_3   0.400245 0.967924 0.246287 -0.439046
H41   H     H_    0.416979 0.975783 0.278024 0.378289
S42   S     S_3+6 0.598225 0.097993 0.749435 0.117608
O316  O     O_2   0.629875 0.107969 0.704613 -0.257089
O317  O     O_2   0.598294 0.044298 0.760691 -0.198264
O318  O     O_3   0.539377 0.105287 0.730767 -0.438702
H42   H     H_    0.537491 0.089346 0.697613 0.371565
S43   S     S_3+6 0.407208 0.762064 0.906429 0.103967
O319  O     O_2   0.406386 0.712428 0.881083 -0.278982
O320  O     O_2   0.457166 0.785350 0.904115 -0.211408
O321  O     O_3   0.399017 0.749389 0.966241 -0.434423
H43   H     H_    0.418757 0.719160 0.972407 0.376391
S44   S     S_3+6 0.588720 0.227375 0.089964 0.109165
O322  O     O_2   0.605736 0.280370 0.091009 -0.250846
O323  O     O_2   0.596436 0.204945 0.040081 -0.213761
O324  O     O_3   0.526818 0.225715 0.098316 -0.477515
H44   H     H_    0.514470 0.254681 0.079370 0.404351
S45   S     S_3+6 0.399566 0.100839 0.746902 0.104040
O325  O     O_2   0.393752 0.137843 0.705891 -0.237189
O326  O     O_2   0.452293 0.095519 0.763903 -0.237540
O327  O     O_3   0.390496 0.047856 0.714893 -0.511375
H45   H     H_    0.422023 0.041985 0.696407 0.370715
S46   S     S_3+6 0.597481 0.903228 0.247441 0.102781
O328  O     O_2   0.628706 0.895053 0.292855 -0.283541
O329  O     O_2   0.597455 0.956225 0.233323 -0.216471
O330  O     O_3   0.539083 0.895546 0.267017 -0.436414
H46   H     H_    0.536226 0.915868 0.297557 0.373502
S47   S     S_3+6 0.373887 0.279067 0.127679 0.079366
O331  O     O_2   0.377725 0.305905 0.176904 -0.296727
O332  O     O_2   0.423648 0.274157 0.102421 -0.282269
O333  O     O_3   0.344588 0.321286 0.090887 -0.469295
H47   H     H_    0.366453 0.351699 0.091556 0.376023
S48   S     S_3+6 0.595943 0.758526 0.906354 0.104237
O334  O     O_2   0.622725 0.710092 0.899995 -0.267931
O335  O     O_2   0.597677 0.775694 0.958742 -0.218045
O336  O     O_3   0.536350 0.745142 0.898361 -0.437430
H48   H     H_    0.530797 0.714141 0.916997 0.377027
S49   S     S_3+6 0.599388 0.098264 0.249912 0.089342
O337  O     O_2   0.596833 0.045652 0.233677 -0.226185
O338  O     O_2   0.632210 0.104315 0.294503 -0.277498
O339  O     O_3   0.542388 0.107385 0.273256 -0.489017
H49   H     H_    0.540728 0.086968 0.303597 0.369729
S50   S     S_3+6 0.414354 0.912289 0.787435 0.102431
O340  O     O_2   0.460805 0.902906 0.816409 -0.182718
O341  O     O_2   0.422950 0.903332 0.732694 -0.294772
O342  O     O_3   0.399344 0.971561 0.797273 -0.494219
H50   H     H_    0.396655 0.983007 0.763206 0.416893
S51   S     S_3+6 0.597040 0.248040 0.903327 0.107854
O343  O     O_2   0.595280 0.229477 0.954743 -0.177488
O344  O     O_2   0.628394 0.293946 0.901568 -0.287475
O345  O     O_3   0.538448 0.267745 0.895662 -0.419203
H51   H     H_    0.538467 0.303056 0.905626 0.382120
S52   S     S_3+6 0.409006 0.776369 0.088272 0.085704
O346  O     O_2   0.394900 0.722515 0.087224 -0.275670
O347  O     O_2   0.400120 0.800618 0.039380 -0.227040
O348  O     O_3   0.469906 0.780031 0.096452 -0.469209
H52   H     H_    0.481811 0.758690 0.069024 0.413960
S53   S     S_3+6 0.593094 0.908394 0.766627 0.115170
O349  O     O_2   0.597588 0.959204 0.787506 -0.203349
O350  O     O_2   0.614925 0.905300 0.715303 -0.271943
O351  O     O_3   0.532264 0.899829 0.760227 -0.427045
H53   H     H_    0.524217 0.912260 0.726680 0.391725
S54   S     S_3+6 0.408286 0.091016 0.220027 0.095094
O352  O     O_2   0.398587 0.087975 0.274876 -0.260870
O353  O     O_2   0.396962 0.042865 0.194790 -0.231250
O354  O     O_3   0.468842 0.098921 0.210896 -0.474635
H54   H     H_    0.482419 0.068502 0.225824 0.421756
S55   S     S_3+6 0.600975 0.747339 0.100229 0.095878
O355  O     O_2   0.597104 0.760446 0.046871 -0.226270
O356  O     O_2   0.636603 0.705361 0.107901 -0.261630
O357  O     O_3   0.545840 0.720365 0.109804 -0.491704
H55   H     H_    0.545157 0.691217 0.087492 0.366250
S56   S     S_3+6 0.409541 0.231842 0.910578 0.105130
O358  O     O_2   0.462212 0.215300 0.905462 -0.192999
O359  O     O_2   0.403328 0.282756 0.889207 -0.285962
O360  O     O_3   0.399046 0.236388 0.972575 -0.474729
H56   H     H_    0.405058 0.271384 0.982441 0.384582
S57   S     S_3+6 0.090370 0.784713 0.411132 0.092654
O361  O     O_2   0.093114 0.729163 0.409911 -0.247643
O362  O     O_2   0.104353 0.804136 0.461455 -0.253120
O363  O     O_3   0.032379 0.804364 0.402201 -0.486661
H57   H     H_    0.016310 0.800297 0.435011 0.426906
S58   S     S_3+6 0.903646 0.246202 0.597215 0.103075
O364  O     O_2   0.896153 0.292411 0.627593 -0.273810
O365  O     O_2   0.956443 0.230976 0.597413 -0.210298
O366  O     O_3   0.896253 0.264040 0.538395 -0.438915
H58   H     H_    0.912609 0.296757 0.536077 0.367615
S59   S     S_3+6 0.233354 0.089567 0.408827 0.103071
O367  O     O_2   0.213419 0.038386 0.403957 -0.203830
O368  O     O_2   0.285036 0.092711 0.387809 -0.279567
O369  O     O_3   0.237422 0.099308 0.469940 -0.450545
H59   H     H_    0.272194 0.087866 0.477733 0.391062
S60   S     S_3+6 0.758056 0.904787 0.596117 0.098858
O370  O     O_2   0.710529 0.897409 0.624375 -0.275897
O371  O     O_2   0.774238 0.957167 0.598039 -0.219391
O372  O     O_3   0.742733 0.897497 0.536749 -0.437255
H60   H     H_    0.711540 0.916329 0.532523 0.376281
S61   S     S_3+6 0.906650 0.239532 0.407581 0.099145
O373  O     O_2   0.880426 0.288478 0.403815 -0.294246
O374  O     O_2   0.904104 0.219797 0.459119 -0.210505
O375  O     O_3   0.966558 0.252677 0.399266 -0.434062
H61   H     H_    0.972047 0.284289 0.417173 0.376913
S62   S     S_3+6 0.095150 0.758727 0.594964 0.102065
O376  O     O_2   0.102117 0.710242 0.621467 -0.266367
O377  O     O_2   0.043328 0.775994 0.598233 -0.229127
O378  O     O_3   0.101252 0.746235 0.534355 -0.437733
H62   H     H_    0.076526 0.720020 0.527515 0.384036
S63   S     S_3+6 0.763519 0.906151 0.408392 0.099534
O379  O     O_2   0.713321 0.882020 0.406467 -0.276693
O380  O     O_2   0.785532 0.903753 0.458890 -0.220727
O381  O     O_3   0.752528 0.966162 0.399786 -0.435116
H63   H     H_    0.721558 0.973232 0.418387 0.379177
S64   S     S_3+6 0.262034 0.106359 0.607132 0.108413
O382  O     O_2   0.299594 0.111124 0.647991 -0.251878
O383  O     O_2   0.249865 0.053205 0.597003 -0.212232
O384  O     O_3   0.296348 0.120211 0.556806 -0.498906
H64   H     H_    0.323916 0.096032 0.556504 0.362450
S65   S     S_3+6 0.902045 0.750155 0.598001 0.105859
O385  O     O_2   0.955417 0.762950 0.597213 -0.216809
O386  O     O_2   0.892845 0.705820 0.630273 -0.270904
O387  O     O_3   0.894701 0.729614 0.539524 -0.438386
H65   H     H_    0.915307 0.699242 0.537038 0.372688
S66   S     S_3+6 0.085684 0.217758 0.411807 0.095068
O388  O     O_2   0.084531 0.273052 0.405492 -0.267838
O389  O     O_2   0.036619 0.195070 0.399252 -0.238211
O390  O     O_3   0.095989 0.203144 0.471087 -0.482594
H66   H     H_    0.063872 0.210700 0.487615 0.424173
S67   S     S_3+6 0.752026 0.097991 0.598446 0.090494
O391  O     O_2   0.767890 0.045377 0.596880 -0.232431
O392  O     O_2   0.706977 0.104916 0.630808 -0.249220
O393  O     O_3   0.729692 0.105699 0.540790 -0.486301
H67   H     H_    0.699313 0.085129 0.538987 0.371280
S68   S     S_3+6 0.243816 0.903477 0.403966 0.105799
O394  O     O_2   0.221255 0.903218 0.454504 -0.199587
O395  O     O_2   0.291913 0.875261 0.402525 -0.299793
O396  O     O_3   0.261263 0.962334 0.396995 -0.428075
H68   H     H_    0.291914 0.966011 0.416831 0.374437
S69   S     S_3+6 0.097227 0.247196 0.596894 0.088350
O397  O     O_2   0.045347 0.228649 0.596417 -0.232288
O398  O     O_2   0.102102 0.293160 0.628124 -0.281557
O399  O     O_3   0.104353 0.267906 0.538535 -0.475592
H69   H     H_    0.080430 0.295606 0.534963 0.374557
S70   S     S_3+6 0.905733 0.758911 0.407767 0.086297
O400  O     O_2   0.904317 0.777812 0.460085 -0.236451
O401  O     O_2   0.878013 0.710942 0.402526 -0.262597
O402  O     O_3   0.965011 0.742507 0.398680 -0.479566
H70   H     H_    0.969009 0.710513 0.416087 0.378047
S71   S     S_3+6 0.244160 0.906506 0.595572 0.110971
O403  O     O_2   0.230346 0.960030 0.597190 -0.197416
O404  O     O_2   0.291270 0.898007 0.624135 -0.291779
O405  O     O_3   0.259260 0.897553 0.536238 -0.429899
H71   H     H_    0.295702 0.901929 0.534351 0.372350
S72   S     S_3+6 0.781388 0.087737 0.409230 0.086598
O406  O     O_2   0.726092 0.086773 0.400148 -0.262742
O407  O     O_2   0.804730 0.038792 0.397742 -0.242230
O408  O     O_3   0.792338 0.097587 0.469299 -0.470129
H72   H     H_    0.780351 0.064786 0.484801 0.417170
S73   S     S_3+6 0.738502 0.592947 0.595359 0.103135
O409  O     O_2   0.787674 0.599169 0.620666 -0.268860
O410  O     O_2   0.721228 0.540701 0.598101 -0.214174
O411  O     O_3   0.749807 0.600815 0.535769 -0.437026
H73   H     H_    0.780864 0.582372 0.529187 0.383865
S74   S     S_3+6 0.252645 0.402318 0.402651 0.085518
O412  O     O_2   0.274927 0.452836 0.403995 -0.222876
O413  O     O_2   0.206161 0.400392 0.371791 -0.300418
O414  O     O_3   0.231209 0.395777 0.460917 -0.454169
H74   H     H_    0.199096 0.413662 0.461679 0.377092
S75   S     S_3+6 0.408075 0.593879 0.733216 0.107113
O415  O     O_2   0.459410 0.597747 0.713081 -0.195046
O416  O     O_2   0.404319 0.616796 0.784091 -0.288581
O417  O     O_3   0.399588 0.533409 0.741528 -0.423503
H75   H     H_    0.405910 0.527505 0.777254 0.387003
S76   S     S_3+6 0.593637 0.406293 0.260680 0.089795
O418  O     O_2   0.596087 0.457349 0.280768 -0.230094
O419  O     O_2   0.619572 0.402283 0.211473 -0.262963
O420  O     O_3   0.533363 0.398681 0.248682 -0.463535
H76   H     H_    0.527255 0.417986 0.218213 0.384058
S77   S     S_3+6 0.255869 0.595352 0.406340 0.109186
O421  O     O_2   0.272772 0.596446 0.459083 -0.193892
O422  O     O_2   0.208619 0.624333 0.400247 -0.291778
O423  O     O_3   0.239776 0.536343 0.397689 -0.430195
H77   H     H_    0.203023 0.535330 0.399668 0.371973
S78   S     S_3+6 0.751579 0.399236 0.601884 0.116835
O424  O     O_2   0.734353 0.451400 0.596891 -0.186204
O425  O     O_2   0.794591 0.394708 0.636555 -0.260211
O426  O     O_3   0.779207 0.390500 0.547177 -0.487786
H78   H     H_    0.815673 0.392386 0.551853 0.358951
S79   S     S_3+6 0.597930 0.597193 0.250831 0.105670
O427  O     O_2   0.628986 0.606033 0.205352 -0.278437
O428  O     O_2   0.597706 0.543915 0.263362 -0.208714
O429  O     O_3   0.539131 0.604947 0.232718 -0.438168
H79   H     H_    0.536329 0.587072 0.200708 0.371151
S80   S     S_3+6 0.414480 0.413411 0.717255 0.115320
O430  O     O_2   0.407555 0.460168 0.688404 -0.179066
O431  O     O_2   0.403597 0.421937 0.771080 -0.287024
O432  O     O_3   0.474154 0.397240 0.710310 -0.490701
H80   H     H_    0.489306 0.401656 0.743492 0.400603
S81   S     S_3+6 0.733658 0.408764 0.404497 0.083028
O433  O     O_2   0.784802 0.403642 0.382135 -0.293097
O434  O     O_2   0.713397 0.460034 0.399432 -0.211821
O435  O     O_3   0.739636 0.403175 0.464832 -0.435765
H81   H     H_    0.774462 0.414143 0.468326 0.398894
S82   S     S_3+6 0.249869 0.598369 0.598673 0.111850
O436  O     O_2   0.261017 0.544602 0.597750 -0.187552
O437  O     O_2   0.205625 0.608213 0.631271 -0.289242
O438  O     O_3   0.229525 0.606162 0.540518 -0.430749
H82   H     H_    0.194060 0.596722 0.541137 0.373193
S83   S     S_3+6 0.411625 0.409782 0.287057 0.090191
O439  O     O_2   0.414488 0.407029 0.231338 -0.239249
O440  O     O_2   0.397842 0.460986 0.303139 -0.263549
O441  O     O_3   0.466388 0.396852 0.312760 -0.505511
H83   H     H_    0.481806 0.429393 0.319355 0.420923
S84   S     S_3+6 0.595791 0.593527 0.743114 0.110094
O442  O     O_2   0.597576 0.539423 0.730475 -0.216572
O443  O     O_2   0.624524 0.603382 0.789932 -0.286787
O444  O     O_3   0.536596 0.602214 0.758941 -0.424559
H84   H     H_    0.535096 0.597897 0.795411 0.375588
S85   S     S_3+6 0.276421 0.410589 0.588491 0.113377
O445  O     O_2   0.221100 0.407106 0.595288 -0.239395
O446  O     O_2   0.294097 0.461399 0.600093 -0.241661
O447  O     O_3   0.292344 0.399450 0.529503 -0.481084
H85   H     H_    0.296607 0.432322 0.514016 0.423690
S86   S     S_3+6 0.741011 0.596294 0.404171 0.094642
O448  O     O_2   0.789035 0.624414 0.401163 -0.279395
O449  O     O_2   0.718847 0.597181 0.454543 -0.224126
O450  O     O_3   0.758346 0.537422 0.397593 -0.431705
H86   H     H_    0.787339 0.533397 0.419758 0.372855
S87   S     S_3+6 0.630934 0.371440 0.774290 0.083292
O451  O     O_2   0.679358 0.379165 0.800666 -0.270892
O452  O     O_2   0.601367 0.418865 0.772350 -0.202505
O453  O     O_3   0.601526 0.334169 0.814690 -0.449419
H87   H     H_    0.619719 0.302879 0.812804 0.360076
S88   S     S_3+6 0.406585 0.594296 0.258310 0.097759
O454  O     O_2   0.400676 0.620701 0.209600 -0.276152
O455  O     O_2   0.458774 0.597363 0.276200 -0.230466
O456  O     O_3   0.398972 0.534169 0.245567 -0.442363
H88   H     H_    0.428644 0.524553 0.226046 0.387327
S89   S     S_3+6 0.378371 0.224819 0.377575 0.082181
O457  O     O_2   0.380903 0.195510 0.329888 -0.274191
O458  O     O_2   0.429031 0.233063 0.399706 -0.296462
O459  O     O_3   0.354646 0.182299 0.417622 -0.466120
H89   H     H_    0.383520 0.159952 0.424859 0.363637
S90   S     S_3+6 0.594148 0.744324 0.596317 0.106529
O460  O     O_2   0.540627 0.730605 0.597316 -0.202529
O461  O     O_2   0.602767 0.790965 0.625720 -0.291908
O462  O     O_3   0.602665 0.760601 0.537232 -0.431736
H90   H     H_    0.596847 0.796781 0.536041 0.370900
S91   S     S_3+6 0.395801 0.757761 0.604880 0.092597
O463  O     O_2   0.389513 0.796731 0.644297 -0.273531
O464  O     O_2   0.449198 0.745161 0.596927 -0.226961
O465  O     O_3   0.383886 0.790397 0.553109 -0.500005
H91   H     H_    0.408480 0.817542 0.552793 0.366314
S92   S     S_3+6 0.590705 0.266417 0.411004 0.096026
O466  O     O_2   0.611157 0.214972 0.404054 -0.292175
O467  O     O_2   0.596857 0.282782 0.463766 -0.203685
O468  O     O_3   0.529302 0.263985 0.402185 -0.462222
H92   H     H_    0.520671 0.229580 0.411430 0.394108
S93   S     S_3+6 0.593202 0.735015 0.408771 0.101909
O469  O     O_2   0.596676 0.714264 0.459844 -0.209398
O470  O     O_2   0.616679 0.785344 0.405799 -0.280720
O471  O     O_3   0.533025 0.744726 0.400034 -0.433920
H93   H     H_    0.524908 0.774201 0.420437 0.385874
S94   S     S_3+6 0.411255 0.271384 0.587401 0.119204
O472  O     O_2   0.460492 0.295980 0.592958 -0.195356
O473  O     O_2   0.413737 0.218251 0.603814 -0.265718
O474  O     O_3   0.398857 0.272231 0.525707 -0.482272
H94   H     H_    0.410531 0.240233 0.511972 0.390613
S95   S     S_3+6 0.598830 0.249594 0.599651 0.112467
O475  O     O_2   0.605782 0.203983 0.630685 -0.278313
O476  O     O_2   0.545595 0.263842 0.598645 -0.195963
O477  O     O_3   0.606026 0.230004 0.540864 -0.433707
H95   H     H_    0.586836 0.198880 0.538646 0.373740
S96   S     S_3+6 0.412304 0.719702 0.411129 0.086844
O478  O     O_2   0.460275 0.693152 0.402240 -0.217377
O479  O     O_2   0.416009 0.773822 0.398168 -0.288486
O480  O     O_3   0.402388 0.716088 0.472512 -0.480513
H96   H     H_    0.423000 0.743557 0.484744 0.413605

loop_
_geom_bond_atom_site_label_1
_geom_bond_atom_site_label_2
_ccdc_geom_bond_type
C45   O69   A    
S62   O377  D    
O216  H8    S    
O68   Zn34  S    
O158  Zn20  S    
S69   O397  D    
C237  S45   S    
C63   O87   A    
C77   O192  A    
O480  H96   S    
O110  Zn41  S    
S15   O235  D    
S1    O194  D    
S50   O342  S    
O66   Zn32  S    
C172  C273  A    
C230  S38   S    
C37   O61   A    
O6    Zn6   S    
O86   Zn33  S    
C282  S90   S    
S13   O229  D    
O363  H57   S    
S41   O315  S    
C45   C129  S    
C96   C145  S    
C163  C258  A    
C39   O63   A    
S54   O352  D    
C234  S42   S    
C81   C156  S    
S38   O305  D    
C74   C159  S    
C116  C228  A    
C37   O132  A    
C12   O25   A    
C154  C243  A    
C189  C269  A    
C38   O131  A    
S27   O272  D    
O12   Zn7   S    
C66   C106  S    
C194  S2    S    
S21   O254  D    
C30   C114  S    
O201  H3    S    
C137  C214  A    
C41   O65   A    
C84   O156  A    
S62   O378  S    
O59   Zn32  S    
C54   C134  S    
C99   C195  A    
C140  C240  A    
C183  C267  A    
C76   O173  A    
S18   O246  S    
O357  H55   S    
C26   C126  S    
C100  C196  A    
C97   C193  A    
O18   Zn10  S    
S34   O292  D    
O315  H41   S    
S73   O411  S    
O17   Zn9   S    
C151  C223  A    
C202  S10   S    
O42   Zn17  S    
C126  C195  A    
C51   O138  A    
C57   C109  S    
O182  Zn11  S    
C7    O18   A    
C93   C147  S    
C76   O148  A    
S38   O306  S    
C287  S95   S    
C52   O137  A    
S39   O309  S    
C27   C143  S    
S64   O384  S    
C171  C267  A    
O225  H11   S    
C28   C144  S    
O141  Zn45  S    
O117  Zn40  S    
S8    O216  S    
O144  Zn42  S    
C159  C246  A    
O105  Zn38  S    
S84   O443  D    
C210  S18   S    
O372  H60   S    
C128  C232  A    
S82   O438  S    
C72   C124  S    
S19   O248  D    
C95   C146  S    
S6    O209  D    
C18   O45   A    
O97   Zn37  S    
C271  S79   S    
C28   O125  A    
S65   O386  D    
C147  C226  A    
C199  S7    S    
O123  Zn48  S    
S30   O281  D    
S47   O332  D    
C178  C285  A    
S25   O267  S    
C167  C255  A    
C42   O66   A    
S36   O300  S    
O162  Zn8   S    
C60   C128  S    
C90   O164  A    
S89   O459  S    
C191  C281  A    
S76   O419  D    
O57   Zn26  S    
O62   Zn29  S    
C50   O74   A    
C69   O116  A    
O35   Zn19  S    
S90   O460  D    
C122  C262  A    
S9    O219  S    
C70   O115  A    
O34   Zn18  S    
O210  H6    S    
C123  C223  A    
C8    O17   A    
C134  C215  A    
O70   Zn27  S    
O183  Zn1   S    
S6    O210  S    
O178  Zn16  S    
C122  C203  A    
S37   O303  S    
O5    Zn5   S    
S87   O452  D    
O7    Zn7   S    
S10   O220  D    
O192  Zn6   S    
C219  S27   S    
C45   O112  A    
S30   O282  S    
C275  S83   S    
S55   O355  D    
C73   C160  S    
S28   O276  S    
C179  C275  A    
C184  C284  A    
O43   Zn24  S    
S68   O394  D    
C154  C234  A    
C71   O102  A    
S16   O239  D    
S46   O328  D    
C242  S50   S    
S55   O357  S    
C1    O1    A    
S71   O404  D    
O28   Zn15  S    
O351  H53   S    
C80   O161  A    
O22   Zn14  S    
C182  C279  A    
C273  S81   S    
C68   C116  S    
S29   O277  D    
O146  Zn24  S    
C44   C112  S    
C59   O83   A    
C89   C150  S    
S91   O464  D    
C211  S19   S    
S69   O399  S    
C65   O89   A    
O258  H22   S    
C43   O142  A    
S26   O269  D    
C73   O145  A    
O44   Zn23  S    
O477  H95   S    
O29   Zn14  S    
S23   O259  D    
S14   O234  S    
C177  C272  A    
O166  Zn3   S    
O167  Zn17  S    
S48   O335  D    
S13   O231  S    
C29   C113  S    
C16   O21   A    
O435  H81   S    
C7    O7    A    
S85   O447  S    
O51   Zn27  S    
C82   O154  A    
C58   C110  S    
C149  C232  A    
S30   O280  D    
O74   Zn31  S    
O49   Zn25  S    
S12   O226  D    
C267  S75   S    
O408  H72   S    
C186  C274  A    
C11   O11   A    
C69   C101  S    
C141  C210  A    
O246  H18   S    
O1    Zn1   S    
C64   C120  S    
S72   O408  S    
S40   O310  D    
C78   O191  A    
C103  C251  A    
S4    O202  D    
O56   Zn32  S    
C23   O31   A    
O261  H23   S    
C198  S6    S    
S5    O206  D    
C106  C202  A    
O109  Zn42  S    
C173  C269  A    
O85   Zn34  S    
S51   O344  D    
C11   C187  S    
C127  C215  A    
C92   O177  A    
S70   O401  D    
C125  C249  A    
C8    C192  S    
C40   C140  S    
C207  S15   S    
C63   O98   A    
S60   O371  D    
C24   O37   A    
C258  S66   S    
S95   O477  S    
C217  S25   S    
C2    C183  S    
S44   O324  S    
O393  H67   S    
O198  H2    S    
C157  C248  A    
C98   C242  A    
C47   O71   A    
C186  C283  A    
C151  C230  A    
C155  C242  A    
C114  C258  A    
C20   O33   A    
C243  S51   S    
C37   C117  S    
O195  H1    S    
C130  C226  A    
C172  C268  A    
S14   O232  D    
C146  C227  A    
S15   O237  S    
O276  H28   S    
S2    O196  D    
S35   O295  D    
C49   O73   A    
C48   O129  A    
C79   C167  S    
O120  Zn48  S    
O426  H78   S    
O112  Zn39  S    
O82   Zn36  S    
C80   C168  S    
C96   O181  A    
O191  Zn5   S    
C35   O59   A    
C93   O186  A    
S70   O402  S    
C109  C233  A    
O102  Zn42  S    
C34   O58   A    
C138  C213  A    
C220  S28   S    
O282  H30   S    
C104  C252  A    
O93   Zn33  S    
O52   Zn28  S    
O240  H16   S    
C175  C278  A    
O39   Zn23  S    
C117  C208  A    
C71   O95   A    
S1    O195  S    
C279  S87   S    
O405  H71   S    
C274  S82   S    
S31   O284  D    
O243  H17   S    
O234  H14   S    
O129  Zn47  S    
C183  C283  A    
C68   O92   A    
C10   C179  S    
C71   C123  S    
S56   O358  D    
C164  C252  A    
C40   O64   A    
O45   Zn22  S    
S93   O471  S    
S80   O431  D    
C33   C121  S    
C224  S32   S    
C101  C197  A    
C262  S70   S    
C10   O10   A    
S72   O406  D    
C280  S88   S    
C29   O144  A    
C19   O23   A    
O252  H20   S    
C168  C256  A    
S68   O396  S    
C30   O143  A    
C10   O43   A    
C259  S67   S    
S49   O337  D    
C88   O160  A    
O441  H83   S    
C142  C218  A    
C181  C288  A    
C92   C152  S    
C77   C153  S    
C182  C287  A    
O249  H19   S    
O160  Zn14  S    
C132  C244  A    
O169  Zn8   S    
O15   Zn4   S    
S91   O463  D    
C263  S71   S    
C134  C222  A    
S2    O198  S    
C255  S63   S    
O188  Zn1   S    
C265  S73   S    
S79   O427  D    
S40   O312  S    
O173  Zn3   S    
C15   O15   A    
O8    Zn8   S    
O181  Zn12  S    
O342  H50   S    
C206  S14   S    
O165  Zn4   S    
O100  Zn40  S    
C173  C280  A    
O127  Zn46  S    
C174  C279  A    
C121  C261  A    
C132  C205  A    
O4    Zn4   S    
C260  S68   S    
S53   O349  D    
S3    O201  S    
C213  S21   S    
C104  C200  A    
C17   O19   A    
C6    O47   A    
O450  H86   S    
C169  C276  A    
C43   C111  S    
C190  C270  A    
S12   O228  S    
C170  C275  A    
C65   C105  S    
S20   O250  D    
S81   O434  D    
S8    O215  D    
C40   O117  A    
O318  H42   S    
S7    O213  S    
S78   O425  D    
C94   C148  S    
S83   O441  S    
S58   O365  D    
C62   O86   A    
C86   O158  A    
O133  Zn46  S    
C248  S56   S    
C101  C237  A    
S4    O204  S    
C138  C230  A    
O121  Zn44  S    
O124  Zn47  S    
S92   O466  D    
C52   O76   A    
O32   Zn11  S    
S88   O455  D    
O177  Zn15  S    
S85   O446  D    
O468  H92   S    
S63   O380  D    
O465  H91   S    
S50   O341  D    
O89   Zn36  S    
O54   Zn30  S    
C52   C100  S    
O384  H64   S    
S68   O395  D    
O75   Zn36  S    
O92   Zn25  S    
S36   O299  D    
C120  C212  A    
C278  S86   S    
C109  C205  A    
C15   O22   A    
C107  C203  A    
O474  H94   S    
O80   Zn33  S    
S78   O426  S    
C63   C119  S    
O90   Zn35  S    
C105  C201  A    
C35   O122  A    
C99   C259  A    
S33   O291  S    
C5    C177  S    
O291  H33   S    
O11   Zn8   S    
S1    O193  D    
O108  Zn43  S    
C107  C255  A    
S64   O382  D    
O113  Zn43  S    
C228  S36   S    
C44   O141  A    
C27   O126  A    
S18   O245  D    
C54   O99   A    
O2    Zn2   S    
C105  C245  A    
O429  H79   S    
O98   Zn38  S    
C204  S12   S    
S11   O225  S    
C128  C216  A    
C82   C155  S    
S86   O449  D    
S24   O263  D    
C43   O67   A    
C240  S48   S    
C13   C181  S    
O153  Zn24  S    
C123  C213  A    
C236  S44   S    
S82   O436  D    
O14   Zn5   S    
C158  C247  A    
C180  C282  A    
C48   O72   A    
C111  C207  A    
C180  C276  A    
S17   O243  S    
S32   O286  D    
O10   Zn1   S    
C67   O106  A    
O9    Zn2   S    
O339  H49   S    
S10   O222  S    
O125  Zn39  S    
O345  H51   S    
C31   O114  A    
O71   Zn35  S    
O24   Zn16  S    
S56   O360  S    
C59   O110  A    
C188  C286  A    
O231  H13   S    
C139  C202  A    
C46   C130  S    
C245  S53   S    
S47   O331  D    
S32   O288  S    
O101  Zn41  S    
C32   O113  A    
C30   O54   A    
C75   O147  A    
C270  S78   S    
C119  C211  A    
S7    O211  D    
C114  C199  A    
S59   O369  S    
O23   Zn15  S    
O366  H58   S    
C2    O2    A    
S22   O258  S    
C144  C248  A    
C118  C207  A    
S23   O261  S    
C266  S74   S    
S77   O421  D    
S67   O393  S    
C135  C194  A    
C161  C249  A    
C83   O155  A    
C20   C176  S    
O136  Zn38  S    
O148  Zn13  S    
C156  C236  A    
C136  C236  A    
C27   O51   A    
S57   O363  S    
S72   O407  D    
C36   O121  A    
C165  C253  A    
C192  C265  A    
S42   O316  D    
C117  C253  A    
C197  S5    S    
S73   O410  D    
C232  S40   S    
C95   O175  A    
O456  H88   S    
S43   O321  S    
C86   O179  A    
O137  Zn48  S    
S29   O278  D    
S42   O318  S    
S53   O351  S    
C129  C225  A    
C89   O190  A    
S39   O308  D    
S48   O334  D    
O76   Zn35  S    
C253  S61   S    
C142  C209  A    
S86   O448  D    
C85   O157  A    
C21   O42   A    
S20   O252  S    
C108  C256  A    
O170  Zn7   S    
C32   O56   A    
C14   O35   A    
O159  Zn13  S    
C249  S57   S    
S83   O439  D    
C214  S22   S    
S74   O412  D    
C119  C219  A    
O179  Zn6   S    
C60   O109  A    
S89   O458  D    
S89   O457  D    
O348  H52   S    
S92   O468  S    
C160  C245  A    
S75   O417  S    
O471  H93   S    
C38   O62   A    
C100  C260  A    
O270  H26   S    
O264  H24   S    
C174  C270  A    
C53   O100  A    
S85   O445  D    
O255  H21   S    
C5    O48   A    
C285  S93   S    
S25   O266  D    
O190  Zn12  S    
O128  Zn45  S    
O30   Zn13  S    
C85   C157  S    
C190  C287  A    
O3    Zn3   S    
O138  Zn47  S    
S44   O322  D    
O88   Zn26  S    
C152  C229  A    
O147  Zn14  S    
C281  S89   S    
C16   C185  S    
S88   O456  S    
C41   C141  S    
C146  C218  A    
S90   O461  D    
S9    O218  D    
S3    O200  D    
C58   O119  A    
O67   Zn33  S    
C2    O39   A    
C276  S84   S    
O46   Zn21  S    
S96   O478  D    
C98   C194  A    
O19   Zn11  S    
O135  Zn37  S    
S79   O429  S    
C53   O77   A    
S37   O302  D    
C25   C125  S    
O154  Zn23  S    
S35   O297  S    
C116  C210  A    
C141  C217  A    
O31   Zn12  S    
S45   O326  D    
C144  C197  A    
S71   O403  D    
C79   O151  A    
S52   O346  D    
C67   O91   A    
O77   Zn27  S    
C133  C221  A    
O324  H44   S    
S55   O356  D    
C46   O111  A    
C269  S77   S    
C250  S58   S    
O187  Zn2   S    
O79   Zn34  S    
C9    O9    A    
O149  Zn20  S    
O118  Zn39  S    
O115  Zn45  S    
O26   Zn9   S    
C80   O152  A    
S62   O376  D    
S69   O398  D    
C176  C272  A    
C244  S52   S    
O330  H46   S    
C6    C178  S    
C150  C222  A    
S26   O270  S    
C7    C191  S    
O447  H85   S    
C113  C257  A    
C72   O101  A    
C17   O46   A    
O163  Zn22  S    
C241  S49   S    
O99   Zn39  S    
C188  C277  A    
S13   O230  D    
S52   O348  S    
C93   O171  A    
C15   C186  S    
C261  S69   S    
S46   O330  S    
C47   C103  S    
S38   O304  D    
C115  C209  A    
S59   O367  D    
O116  Zn46  S    
C221  S29   S    
S27   O273  S    
O387  H65   S    
C121  C204  A    
C51   O75   A    
O381  H63   S    
C49   O108  A    
C75   O174  A    
S31   O283  D    
C32   C136  S    
C62   O127  A    
C78   C154  S    
C124  C214  A    
C8    O8    A    
C22   O41   A    
O333  H47   S    
C21   C171  S    
C33   O140  A    
S10   O221  D    
C4    O4    A    
C56   O80   A    
C41   O104  A    
O184  Zn2   S    
C150  C231  A    
S11   O223  D    
O219  H9    S    
S4    O203  D    
S61   O375  S    
C277  S85   S    
O228  H12   S    
O103  Zn43  S    
O438  H82   S    
S5    O205  D    
C205  S13   S    
O172  Zn17  S    
C222  S30   S    
C77   O149  A    
O396  H68   S    
S51   O343  D    
C169  C265  A    
S54   O353  D    
C69   O93   A    
S61   O374  D    
S57   O362  D    
C165  C264  A    
C153  C233  A    
C76   C165  S    
S95   O476  D    
O58   Zn25  S    
S65   O385  D    
C166  C263  A    
C64   O97   A    
O114  Zn44  S    
C148  C220  A    
C39   O118  A    
O152  Zn10  S    
C79   O162  A    
C209  S17   S    
C161  C260  A    
C157  C237  A    
S84   O442  D    
S40   O311  D    
C162  C259  A    
C21   O27   A    
C65   O124  A    
S14   O233  D    
S46   O329  D    
C152  C224  A    
O131  Zn42  S    
C22   O28   A    
C66   O123  A    
S19   O249  S    
S2    O197  D    
S21   O255  S    
O69   Zn28  S    
S41   O314  D    
S6    O208  D    
S75   O415  D    
C57   O120  A    
O168  Zn18  S    
S67   O391  D    
S65   O387  S    
C17   C174  S    
O20   Zn12  S    
C19   O34   A    
O414  H74   S    
C288  S96   S    
S47   O333  S    
O16   Zn3   S    
C143  C198  A    
C83   C163  S    
C179  C281  A    
C36   C132  S    
S66   O388  D    
O174  Zn4   S    
O53   Zn29  S    
O50   Zn26  S    
C163  C251  A    
C61   C97   S    
C148  C225  A    
C112  C264  A    
S92   O467  D    
S76   O418  D    
S66   O390  S    
O63   Zn28  S    
C181  C280  A    
O420  H76   S    
C66   O90   A    
O417  H75   S    
O222  H10   S    
S22   O256  D    
C11   O26   A    
O132  Zn41  S    
C238  S46   S    
C225  S33   S    
S74   O414  S    
O48   Zn19  S    
S24   O264  S    
C126  C250  A    
C164  C257  A    
S49   O339  S    
S56   O359  D    
S87   O453  S    
C91   O167  A    
S63   O379  D    
S93   O470  D    
C196  S4    S    
C140  C201  A    
O375  H61   S    
O180  Zn5   S    
O40   Zn24  S    
O294  H34   S    
C212  S20   S    
O33   Zn17  S    
C91   O178  A    
C215  S23   S    
S16   O238  D    
C113  C200  A    
C143  C247  A    
S28   O275  D    
C75   C166  S    
C233  S41   S    
S87   O451  D    
C25   O136  A    
O72   Zn36  S    
O321  H43   S    
O176  Zn22  S    
C26   O135  A    
C133  C216  A    
C1    O40   A    
C31   O55   A    
C156  C241  A    
C34   O139  A    
O204  H4    S    
C97   C241  A    
O300  H36   S    
C72   O96   A    
O60   Zn31  S    
O360  H56   S    
C26   O50   A    
S91   O465  S    
C145  C217  A    
O459  H89   S    
O107  Zn44  S    
C162  C250  A    
O285  H31   S    
C61   O128  A    
O402  H70   S    
O61   Zn30  S    
C159  C239  A    
S26   O268  D    
S77   O423  S    
C38   C118  S    
O111  Zn40  S    
O81   Zn35  S    
S21   O253  D    
C81   O188  A    
C257  S65   S    
C4    O29   A    
C13   O36   A    
C94   O185  A    
O156  Zn9   S    
C110  C234  A    
C203  S11   S    
O411  H73   S    
C78   O150  A    
C223  S31   S    
C88   O165  A    
C284  S92   S    
C25   O49   A    
O38   Zn22  S    
O297  H35   S    
C33   O57   A    
O164  Zn21  S    
C170  C266  A    
C35   C131  S    
S57   O361  D    
C286  S94   S    
O237  H15   S    
S27   O271  D    
C74   O146  A    
C3    O3    A    
O312  H40   S    
S22   O257  D    
O150  Zn19  S    
S20   O251  D    
O25   Zn10  S    
C68   O105  A    
S11   O224  D    
S7    O212  D    
O171  Zn18  S    
C218  S26   S    
O306  H38   S    
C115  C227  A    
S83   O440  D    
S58   O366  S    
O130  Zn48  S    
O354  H54   S    
S81   O433  D    
C87   O159  A    
S80   O430  D    
O36   Zn20  S    
O369  H59   S    
S5    O207  S    
C5    O5    A    
C102  C198  A    
C74   O183  A    
S51   O345  S    
C177  C286  A    
C60   O84   A    
C94   O172  A    
S70   O400  D    
S34   O294  S    
C88   C161  S    
C12   C188  S    
C46   O70   A    
C178  C271  A    
S60   O370  D    
C239  S47   S    
C3    O30   A    
C81   O153  A    
O140  Zn37  S    
C254  S62   S    
O327  H45   S    
C67   C115  S    
C118  C254  A    
C19   C175  S    
C166  C254  A    
C53   C133  S    
O267  H25   S    
S84   O444  S    
C56   C108  S    
O288  H32   S    
O126  Zn40  S    
C130  C211  A    
S24   O262  D    
S33   O290  D    
O157  Zn19  S    
O96   Zn30  S    
S19   O247  D    
S82   O437  D    
S96   O480  S    
C246  S54   S    
C70   C102  S    
S88   O454  D    
C137  C229  A    
C168  C261  A    
C59   C127  S    
C64   O88   A    
S94   O474  S    
C120  C220  A    
O65   Zn31  S    
C55   O79   A    
C264  S72   S    
O55   Zn31  S    
C23   C170  S    
S49   O338  D    
O378  H62   S    
C12   O12   A    
C62   C98   S    
O189  Zn11  S    
C13   O13   A    
C44   O68   A    
C48   C104  S    
C16   O16   A    
S71   O405  S    
S61   O373  D    
C149  C221  A    
O186  Zn15  S    
C85   O180  A    
C90   C149  S    
C208  S16   S    
O175  Zn21  S    
S44   O323  D    
O399  H69   S    
S17   O242  D    
C1    C184  S    
S32   O287  D    
C185  C284  A    
O213  H7    S    
S31   O285  S    
S34   O293  D    
O84   Zn29  S    
S43   O319  D    
C51   C99   S    
C145  C228  A    
C229  S37   S    
C102  C238  A    
S12   O227  D    
S17   O241  D    
O94   Zn34  S    
S66   O389  D    
C139  C239  A    
C283  S91   S    
O155  Zn10  S    
C124  C224  A    
C24   O32   A    
C147  C219  A    
C112  C208  A    
O91   Zn26  S    
C14   O14   A    
O122  Zn43  S    
O21   Zn13  S    
C58   O82   A    
C95   O182  A    
C216  S24   S    
C192  C282  A    
O303  H37   S    
S36   O298  D    
C87   O166  A    
O78   Zn28  S    
S41   O313  D    
C92   O168  A    
S37   O301  D    
S16   O240  S    
C55   C107  S    
S59   O368  D    
C158  C238  A    
C84   O169  A    
O139  Zn38  S    
S23   O260  D    
C42   C142  S    
C185  C273  A    
S67   O392  D    
C235  S43   S    
S77   O422  D    
O432  H80   S    
O185  Zn16  S    
C155  C235  A    
C20   O24   A    
C87   C162  S    
C127  C231  A    
O462  H90   S    
S94   O472  D    
C18   O20   A    
C110  C206  A    
S52   O347  D    
C103  C199  A    
O47   Zn20  S    
C106  C246  A    
C129  C212  A    
S42   O317  D    
C24   C169  S    
C86   C158  S    
C111  C263  A    
S73   O409  D    
C14   C182  S    
C9    C180  S    
S54   O354  S    
S48   O336  S    
C251  S59   S    
O207  H5    S    
S43   O320  D    
S93   O469  D    
O151  Zn9   S    
C252  S60   S    
C28   O52   A    
S53   O350  D    
C70   O94   A    
C184  C268  A    
C191  C266  A    
S45   O327  S    
O13   Zn6   S    
O161  Zn7   S    
C193  S1    S    
O336  H48   S    
C89   O163  A    
C200  S8    S    
C175  C271  A    
S3    O199  D    
S81   O435  S    
S8    O214  D    
C54   O78   A    
O87   Zn25  S    
C195  S3    S    
S78   O424  D    
C256  S64   S    
C187  C278  A    
O37   Zn21  S    
C3    C190  S    
S90   O462  S    
S58   O364  D    
S74   O413  D    
S33   O289  D    
C160  C240  A    
C272  S80   S    
O95   Zn29  S    
C47   O130  A    
C4    C189  S    
S80   O432  S    
C82   O187  A    
O41   Zn18  S    
C231  S39   S    
O423  H77   S    
S75   O416  D    
C84   C164  S    
C56   O133  A    
C226  S34   S    
S63   O381  S    
C201  S9    S    
S39   O307  D    
C6    O6    A    
C73   O184  A    
S50   O340  D    
C9    O44   A    
S29   O279  S    
C247  S55   S    
S76   O420  S    
S25   O265  D    
S94   O473  D    
O64   Zn27  S    
S60   O372  S    
O104  Zn44  S    
C50   C138  S    
O279  H29   S    
C36   O60   A    
S86   O450  S    
S15   O236  D    
O27   Zn16  S    
C125  C196  A    
O142  Zn46  S    
C136  C193  A    
C108  C204  A    
C171  C274  A    
C131  C243  A    
C176  C277  A    
C91   C151  S    
C187  C285  A    
C23   O38   A    
O119  Zn47  S    
S9    O217  D    
O145  Zn23  S    
O83   Zn30  S    
C83   O170  A    
C55   O134  A    
C227  S35   S    
O143  Zn41  S    
O134  Zn45  S    
S96   O479  D    
O453  H87   S    
C135  C235  A    
S79   O428  D    
S64   O383  D    
S18   O244  D    
S35   O296  D    
C31   C135  S    
C96   O176  A    
O106  Zn37  S    
C167  C262  A    
C49   C137  S    
C61   O85   A    
O444  H84   S    
C18   C173  S    
S28   O274  D    
C90   O189  A    
C34   C122  S    
O309  H39   S    
C268  S76   S    
C189  C288  A    
S95   O475  D    
C153  C244  A    
C50   O107  A    
C42   O103  A    
C57   O81   A    
O73   Zn32  S    
O390  H66   S    
S45   O325  D    
C131  C206  A    
O273  H27   S    
C39   C139  S    
C22   C172  S    
C29   O53   A    
