data_mof_unit_57892.cif
_audit_creation_date              2012-12-10T20:25:44-0500
_audit_creation_method            fapswitch 2.2
_symmetry_space_group_name_H-M    P1
_symmetry_Int_Tables_number       1
_space_group_crystal_system       triclinic
_cell_length_a                    8.629571
_cell_length_b                    10.650755
_cell_length_c                    9.880024
_cell_angle_alpha                 90.425029
_cell_angle_beta                  98.427537
_cell_angle_gamma                 90.060962
_cell_volume                      898.254939327

loop_
_atom_site_label
_atom_site_type_symbol
_atom_type_description
_atom_site_fract_x
_atom_site_fract_y
_atom_site_fract_z
_atom_type_partial_charge
C1    C     C_R   0.497965 0.260242 0.499547 0.972487
C2    C     C_R   0.374080 0.454575 0.912261 0.100874
C3    C     C_3   0.310011 0.324075 0.899084 1.017958
C4    C     C_R   0.201700 0.500084 0.464585 0.876814
C5    C     C_3   0.308068 0.325594 0.052799 0.098501
C6    C     C_R   0.494026 0.739544 0.499925 0.945160
C7    C     C_R   0.798306 0.500849 0.535378 0.885866
C8    C     C_2   0.037732 0.493884 0.445654 0.295855
C9    C     C_2   0.962202 0.508945 0.554007 0.357442
C10   C     C_R   0.557914 0.064250 0.612859 0.035962
C11   C     C_R   0.483854 0.128442 0.500032 -0.355655
C12   C     C_R   0.374080 0.935271 0.399372 0.372475
C13   C     C_R   0.381548 0.065586 0.398370 0.641835
C14   C     C_R   0.474704 0.871085 0.502104 -0.331733
C15   C     C_R   0.553841 0.936432 0.613611 -0.076975
C16   C     C_3   0.720374 0.927608 0.681030 1.094517
C17   C     C_3   0.724867 0.070361 0.679675 0.138513
C18   C     C_R   0.373756 0.455099 0.054790 0.098275
C19   C     C_R   0.617707 0.555313 0.087396 -0.017034
C20   C     C_R   0.617710 0.555330 0.943549 -0.013594
F1    F     F_    0.964875 0.466800 0.316627 -0.614687
F2    F     F_    0.163163 0.317705 0.821103 -0.600252
F3    F     F_    0.414310 0.237422 0.859508 -0.622231
F4    F     F_    0.034985 0.537721 0.682584 -0.589587
F5    F     F_    0.288999 0.129998 0.299787 -0.622036
F6    F     F_    0.733787 0.875838 0.810398 -0.600257
F7    F     F_    0.818292 0.872445 0.598592 -0.681838
H1    H     H_    0.714169 0.598128 0.902133 0.212810
H2    H     H_    0.388282 0.257178 0.111681 0.181816
H3    H     H_    0.805214 0.112565 0.613801 0.101807
H4    H     H_    0.714121 0.598232 0.154083 0.206728
H5    H     H_    0.118648 0.238794 0.077585 0.400744
H6    H     H_    0.248444 0.790667 0.330215 0.340556
H7    H     H_    0.850188 0.125735 0.846702 0.378822
N1    N     N_R   0.498950 0.499140 0.142680 -0.137671
N2    N     N_R   0.498950 0.499180 0.857030 -0.131862
O1    O     O_R   0.500020 0.316790 0.614690 -0.543010
O2    O     O_3   0.271532 0.875723 0.298662 -0.655625
O3    O     O_3   0.736667 0.123924 0.810727 -0.612532
O4    O     O_R   0.500000 0.316760 0.385350 -0.599503
O5    O     O_R   0.271760 0.500010 0.587850 -0.578428
O6    O     O_R   0.271740 0.499970 0.358500 -0.555155
O7    O     O_R   0.500000 0.683240 0.614650 -0.587825
O8    O     O_R   0.499980 0.683210 0.385310 -0.616274
O9    O     O_R   0.728260 0.500030 0.641500 -0.575027
O10   O     O_R   0.728240 0.499990 0.412150 -0.602499
O11   O     O_3   0.156291 0.326894 0.087299 -0.603008
Zn1   Zn    Zn3+2 0.500010 0.500020 0.653130 1.107914
Zn2   Zn    Zn3+2 0.499990 0.499980 0.346870 1.060570

loop_
_geom_bond_atom_site_label_1
_geom_bond_atom_site_label_2
_ccdc_geom_bond_type
O8    Zn2   S    
N1    Zn2   S    
C9    F4    S    
N2    Zn1   S    
C2    C18   A    
C5    O11   S    
O7    Zn1   S    
C19   C20   A    
C10   C17   S    
C3    F3    S    
H6    O2    S    
C1    C11   S    
C1    O1    A    
C4    C8    S    
C19   H4    S    
C16   F7    S    
C2    C3    S    
C19   N1    A    
O1    Zn1   S    
C12   O2    S    
C17   H3    S    
C11   C13   A    
O10   Zn2   S    
C13   F5    S    
C4    O6    A    
C7    O9    A    
C18   N1    A    
O5    Zn1   S    
C12   C14   A    
C8    F1    S    
C5    H2    S    
C6    O7    A    
C16   F6    S    
H5    O11   S    
C6    C14   S    
C4    O5    A    
O6    Zn2   S    
C15   C16   S    
C20   N2    A    
C7    O10   A    
C12   C13   A    
C10   C11   A    
O9    Zn1   S    
C2    N2    A    
C7    C9    S    
C17   O3    S    
C14   C15   A    
C8    C9    D    
C3    F2    S    
C6    O8    A    
C5    C18   S    
C20   H1    S    
C1    O4    A    
C10   C15   A    
H7    O3    S    
O4    Zn2   S    
C16   C17   S    
C3    C5    S    
