data_mof_unit_29256.cif
_audit_creation_date              2013-03-05T16:04:55-0500
_audit_creation_method            fapswitch 2.2
_symmetry_space_group_name_H-M    P1
_symmetry_Int_Tables_number       1
_space_group_crystal_system       triclinic
_cell_length_a                    22.536514
_cell_length_b                    20.648374
_cell_length_c                    14.982622
_cell_angle_alpha                 89.998581
_cell_angle_beta                  98.901461
_cell_angle_gamma                 89.999593
_cell_volume                      6888.07691298

loop_
_atom_site_label
_atom_site_type_symbol
_atom_site_description
_atom_site_fract_x
_atom_site_fract_y
_atom_site_fract_z
_atom_type_partial_charge
O1    O     O_R   0.541320 0.066090 0.608930 -0.586414
O2    O     O_R   0.458680 0.933910 0.391070 -0.617469
O3    O     O_R   0.458680 0.066090 0.391070 -0.586423
O4    O     O_R   0.541320 0.933910 0.608930 -0.617493
O5    O     O_R   0.041320 0.566090 0.608930 -0.586431
O6    O     O_R   0.958680 0.433910 0.391070 -0.617491
O7    O     O_R   0.958680 0.566090 0.391070 -0.586406
O8    O     O_R   0.041320 0.433910 0.608930 -0.617559
O9    O     O_R   0.572880 0.066110 0.470280 -0.523444
O10   O     O_R   0.427120 0.933890 0.529720 -0.530875
O11   O     O_R   0.427120 0.066110 0.529720 -0.523437
O12   O     O_R   0.572880 0.933890 0.470280 -0.530887
O13   O     O_R   0.072880 0.566110 0.470280 -0.523426
O14   O     O_R   0.927120 0.433890 0.529720 -0.530864
O15   O     O_R   0.927120 0.566110 0.529720 -0.523457
O16   O     O_R   0.072880 0.433890 0.470280 -0.530873
C1    C     C_R   0.576524 0.087443 0.554347 0.913123
C2    C     C_R   0.425615 0.910632 0.447646 0.953444
C3    C     C_R   0.423476 0.087444 0.445653 0.913126
C4    C     C_R   0.574386 0.910631 0.552355 0.953450
C5    C     C_R   0.076524 0.587444 0.554346 0.913127
C6    C     C_R   0.925616 0.410630 0.447648 0.953476
C7    C     C_R   0.923475 0.587443 0.445652 0.913129
C8    C     C_R   0.074387 0.410631 0.552357 0.953423
Zn1   Zn    Zn3+2 0.478910 1.000000 0.592580 1.024155
Zn2   Zn    Zn3+2 0.521090 1.000000 0.407420 1.024170
Zn3   Zn    Zn3+2 0.978910 0.500000 0.592580 1.024139
Zn4   Zn    Zn3+2 0.021090 0.500000 0.407420 1.024165
C9    C     C_R   0.605893 0.848681 0.573725 -0.411653
C10   C     C_R   0.375985 0.134001 0.406546 -0.401686
C11   C     C_R   0.394108 0.848683 0.426275 -0.411645
C12   C     C_R   0.624014 0.133998 0.593457 -0.401692
C13   C     C_R   0.105901 0.348685 0.573740 -0.411668
C14   C     C_R   0.875984 0.633998 0.406542 -0.401686
C15   C     C_R   0.894114 0.348679 0.426286 -0.411657
C16   C     C_R   0.124013 0.634000 0.593453 -0.401688
C17   C     C_R   0.602362 0.735880 0.622101 0.492481
C18   C     C_R   0.332938 0.208163 0.285418 0.453977
C19   C     C_R   0.397633 0.735886 0.377886 0.492470
C20   C     C_R   0.667065 0.208144 0.714597 0.454012
C21   C     C_R   0.102384 0.235885 0.622138 0.492480
C22   C     C_R   0.832933 0.708152 0.285405 0.454000
C23   C     C_R   0.897648 0.235877 0.377919 0.492503
C24   C     C_R   0.167064 0.708152 0.714586 0.453973
C25   C     C_R   0.584381 0.800890 0.628495 0.307976
C26   C     C_R   0.378838 0.165504 0.322799 0.289494
C27   C     C_R   0.415616 0.800896 0.371497 0.308002
C28   C     C_R   0.621163 0.165492 0.677207 0.289496
C29   C     C_R   0.084399 0.300896 0.628525 0.308057
C30   C     C_R   0.878835 0.665497 0.322793 0.289494
C31   C     C_R   0.915629 0.300887 0.371524 0.307966
C32   C     C_R   0.121162 0.665498 0.677201 0.289498
C33   C     C_R   0.650436 0.832147 0.522954 0.532354
C34   C     C_R   0.325789 0.144947 0.449799 0.507732
C35   C     C_R   0.349565 0.832147 0.477044 0.532354
C36   C     C_R   0.674210 0.144948 0.550205 0.507764
C37   C     C_R   0.150446 0.332151 0.522974 0.532341
C38   C     C_R   0.825785 0.644943 0.449791 0.507709
C39   C     C_R   0.849569 0.332145 0.477056 0.532352
C40   C     C_R   0.174208 0.644950 0.550198 0.507730
C41   C     C_R   0.660055 0.767028 0.503222 -0.114913
C42   C     C_R   0.277224 0.182387 0.407316 -0.106061
C43   C     C_R   0.339944 0.767027 0.496771 -0.114932
C44   C     C_R   0.722777 0.182380 0.592694 -0.105998
C45   C     C_R   0.160065 0.267032 0.503243 -0.114906
C46   C     C_R   0.777220 0.682381 0.407305 -0.106086
C47   C     C_R   0.839948 0.267026 0.496788 -0.114909
C48   C     C_R   0.222775 0.682383 0.592683 -0.106079
C49   C     C_R   0.639041 0.718549 0.557419 -0.185696
C50   C     C_R   0.284476 0.220387 0.331584 -0.171919
C51   C     C_R   0.360953 0.718552 0.442565 -0.185707
C52   C     C_R   0.715526 0.220372 0.668432 -0.171875
C53   C     C_R   0.139051 0.218553 0.557441 -0.185674
C54   C     C_R   0.784471 0.720378 0.331570 -0.171882
C55   C     C_R   0.860964 0.218547 0.442594 -0.185670
C56   C     C_R   0.215526 0.720377 0.668421 -0.171932
C57   C     C_R   0.694998 0.749385 0.436476 -0.063207
C58   C     C_R   0.224720 0.189824 0.446423 -0.067225
C59   C     C_R   0.305000 0.749382 0.563515 -0.063230
C60   C     C_R   0.775281 0.189820 0.553588 -0.067274
C61   C     C_R   0.195004 0.249390 0.436493 -0.063232
C62   C     C_R   0.724714 0.689819 0.446411 -0.067267
C63   C     C_R   0.805002 0.249383 0.563528 -0.063203
C64   C     C_R   0.275279 0.689820 0.553575 -0.067238
C65   C     C_R   0.199684 0.139532 0.492576 0.595082
C66   C     C_R   0.700544 0.787325 0.359042 0.571901
C67   C     C_R   0.800311 0.139531 0.507426 0.595105
C68   C     C_R   0.299458 0.787317 0.640953 0.571859
C69   C     C_R   0.699683 0.639529 0.492574 0.595089
C70   C     C_R   0.200548 0.287331 0.359059 0.571868
C71   C     C_R   0.300306 0.639532 0.507405 0.595078
C72   C     C_R   0.799455 0.287319 0.640964 0.571907
C73   C     C_R   0.156175 0.154033 0.546568 -0.256704
C74   C     C_R   0.743896 0.770953 0.305380 -0.269647
C75   C     C_R   0.843824 0.154030 0.453440 -0.256640
C76   C     C_R   0.256105 0.770948 0.694614 -0.269615
C77   C     C_R   0.656176 0.654031 0.546568 -0.256596
C78   C     C_R   0.243900 0.270962 0.305396 -0.269628
C79   C     C_R   0.343810 0.654035 0.453405 -0.256565
C80   C     C_R   0.756102 0.270945 0.694625 -0.269681
H1    H     H_    0.137782 0.114940 0.581953 0.197358
H2    H     H_    0.747789 0.800415 0.246732 0.196423
H3    H     H_    0.862207 0.114939 0.418040 0.197331
H4    H     H_    0.252215 0.800406 0.753264 0.196549
H5    H     H_    0.637793 0.614941 0.581971 0.197351
H6    H     H_    0.247792 0.300425 0.246749 0.196500
H7    H     H_    0.362187 0.614947 0.417992 0.197346
H8    H     H_    0.752210 0.300403 0.753273 0.196379
N1    N     N_R   0.549130 1.000000 0.284090 -0.156670
N2    N     N_R   0.450870 1.000000 0.715910 -0.156666
N3    N     N_R   0.049130 0.500000 0.284090 -0.156661
N4    N     N_R   0.950870 0.500000 0.715910 -0.156664
C81   C     C_R   0.631638 0.002713 0.200612 0.309848
C82   C     C_R   0.368344 0.002683 0.799358 0.310444
C83   C     C_R   0.131651 0.502710 0.200633 0.310197
C84   C     C_R   0.868361 0.502691 0.799388 0.309683
C85   C     C_R   0.609564 0.004246 0.284267 0.529669
C86   C     C_R   0.390432 0.004223 0.715712 0.529503
C87   C     C_R   0.109566 0.504240 0.284280 0.529567
C88   C     C_R   0.890435 0.504233 0.715732 0.529741
C89   C     C_R   0.509208 0.993616 0.207839 -0.143353
C90   C     C_R   0.490784 0.993623 0.792171 -0.143450
C91   C     C_R   0.009216 0.493612 0.207830 -0.143447
C92   C     C_R   0.990792 0.493628 0.792164 -0.143413
C93   C     C_R   0.529009 0.985855 0.123763 -0.115443
C94   C     C_R   0.470974 0.985862 0.876242 -0.115658
C95   C     C_R   0.029026 0.485852 0.123759 -0.115575
C96   C     C_R   0.970992 0.485846 0.876238 -0.115319
C97   C     C_R   0.591653 0.987304 0.121662 -0.140980
C98   C     C_R   0.408329 0.987322 0.878332 -0.140632
C99   C     C_R   0.091670 0.487324 0.121666 -0.140730
C100  C     C_R   0.908348 0.487277 0.878337 -0.141057
C101  C     C_R   0.488633 0.979223 0.041711 0.072864
C102  C     C_R   0.511345 0.979216 0.958296 0.072715
C103  C     C_R   0.988656 0.479198 0.041705 0.072652
C104  C     C_R   0.011368 0.479214 0.958290 0.072803
C105  C     C_R   0.573619 0.972740 0.959758 -0.329686
C106  C     C_R   0.426356 0.972790 0.040250 -0.330179
C107  C     C_R   0.073646 0.472788 0.959752 -0.329996
C108  C     C_R   0.926384 0.472707 0.040241 -0.329572
C109  C     C_R   0.613206 0.974018 0.040150 0.504263
C110  C     C_R   0.386771 0.974084 0.959854 0.504533
C111  C     C_R   0.113231 0.474079 0.040148 0.504405
C112  C     C_R   0.886797 0.473974 0.959848 0.504205
H9    H     H_    0.537403 0.994857 0.784469 0.172572
H10   H     H_    0.462592 0.994836 0.215557 0.172564
H11   H     H_    0.037409 0.494879 0.784454 0.172510
H12   H     H_    0.962596 0.494834 0.215532 0.172554
H13   H     H_    0.593376 0.965175 0.899616 0.151762
H14   H     H_    0.406592 0.965255 0.100392 0.151665
H15   H     H_    0.093409 0.465255 0.899609 0.151673
H16   H     H_    0.906629 0.465135 0.100384 0.151784
O17   O     O_3   0.326681 0.124516 0.537714 -0.519827
C113  C     C_3   0.348781 0.175712 0.596008 -0.287227
H17   H     H_    0.314860 0.214917 0.594689 0.133707
H18   H     H_    0.391811 0.195710 0.579882 0.131656
H19   H     H_    0.358164 0.156764 0.665674 0.181235
O18   O     O_3   0.687576 0.880000 0.498478 -0.549521
C114  C     C_3   0.741451 0.879495 0.560973 -0.390859
H20   H     H_    0.760585 0.830041 0.574240 0.149841
H21   H     H_    0.734150 0.902483 0.625497 0.162200
H22   H     H_    0.775941 0.907615 0.532506 0.185774
O19   O     O_3   0.673318 0.124525 0.462288 -0.519771
C115  C     C_3   0.651225 0.175731 0.404003 -0.287166
H23   H     H_    0.685135 0.214951 0.405370 0.133672
H24   H     H_    0.608178 0.195703 0.420098 0.131667
H25   H     H_    0.641881 0.156801 0.334327 0.181268
O20   O     O_3   0.312421 0.879996 0.501513 -0.549568
C116  C     C_3   0.258552 0.879497 0.439005 -0.390959
H26   H     H_    0.239424 0.830044 0.425716 0.149859
H27   H     H_    0.265859 0.902501 0.374493 0.162221
H28   H     H_    0.224054 0.907606 0.467471 0.185776
O21   O     O_3   0.826674 0.624509 0.537704 -0.519780
C117  C     C_3   0.848764 0.675707 0.596000 -0.287122
H29   H     H_    0.814853 0.714927 0.594638 0.133666
H30   H     H_    0.891811 0.695684 0.579912 0.131673
H31   H     H_    0.858107 0.656769 0.665673 0.181262
O22   O     O_3   0.187585 0.380003 0.498498 -0.549559
C118  C     C_3   0.241463 0.379495 0.560986 -0.390922
H32   H     H_    0.260590 0.330040 0.574266 0.149854
H33   H     H_    0.234169 0.402496 0.625505 0.162218
H34   H     H_    0.275956 0.407602 0.532506 0.185773
O23   O     O_3   0.173312 0.624531 0.462278 -0.519804
C119  C     C_3   0.151211 0.675736 0.403998 -0.287192
H35   H     H_    0.185130 0.714945 0.405333 0.133695
H36   H     H_    0.108179 0.695726 0.420124 0.131643
H37   H     H_    0.141836 0.656802 0.334327 0.181246
O24   O     O_3   0.812429 0.379998 0.501529 -0.549503
C120  C     C_3   0.758559 0.379502 0.439026 -0.390836
H38   H     H_    0.739429 0.330050 0.425733 0.149817
H39   H     H_    0.765864 0.402509 0.374515 0.162217
H40   H     H_    0.724063 0.407610 0.467498 0.185776
O25   O     O_3   0.424982 0.152881 0.274234 -0.563945
C121  C     C_3   0.470319 0.199956 0.295801 0.182915
H41   H     H_    0.491506 0.195517 0.367800 0.096791
H42   H     H_    0.452314 0.249946 0.283320 0.152663
C122  C     C_3   0.518283 0.189298 0.236226 -0.834555
H43   H     H_    0.498162 0.193336 0.163937 0.262125
H44   H     H_    0.554091 0.226374 0.251475 0.180573
H45   H     H_    0.538345 0.140384 0.248589 0.254275
O26   O     O_3   0.544997 0.816412 0.687410 -0.568446
C123  C     C_3   0.578470 0.837821 0.770058 0.165920
H46   H     H_    0.585316 0.890929 0.767591 0.143835
H47   H     H_    0.623754 0.814961 0.786075 0.090147
C124  C     C_3   0.544124 0.822121 0.847242 -0.874797
H48   H     H_    0.531720 0.770050 0.845604 0.266901
H49   H     H_    0.572404 0.832855 0.912936 0.198941
H50   H     H_    0.502800 0.851766 0.841953 0.245431
O27   O     O_3   0.575017 0.152869 0.725771 -0.563946
C125  C     C_3   0.529682 0.199948 0.704207 0.182909
H51   H     H_    0.508489 0.195508 0.632212 0.096812
H52   H     H_    0.547692 0.249937 0.716676 0.152642
C126  C     C_3   0.481726 0.189299 0.763798 -0.834554
H53   H     H_    0.501853 0.193348 0.836083 0.262122
H54   H     H_    0.445915 0.226373 0.748542 0.180583
H55   H     H_    0.461666 0.140384 0.751457 0.254264
O28   O     O_3   0.454995 0.816422 0.312576 -0.568384
C127  C     C_3   0.421515 0.837809 0.229920 0.165832
H56   H     H_    0.414630 0.890913 0.232381 0.143748
H57   H     H_    0.376248 0.814910 0.213897 0.090101
C128  C     C_3   0.455878 0.822141 0.152746 -0.874833
H58   H     H_    0.468305 0.770076 0.154379 0.266895
H59   H     H_    0.427603 0.832873 0.087044 0.198827
H60   H     H_    0.497192 0.851804 0.158055 0.245484
O29   O     O_3   0.924980 0.652875 0.274229 -0.563944
C129  C     C_3   0.970315 0.699953 0.295791 0.182911
H61   H     H_    0.991509 0.695511 0.367786 0.096811
H62   H     H_    0.952305 0.749942 0.283321 0.152646
C130  C     C_3   0.018272 0.689305 0.236200 -0.834558
H63   H     H_    0.998143 0.693353 0.163915 0.262121
H64   H     H_    0.054081 0.726379 0.251451 0.180574
H65   H     H_    0.038333 0.640390 0.248544 0.254266
O30   O     O_3   0.045011 0.316417 0.687436 -0.568401
C131  C     C_3   0.078471 0.337893 0.770058 0.165879
H66   H     H_    0.085219 0.391014 0.767567 0.143919
H67   H     H_    0.123804 0.315140 0.786051 0.089908
C132  C     C_3   0.044183 0.322120 0.847281 -0.874723
H68   H     H_    0.031881 0.270022 0.845679 0.266965
H69   H     H_    0.072458 0.332921 0.912955 0.198854
H70   H     H_    0.002802 0.351671 0.842002 0.245417
O31   O     O_3   0.075017 0.652876 0.725766 -0.563951
C133  C     C_3   0.029680 0.699953 0.704194 0.182916
H71   H     H_    0.008497 0.695518 0.632194 0.096789
H72   H     H_    0.047686 0.749941 0.716680 0.152661
C134  C     C_3   0.981712 0.689292 0.763762 -0.834580
H73   H     H_    0.001829 0.693327 0.836053 0.262123
H74   H     H_    0.945904 0.726368 0.748509 0.180576
H75   H     H_    0.961652 0.640379 0.751396 0.254279
O32   O     O_3   0.955016 0.316409 0.312612 -0.568453
C135  C     C_3   0.921545 0.337799 0.229951 0.165948
H76   H     H_    0.914682 0.390905 0.232401 0.143812
H77   H     H_    0.876268 0.314924 0.213933 0.090202
C136  C     C_3   0.955901 0.322102 0.152781 -0.874786
H78   H     H_    0.968322 0.270035 0.154440 0.266904
H79   H     H_    0.927624 0.332820 0.087080 0.198971
H80   H     H_    0.997217 0.351759 0.158068 0.245421
O33   O     O_3   0.578383 0.688891 0.672046 -0.566609
C137  C     C_3   0.621200 0.671305 0.747325 -0.357421
H81   H     H_    0.668253 0.669753 0.732946 0.135997
H82   H     H_    0.610171 0.622030 0.769262 0.195603
H83   H     H_    0.618555 0.704495 0.804645 0.174505
O34   O     O_3   0.337806 0.240589 0.206087 -0.604990
C138  C     C_3   0.310383 0.202500 0.133055 -0.309352
H84   H     H_    0.261505 0.196339 0.134843 0.146065
H85   H     H_    0.332554 0.154396 0.131685 0.199638
H86   H     H_    0.315156 0.227676 0.069158 0.175379
O35   O     O_3   0.421604 0.688901 0.327928 -0.566608
C139  C     C_3   0.378778 0.671316 0.252659 -0.357411
H87   H     H_    0.331705 0.669906 0.266984 0.135880
H88   H     H_    0.389725 0.621979 0.230848 0.195571
H89   H     H_    0.381518 0.704422 0.195271 0.174586
O36   O     O_3   0.662201 0.240557 0.793937 -0.605001
C140  C     C_3   0.689611 0.202446 0.866959 -0.309429
H90   H     H_    0.738489 0.196276 0.865177 0.146088
H91   H     H_    0.667431 0.154345 0.868306 0.199657
H92   H     H_    0.684837 0.227608 0.930863 0.175419
O37   O     O_3   0.078401 0.188897 0.672082 -0.566563
C141  C     C_3   0.121219 0.171322 0.747362 -0.357482
H93   H     H_    0.168214 0.169412 0.732817 0.136231
H94   H     H_    0.109992 0.122209 0.769638 0.195697
H95   H     H_    0.118830 0.204733 0.804512 0.174214
O38   O     O_3   0.837798 0.740571 0.206068 -0.604984
C142  C     C_3   0.810384 0.702469 0.133043 -0.309430
H96   H     H_    0.761506 0.696304 0.134827 0.146085
H97   H     H_    0.832560 0.654366 0.131690 0.199631
H98   H     H_    0.815158 0.727636 0.069141 0.175412
O39   O     O_3   0.921628 0.188889 0.327974 -0.566604
C143  C     C_3   0.878811 0.171300 0.252698 -0.357533
H99   H     H_    0.831754 0.169807 0.267042 0.135982
H100  H     H_    0.889804 0.122008 0.230821 0.195616
H101  H     H_    0.881492 0.204446 0.195353 0.174563
O40   O     O_3   0.162196 0.740574 0.793918 -0.604980
C144  C     C_3   0.189616 0.702479 0.866949 -0.309347
H102  H     H_    0.238496 0.696318 0.865164 0.146061
H103  H     H_    0.167446 0.654374 0.868312 0.199631
H104  H     H_    0.184841 0.727650 0.930847 0.175350
O41   O     O_3   0.214167 0.075589 0.480180 -0.613947
C145  C     C_3   0.181997 0.054554 0.396897 -0.375452
H105  H     H_    0.132635 0.058127 0.396321 0.174349
H106  H     H_    0.192719 0.003026 0.386907 0.181216
H107  H     H_    0.195212 0.081952 0.339098 0.172231
O42   O     O_3   0.663475 0.839505 0.333507 -0.606285
C146  C     C_3   0.607840 0.816634 0.289038 -0.273695
H108  H     H_    0.585696 0.783655 0.332558 0.203483
H109  H     H_    0.613016 0.792318 0.224411 0.128748
H110  H     H_    0.577890 0.858931 0.273043 0.210466
O43   O     O_3   0.785815 0.075590 0.519816 -0.613903
C147  C     C_3   0.818044 0.054523 0.603044 -0.375446
H111  H     H_    0.867402 0.057970 0.603452 0.174374
H112  H     H_    0.807224 0.003027 0.613105 0.181255
H113  H     H_    0.804974 0.081994 0.660895 0.172176
O44   O     O_3   0.336531 0.839493 0.666491 -0.606199
C148  C     C_3   0.392170 0.816614 0.710939 -0.273272
H114  H     H_    0.414308 0.783642 0.667404 0.203375
H115  H     H_    0.387002 0.792286 0.775563 0.128750
H116  H     H_    0.422122 0.858908 0.726937 0.210450
O45   O     O_3   0.714168 0.575585 0.480186 -0.613918
C149  C     C_3   0.682003 0.554546 0.396900 -0.375387
H117  H     H_    0.632641 0.558131 0.396309 0.174327
H118  H     H_    0.692719 0.503015 0.386924 0.181213
H119  H     H_    0.695231 0.581935 0.339101 0.172238
O46   O     O_3   0.163477 0.339510 0.333525 -0.606241
C150  C     C_3   0.107837 0.316638 0.289075 -0.273413
H120  H     H_    0.085701 0.283659 0.332605 0.203422
H121  H     H_    0.113004 0.292320 0.224446 0.128756
H122  H     H_    0.077886 0.358934 0.273088 0.210468
O47   O     O_3   0.285822 0.575588 0.519795 -0.613958
C151  C     C_3   0.317983 0.554551 0.603087 -0.375391
H123  H     H_    0.367350 0.558147 0.603693 0.174322
H124  H     H_    0.307276 0.503014 0.613055 0.181211
H125  H     H_    0.304742 0.581932 0.660886 0.172231
O48   O     O_3   0.836526 0.339496 0.666502 -0.606296
C152  C     C_3   0.892157 0.316620 0.710982 -0.273788
H126  H     H_    0.914307 0.283649 0.667463 0.203529
H127  H     H_    0.886972 0.292294 0.775601 0.128729
H128  H     H_    0.922106 0.358915 0.726998 0.210427
O49   O     O_3   0.673687 0.965392 0.036926 -0.573680
C153  C     C_3   0.688426 0.899930 0.056746 0.125680
H129  H     H_    0.667170 0.868139 0.000820 0.103838
H130  H     H_    0.673998 0.884091 0.121292 0.148784
C154  C     C_3   0.756153 0.891704 0.066604 -0.785728
H131  H     H_    0.778524 0.922256 0.122993 0.276949
H132  H     H_    0.768191 0.840286 0.081367 0.212300
H133  H     H_    0.772248 0.906119 0.003051 0.240120
O50   O     O_3   0.326282 0.965505 0.963053 -0.573560
C155  C     C_3   0.311589 0.899955 0.943772 0.125481
H134  H     H_    0.332466 0.868469 0.000356 0.104003
H135  H     H_    0.326470 0.883641 0.879719 0.147607
C156  C     C_3   0.243801 0.891868 0.932951 -0.784091
H136  H     H_    0.221826 0.922003 0.875748 0.276845
H137  H     H_    0.231811 0.840347 0.918863 0.211835
H138  H     H_    0.227215 0.906906 0.995911 0.240214
O51   O     O_3   0.173719 0.465501 0.036940 -0.573627
C157  C     C_3   0.188448 0.399989 0.056427 0.125568
H139  H     H_    0.167434 0.368383 0.000098 0.103964
H140  H     H_    0.173746 0.383850 0.120668 0.148071
C158  C     C_3   0.256214 0.391868 0.066877 -0.784819
H141  H     H_    0.278333 0.422168 0.123761 0.276891
H142  H     H_    0.268237 0.340391 0.081227 0.212035
H143  H     H_    0.272607 0.406671 0.003689 0.240191
O52   O     O_3   0.826319 0.465329 0.963079 -0.573734
C159  C     C_3   0.811577 0.399884 0.943110 0.125923
H144  H     H_    0.832921 0.368006 0.998899 0.103664
H145  H     H_    0.825913 0.384161 0.878431 0.148952
C160  C     C_3   0.743854 0.391639 0.933453 -0.785539
H146  H     H_    0.721390 0.422302 0.877223 0.276873
H147  H     H_    0.731816 0.340237 0.918527 0.212345
H148  H     H_    0.727856 0.405914 0.997160 0.239985
O53   O     O_3   0.355060 0.014178 0.632161 -0.549016
C161  C     C_3   0.294701 0.994797 0.626429 0.034017
H149  H     H_    0.267229 0.034589 0.648477 0.175961
H150  H     H_    0.289164 0.948936 0.662908 0.178779
H151  H     H_    0.277107 0.986555 0.554627 0.228249
O54   O     O_3   0.644948 0.014215 0.367803 -0.549011
C162  C     C_3   0.705302 0.994821 0.373513 0.034061
H152  H     H_    0.732775 0.034613 0.351461 0.176033
H153  H     H_    0.710827 0.948965 0.337017 0.178635
H154  H     H_    0.722904 0.986560 0.445309 0.228224
O55   O     O_3   0.855050 0.514194 0.632193 -0.549010
C163  C     C_3   0.794693 0.494814 0.626491 0.034088
H155  H     H_    0.767229 0.534611 0.648548 0.176032
H156  H     H_    0.789163 0.448957 0.662986 0.178630
H157  H     H_    0.777086 0.486558 0.554696 0.228218
O56   O     O_3   0.144942 0.514204 0.367825 -0.549015
C164  C     C_3   0.205298 0.494813 0.373552 0.034043
H158  H     H_    0.232773 0.534605 0.351507 0.176024
H159  H     H_    0.210830 0.448957 0.337061 0.178701
H160  H     H_    0.222891 0.486557 0.445352 0.228251
O57   O     O_3   0.691341 0.015590 0.195606 -0.596591
C165  C     C_3   0.696811 0.080689 0.169393 -0.274109
H161  H     H_    0.684341 0.114338 0.221031 0.128800
H162  H     H_    0.669521 0.091120 0.102515 0.178334
H163  H     H_    0.744494 0.090109 0.163422 0.178069
O58   O     O_3   0.308628 0.015504 0.804337 -0.596434
C166  C     C_3   0.303088 0.080622 0.830418 -0.274515
H164  H     H_    0.315337 0.114226 0.778571 0.128970
H165  H     H_    0.330507 0.091206 0.897144 0.178123
H166  H     H_    0.255430 0.089943 0.836642 0.178290
O59   O     O_3   0.191360 0.515564 0.195647 -0.596506
C167  C     C_3   0.196864 0.580677 0.169514 -0.274309
H167  H     H_    0.184494 0.614297 0.221260 0.128896
H168  H     H_    0.169514 0.591189 0.102706 0.178233
H169  H     H_    0.244537 0.590052 0.163432 0.178173
O60   O     O_3   0.808658 0.515562 0.804398 -0.596659
C168  C     C_3   0.803185 0.580655 0.830635 -0.274070
H170  H     H_    0.815688 0.614321 0.779031 0.128755
H171  H     H_    0.830451 0.591061 0.897544 0.178389
H172  H     H_    0.755493 0.590079 0.836558 0.178032

loop_
_geom_bond_atom_site_label_1
_geom_bond_atom_site_label_2
_geom_bond_distance
_ccdc_geom_bond_type
C100  C112  1.409384 A    
C121  H42   1.114264 S    
C158  H141  1.111242 S    
C17   C49   1.413654 A    
C65   C73   1.396772 A    
C53   C73   1.403480 A    
N2    C86   1.364386 A    
C18   C50   1.403120 A    
O49   C153  1.412463 S    
C55   C75   1.403470 A    
C146  H109  1.112768 S    
C152  H126  1.112921 S    
C27   O28   1.382803 S    
O38   C142  1.410174 S    
C17   O33   1.385107 S    
N4    C92   1.346826 A    
C18   O34   1.383248 S    
C37   O22   1.380687 S    
C19   O35   1.385106 S    
C121  C122  1.520592 S    
C135  H77   1.116289 S    
C140  H92   1.109120 S    
C42   C50   1.409676 A    
C20   C28   1.407215 A    
C122  H44   1.110162 S    
C75   H3    1.082808 S    
O36   C140  1.410177 S    
C133  H72   1.114263 S    
C114  H21   1.111848 S    
O3    C3    1.301329 A    
C64   C71   1.412664 A    
C108  H16   1.076465 S    
C70   O46   1.380651 S    
C147  H113  1.113025 S    
C129  H62   1.114264 S    
C77   H5    1.082809 S    
C135  C136  1.522646 S    
C20   O36   1.383247 S    
C134  H73   1.110693 S    
C82   C98   1.408091 A    
C131  H67   1.116283 S    
C35   O20   1.380684 S    
C60   C63   1.397328 A    
C21   C29   1.409747 A    
O9    Zn2   1.942313 S    
C82   O58   1.384864 S    
Zn4   N3    2.043300 S    
C23   C55   1.413647 A    
C92   H11   1.074843 S    
C68   O44   1.380653 S    
C133  C134  1.520593 S    
C123  H46   1.108823 S    
C150  H120  1.112919 S    
C143  H101  1.107376 S    
O55   C163  1.407737 S    
C73   H1    1.082811 S    
N4    C88   1.364377 A    
C165  H162  1.112625 S    
C51   C79   1.403467 A    
O7    Zn4   1.947784 S    
C9    C25   1.416085 A    
C131  C132  1.522662 S    
O23   C119  1.412020 S    
C130  H63   1.110693 S    
C46   C62   1.407698 A    
O15   Zn3   1.942268 S    
C146  H108  1.112919 S    
C72   O48   1.380659 S    
O12   C4    1.315675 A    
O13   C5    1.324851 A    
O2    Zn2   1.947808 S    
O48   C152  1.407306 S    
C117  H31   1.104036 S    
C113  H17   1.111497 S    
C111  O51   1.382833 S    
C61   C70   1.421328 A    
C151  H124  1.106383 S    
O20   C116  1.413926 S    
C139  H88   1.109240 S    
C158  H143  1.111037 S    
C76   H4    1.083379 S    
C15   C31   1.416082 A    
O18   C114  1.413919 S    
C160  H148  1.111063 S    
C145  H105  1.113586 S    
C17   C25   1.409717 A    
C91   C95   1.409131 A    
C99   C111  1.409360 A    
C19   C27   1.409715 A    
C152  H128  1.107118 S    
C138  H85   1.113476 S    
C149  H119  1.112860 S    
O3    Zn2   1.947784 S    
C162  H152  1.109461 S    
C144  H104  1.109125 S    
C78   H6    1.083377 S    
C41   C49   1.415862 A    
C160  H146  1.111262 S    
C56   C76   1.403440 A    
N1    C89   1.346814 A    
C57   C62   1.397332 A    
O10   C2    1.315687 A    
C95   C99   1.417299 A    
O58   C166  1.411135 S    
O4    C4    1.303974 A    
C93   C97   1.417297 A    
O5    C5    1.301325 A    
C74   H2    1.083371 S    
O25   C121  1.411053 S    
C134  H75   1.110332 S    
C69   C77   1.396766 A    
C84   O60   1.384879 S    
C1    C12   1.489572 S    
C19   C51   1.413651 A    
C2    C11   1.473954 S    
C168  H170  1.108052 S    
C3    C10   1.489569 S    
C163  H155  1.109464 S    
C164  H159  1.110003 S    
C47   C63   1.413014 A    
C156  H136  1.111563 S    
C71   O47   1.379520 S    
O22   C118  1.413923 S    
C10   C34   1.406299 A    
O32   C135  1.417307 S    
C128  H58   1.110253 S    
C62   C69   1.412662 A    
C130  H65   1.110334 S    
C136  H78   1.110239 S    
C148  H115  1.112769 S    
C159  H144  1.113046 S    
O11   Zn1   1.942268 S    
O59   C167  1.411129 S    
C46   C54   1.409671 A    
C119  H35   1.111498 S    
N3    C87   1.364385 A    
O31   C133  1.411056 S    
C120  H39   1.111845 S    
C117  H29   1.111500 S    
C149  H118  1.106350 S    
C39   C47   1.400781 A    
O5    Zn3   1.947807 S    
C107  C111  1.383810 A    
C65   O41   1.379520 S    
C41   C57   1.413019 A    
C66   O42   1.380652 S    
C67   C75   1.396770 A    
C36   C44   1.408912 A    
O30   C131  1.417327 S    
C16   C32   1.423570 A    
C24   C32   1.407221 A    
O37   C141  1.413557 S    
C142  H98   1.109123 S    
C116  H27   1.111845 S    
C147  H112  1.106431 S    
O29   C129  1.411056 S    
C154  H132  1.109555 S    
C80   H8    1.083367 S    
C109  O49   1.382851 S    
O60   C168  1.411126 S    
C168  H172  1.109273 S    
O28   C127  1.417316 S    
C123  C124  1.522656 S    
C84   C88   1.418602 A    
O12   Zn2   1.942270 S    
C150  H121  1.112768 S    
C143  H100  1.109004 S    
C89   C93   1.409111 A    
C144  H102  1.113309 S    
C155  H135  1.116491 S    
C84   C100  1.408065 A    
C7    C14   1.489573 S    
O27   C125  1.411053 S    
Zn2   N1    2.043300 S    
C94   C102  1.418392 A    
C22   C30   1.407216 A    
C163  H157  1.100682 S    
C81   C85   1.418582 A    
C58   C65   1.412656 A    
C156  H138  1.111354 S    
C83   C87   1.418602 A    
C47   C55   1.415865 A    
C156  H137  1.109802 S    
O10   Zn1   1.942314 S    
C127  C128  1.522666 S    
C14   C38   1.406297 A    
C162  H154  1.100683 S    
C157  C158  1.520206 S    
C20   C52   1.403117 A    
C42   C58   1.407690 A    
C151  H123  1.113669 S    
C57   C66   1.421326 A    
C136  H80   1.106990 S    
O35   C139  1.413609 S    
O34   C138  1.410171 S    
C48   C56   1.409676 A    
C125  C126  1.520591 S    
C125  H52   1.114267 S    
C119  H37   1.104038 S    
C87   O56   1.391370 S    
O14   C6    1.315672 A    
C137  H81   1.114732 S    
C104  C107  1.406577 A    
C112  O52   1.382855 S    
O7    C7    1.301325 A    
C107  H15   1.076462 S    
C140  H91   1.113477 S    
C121  H41   1.113836 S    
C122  H43   1.110692 S    
C98   C110  1.409344 A    
C83   O59   1.384871 S    
C18   C26   1.407218 A    
C21   O37   1.385113 S    
C21   C53   1.413675 A    
C28   O27   1.383124 S    
C129  H61   1.113834 S    
C132  H70   1.107008 S    
C142  H96   1.113300 S    
C89   H10   1.074846 S    
C71   C79   1.396768 A    
C49   C77   1.403471 A    
C68   C76   1.399399 A    
C12   C28   1.423572 A    
C54   C74   1.403436 A    
C102  C105  1.406582 A    
O51   C157  1.412536 S    
N1    C85   1.364376 A    
C103  C104  1.421938 A    
C126  H53   1.110693 S    
O11   C3    1.324843 A    
C33   O18   1.380695 S    
C123  H47   1.116304 S    
C155  C156  1.520326 S    
C115  H23   1.111498 S    
C95   C103  1.418399 A    
C128  H60   1.107001 S    
C96   C104  1.418392 A    
C166  H166  1.109176 S    
C124  H50   1.107004 S    
C97   C109  1.409362 A    
C94   C98   1.417303 A    
C13   C29   1.416111 A    
O6    C6    1.303972 A    
C15   C39   1.392565 A    
C116  H26   1.114283 S    
C69   O45   1.379525 S    
C141  H95   1.107379 S    
O13   Zn4   1.942313 S    
O14   Zn3   1.942314 S    
C113  H18   1.114352 S    
C92   C96   1.409110 A    
C118  H34   1.107170 S    
C40   O23   1.380280 S    
C126  H54   1.110165 S    
O46   C150  1.407302 S    
C101  C106  1.406581 A    
C158  H142  1.109671 S    
C11   C27   1.416086 A    
C44   C60   1.407688 A    
C145  H106  1.106353 S    
C34   O17   1.380286 S    
C151  H125  1.112937 S    
C59   C68   1.421329 A    
C10   C26   1.423568 A    
C161  H149  1.109441 S    
C146  H110  1.107111 S    
C152  H127  1.112771 S    
C103  C108  1.406581 A    
C22   C54   1.403117 A    
N3    C91   1.346832 A    
O43   C147  1.411169 S    
C48   C64   1.407694 A    
C113  H19   1.104053 S    
C106  C110  1.383810 A    
C167  H167  1.107968 S    
C83   C99   1.408077 A    
C34   C42   1.408905 A    
C135  H76   1.108813 S    
C124  H48   1.110248 S    
C145  H107  1.112864 S    
C122  H45   1.110335 S    
C63   C72   1.421329 A    
C45   C61   1.413016 A    
O39   C143  1.413603 S    
C86   O53   1.391381 S    
C133  H71   1.113837 S    
C114  H22   1.107168 S    
C134  H74   1.110162 S    
C101  C102  1.421939 A    
C38   O21   1.380276 S    
C131  H66   1.108770 S    
C153  C154  1.520054 S    
O4    Zn1   1.947786 S    
C163  H156  1.110012 S    
C164  H158  1.109452 S    
C126  H55   1.110333 S    
C105  C109  1.383787 A    
O1    C1    1.301318 A    
C115  H25   1.104036 S    
C108  C112  1.383790 A    
C37   C45   1.400775 A    
C161  H150  1.109999 S    
C166  H164  1.107895 S    
C110  O50   1.382822 S    
C165  H161  1.107967 S    
C79   H7    1.082808 S    
C8    C13   1.473992 S    
C127  H57   1.116311 S    
C160  H147  1.109663 S    
O47   C151  1.411176 S    
C130  H64   1.110164 S    
C81   O57   1.384877 S    
N2    C90   1.346811 A    
C58   C61   1.397321 A    
C23   C31   1.409713 A    
C148  H114  1.112917 S    
C59   C64   1.397323 A    
C159  H145  1.116129 S    
C119  H36   1.114351 S    
C120  H38   1.114285 S    
C117  H30   1.114344 S    
C161  H151  1.100678 S    
C118  H32   1.114284 S    
C139  H87   1.114826 S    
C40   C48   1.408907 A    
C144  H103  1.113484 S    
O8    Zn3   1.947786 S    
C30   O29   1.383123 S    
C11   C35   1.392554 A    
C12   C36   1.406288 A    
C159  C160  1.520194 S    
O16   Zn4   1.942270 S    
C138  H86   1.109122 S    
O2    C2    1.303959 A    
O41   C145  1.411155 S    
O19   C115  1.412013 S    
O56   C164  1.407737 S    
C165  H163  1.109223 S    
C127  H56   1.108844 S    
C5    C16   1.489574 S    
C43   C59   1.413011 A    
O21   C117  1.412014 S    
C106  H14   1.076460 S    
C6    C15   1.473949 S    
C36   O19   1.380279 S    
C81   C97   1.408058 A    
C153  H130  1.115887 S    
O40   C144  1.410173 S    
O33   C137  1.413594 S    
C60   C67   1.412639 A    
C32   O31   1.383126 S    
C168  H171  1.112693 S    
C125  H51   1.113835 S    
C67   O43   1.379512 S    
C45   C53   1.415867 A    
C24   C56   1.403122 A    
C90   H9    1.074853 S    
C29   O30   1.382811 S    
C66   C74   1.399400 A    
O8    C8    1.303962 A    
O54   C162  1.407742 S    
C38   C46   1.408913 A    
C114  H20   1.114285 S    
C167  H169  1.109231 S    
C164  H160  1.100679 S    
O15   C7    1.324848 A    
O16   C8    1.315703 A    
C85   O54   1.391367 S    
O1    Zn1   1.947807 S    
C105  H13   1.076463 S    
C33   C41   1.400787 A    
C96   C100  1.417286 A    
C22   O38   1.383248 S    
C23   O39   1.385107 S    
C4    C9    1.473959 S    
C162  H153  1.110011 S    
O6    Zn4   1.947808 S    
C14   C30   1.423569 A    
C167  H168  1.112659 S    
C136  H79   1.109039 S    
C148  H116  1.107112 S    
C35   C43   1.400768 A    
O24   C120  1.413918 S    
C90   C94   1.409118 A    
C120  H40   1.107168 S    
C137  H82   1.109167 S    
C149  H117  1.113588 S    
O44   C148  1.407306 S    
C139  H89   1.107615 S    
C140  H90   1.113301 S    
C39   O24   1.380697 S    
C91   H12   1.074855 S    
C82   C86   1.418609 A    
Zn1   N2    2.043301 S    
O9    C1    1.324855 A    
Zn3   N4    2.043301 S    
C157  H139  1.112998 S    
C157  H140  1.116202 S    
C132  H69   1.109043 S    
C116  H28   1.107169 S    
C141  H94   1.109035 S    
C137  H83   1.107531 S    
C147  H111  1.113709 S    
C72   C80   1.399403 A    
C26   O25   1.383125 S    
O53   C161  1.407732 S    
C52   C80   1.403439 A    
C154  H133  1.110719 S    
C93   C101  1.418391 A    
O42   C146  1.407305 S    
C13   C37   1.392543 A    
C24   O40   1.383249 S    
C141  H93   1.114542 S    
C43   C51   1.415852 A    
C16   C40   1.406289 A    
C129  C130  1.520591 S    
O52   C159  1.412538 S    
C88   O55   1.391375 S    
C150  H122  1.107111 S    
C143  H99   1.114579 S    
C115  H24   1.114344 S    
O50   C155  1.412627 S    
C128  H59   1.109059 S    
C166  H165  1.112612 S    
C155  H134  1.113233 S    
O57   C165  1.411121 S    
C9    C33   1.392564 A    
C138  H84   1.113301 S    
C44   C52   1.409668 A    
O45   C149  1.411156 S    
C31   O32   1.382799 S    
O26   C123  1.417312 S    
C25   O26   1.382802 S    
C153  H129  1.112779 S    
C154  H131  1.110921 S    
O17   C113  1.412025 S    
C132  H68   1.110239 S    
C124  H49   1.109042 S    
C70   C78   1.399400 A    
C50   C78   1.403439 A    
C142  H97   1.113476 S    
C118  H33   1.111844 S    
