data_mof_unit_38390.cif
_audit_creation_date              2012-12-11T15:29:31-0500
_audit_creation_method            fapswitch 2.2
_symmetry_space_group_name_H-M    P1
_symmetry_Int_Tables_number       1
_space_group_crystal_system       triclinic
_cell_length_a                    13.483727
_cell_length_b                    13.506551
_cell_length_c                    27.52773
_cell_angle_alpha                 90.874172
_cell_angle_beta                  90.207167
_cell_angle_gamma                 59.902581
_cell_volume                      4336.83605418

loop_
_atom_site_label
_atom_site_type_symbol
_atom_type_description
_atom_site_fract_x
_atom_site_fract_y
_atom_site_fract_z
_atom_type_partial_charge
C1    C     C_R   0.619472 0.099876 0.570682 0.557746
C2    C     C_1   0.631141 0.735605 0.616171 0.049938
C3    C     C_3   0.734968 0.556221 0.764515 -0.110775
C4    C     C_3   0.681183 0.651015 0.804157 0.001831
C5    C     C_3   0.621306 0.618463 0.736221 0.292766
C6    C     C_3   0.664102 0.689304 0.710191 -0.001542
C7    C     C_3   0.568096 0.711060 0.776081 0.232464
C8    C     C_3   0.609648 0.784023 0.749802 -0.171526
C9    C     C_1   0.690247 0.629379 0.856240 0.017487
C10   C     C_1   0.650122 0.710910 0.658197 0.025692
C11   C     C_3   0.111772 0.169592 0.737328 0.244949
C12   C     C_R   0.599869 0.779722 0.568422 0.555712
C13   C     C_3   0.173281 0.074954 0.774978 -0.057383
C14   C     C_1   0.104796 0.197267 0.902013 0.019981
C15   C     C_1   0.287931 0.116039 0.624074 0.019238
C16   C     C_3   0.109092 0.260333 0.772659 -0.087447
C17   C     C_3   0.173145 0.164903 0.809913 0.019742
C18   C     C_3   0.226183 0.236549 0.752113 -0.146759
C19   C     C_3   0.226817 0.146242 0.717158 0.006037
C20   C     C_3   0.289480 0.142019 0.790351 -0.100163
C21   C     C_3   0.290247 0.051951 0.754570 -0.108248
C22   C     C_1   0.140005 0.178042 0.860962 -0.009743
C23   C     C_R   0.326175 0.101232 0.574896 0.546011
C24   C     C_1   0.259051 0.130241 0.665964 -0.020569
C25   C     C_3   0.663569 0.231359 0.743322 -0.028774
C26   C     C_3   0.565896 0.255456 0.779262 -0.098862
C27   C     C_1   0.685498 0.198544 0.904269 0.011630
C28   C     C_1   0.630873 0.124632 0.620582 0.026021
C29   C     C_3   0.750995 0.136169 0.776450 -0.057504
C30   C     C_3   0.653253 0.160523 0.811930 0.027578
C31   C     C_3   0.730458 0.046755 0.749501 -0.089964
C32   C     C_3   0.643181 0.142609 0.716927 0.039968
C33   C     C_3   0.632926 0.070736 0.785894 -0.120699
C34   C     C_R   0.599463 0.070475 0.425600 0.540215
C35   C     C_3   0.545359 0.165944 0.752216 -0.132834
C36   C     C_1   0.665920 0.179013 0.863598 -0.031852
C37   C     C_1   0.637347 0.135311 0.663861 -0.006993
C38   C     C_R   0.635125 0.726264 0.381631 -0.031842
C39   C     C_R   0.747357 0.682414 0.362846 0.259228
C40   C     C_R   0.764302 0.665950 0.312836 -0.097287
C41   C     C_R   0.672888 0.688789 0.282137 -0.044831
C42   C     C_R   0.562626 0.726226 0.300782 0.223151
C43   C     C_R   0.545341 0.743541 0.350381 -0.165704
C44   C     C_R   0.709540 0.552170 0.216954 0.006665
C45   C     C_R   0.601875 0.776666 0.430333 0.570517
C46   C     C_R   0.711214 0.527509 0.168182 -0.071397
C47   C     C_R   0.695792 0.709691 0.148108 -0.100000
C48   C     C_R   0.692394 0.735389 0.197498 -0.070654
C49   C     C_R   0.696702 0.657196 0.231517 0.071228
C50   C     C_R   0.701318 0.607260 0.133875 0.054441
C51   C     C_R   0.242582 0.129691 0.381182 -0.015833
C52   C     C_R   0.326413 0.062180 0.346727 -0.117735
C53   C     C_R   0.301014 0.076589 0.297752 -0.107229
C54   C     C_R   0.190656 0.156390 0.282774 0.003737
C55   C     C_R   0.104297 0.223588 0.317309 0.240847
C56   C     C_R   0.278737 0.120134 0.431224 0.547105
C57   C     C_R   0.132092 0.210793 0.366759 -0.097390
C58   C     C_R   0.208892 0.224018 0.202135 -0.085866
C59   C     C_R   0.180069 0.242463 0.152930 0.246245
C60   C     C_R   0.076158 0.138886 0.161717 -0.144701
C61   C     C_R   0.106935 0.119939 0.210119 -0.029855
C62   C     C_R   0.168308 0.167204 0.230829 0.034161
C63   C     C_R   0.107297 0.204668 0.133079 0.014600
C64   C     C_R   0.604853 0.091355 0.373506 0.009313
C65   C     C_R   0.507340 0.176895 0.349897 -0.125318
C66   C     C_R   0.511287 0.196691 0.300552 -0.113728
C67   C     C_3   0.778072 0.628383 0.737916 -0.135106
C68   C     C_R   0.612806 0.131208 0.273897 0.031796
C69   C     C_R   0.709150 0.043389 0.297166 -0.106997
C70   C     C_R   0.704989 0.023130 0.346364 -0.107511
C71   C     C_R   0.686193 0.069997 0.189252 -0.098857
C72   C     C_R   0.712181 0.094911 0.143795 -0.095814
C73   C     C_R   0.600652 0.297759 0.162836 -0.086250
C74   C     C_R   0.575918 0.272736 0.208717 -0.083879
C75   C     C_R   0.621775 0.158400 0.222881 0.042457
C76   C     C_R   0.672898 0.208743 0.130880 0.040985
C77   C     C_R   0.050831 0.234327 0.948409 0.558519
C78   C     C_3   0.724286 0.722581 0.778298 -0.153449
C79   C     C_R   0.712058 0.561364 0.946385 0.544835
C80   C     C_R   0.721481 0.222809 0.949785 0.552531
C81   C     C_R   0.049211 0.243075 0.086093 0.576083
C82   C     C_R   0.709013 0.572693 0.083925 0.530887
C83   C     C_R   0.718950 0.232612 0.087138 0.534630
C84   C     C_1   0.698322 0.604673 0.898372 0.035795
Cr1   Cr    Cr6+3 0.417550 0.169090 0.500530 1.058251
Cr2   Cr    Cr6+3 0.669180 0.913420 0.499920 1.123463
Cr3   Cr    Cr6+3 0.413260 0.917540 0.499520 1.068541
Cr4   Cr    Cr6+3 0.909770 0.175810 0.018240 1.053076
Cr5   Cr    Cr6+3 0.913300 0.427650 0.016090 1.101262
Cr6   Cr    Cr6+3 0.657770 0.431010 0.016900 1.086388
H1    H     H_    0.766915 0.765317 0.796349 0.132712
H2    H     H_    0.362958 0.129807 0.813005 0.139035
H3    H     H_    0.247386 0.303120 0.742107 0.128519
H4    H     H_    0.497226 0.340035 0.792811 0.169577
H5    H     H_    0.677492 0.295980 0.725530 0.239078
H6    H     H_    0.461251 0.177846 0.740821 0.111856
H7    H     H_    0.619785 0.005233 0.803945 0.121408
H8    H     H_    0.836185 0.122940 0.787210 0.170537
H9    H     H_    0.864350 0.594760 0.721475 0.152497
H10   H     H_    0.713148 0.491815 0.243407 0.190471
H11   H     H_    0.720256 0.446033 0.157048 0.108482
H12   H     H_    0.849256 0.633213 0.297617 0.187885
H13   H     H_    0.459311 0.776655 0.364322 0.177453
H14   H     H_    0.412983 0.001106 0.357804 0.110678
H15   H     H_    0.260542 0.256109 0.218623 0.118038
H16   H     H_    0.561368 0.877217 0.742933 0.104800
H17   H     H_    0.078837 0.072459 0.231989 0.173460
H18   H     H_    0.021940 0.107273 0.147604 0.150569
H19   H     H_    0.068798 0.263503 0.393909 0.178921
H20   H     H_    0.427797 0.228639 0.369561 0.147731
H21   H     H_    0.720456 0.981295 0.198835 0.098518
H22   H     H_    0.766762 0.024832 0.119413 0.134342
H23   H     H_    0.435189 0.263425 0.283286 0.112674
H24   H     H_    0.526468 0.342646 0.234000 0.135449
H25   H     H_    0.569199 0.386245 0.153610 0.144715
H26   H     H_    0.789107 0.992340 0.277693 0.125918
H27   H     H_    0.780856 0.955196 0.363205 0.181268
H28   H     H_    0.785381 0.463123 0.771520 0.171351
H29   H     H_    0.150447 0.009386 0.784686 0.186530
H30   H     H_    0.365996 0.968441 0.745494 0.132288
O1    O     O_R   0.301780 0.195490 0.553940 -0.476772
O2    O     O_R   0.658840 0.818280 0.449970 -0.448743
O3    O     O_R   0.503160 0.801780 0.445740 -0.519199
O4    O     O_R   0.319320 0.022190 0.450230 -0.485099
O5    O     O_3   0.499990 0.000010 0.499990 -0.327282
O6    O     O_R   0.819250 0.149410 0.965240 -0.502424
O7    O     O_R   0.006940 0.180310 0.968270 -0.489203
O8    O     O_R   0.028420 0.332670 0.963010 -0.490852
O9    O     O_R   0.810130 0.520390 0.966030 -0.507372
O10   O     O_R   0.636050 0.541380 0.962520 -0.476843
O11   O     O_R   0.666480 0.323610 0.968170 -0.481393
O12   O     O_R   0.522450 0.158840 0.550250 -0.502214
O13   O     O_R   0.817280 0.156800 0.072180 -0.521353
O14   O     O_R   0.005110 0.187160 0.067410 -0.516327
O15   O     O_R   0.026450 0.340060 0.069950 -0.427957
O16   O     O_R   0.808300 0.527240 0.065170 -0.493994
O17   O     O_R   0.634070 0.548770 0.069460 -0.497596
O18   O     O_R   0.664650 0.330470 0.067300 -0.493471
O19   O     O_3   0.826940 0.344820 0.017080 -0.277897
O20   O     O_R   0.694460 0.003360 0.553820 -0.485847
O21   O     O_R   0.657750 0.819520 0.549120 -0.491756
O22   O     O_R   0.501990 0.803120 0.552700 -0.487539
O23   O     O_R   0.318230 0.023430 0.549370 -0.475174
O24   O     O_R   0.302950 0.194150 0.446980 -0.513052
O25   O     O_R   0.523540 0.157600 0.451100 -0.487596
O26   O     O_R   0.695630 0.002030 0.446860 -0.466078
H31   H     H_    0.033483 0.345885 0.780474 0.127569
H32   H     H_    0.798417 0.960977 0.736639 0.138511
S1    S     S_3+6 0.868876 0.642833 0.399982 0.045800
O27   O     O_2   0.878050 0.746920 0.411796 -0.281637
O28   O     O_2   0.857275 0.591723 0.446264 -0.246337
O29   O     O_3   0.988703 0.546377 0.370538 -0.522088
H33   H     H_    0.050395 0.520461 0.395057 0.370677
H34   H     H_    0.682043 0.816963 0.209209 0.110423
H35   H     H_    0.691612 0.769655 0.121369 0.115614
S2    S     S_3+6 0.444559 0.752986 0.263201 -0.003186
O30   O     O_2   0.439641 0.822997 0.220399 -0.260181
O31   O     O_2   0.458890 0.641122 0.244850 -0.291076
O32   O     O_3   0.320156 0.824609 0.294145 -0.518608
H36   H     H_    0.312430 0.765209 0.311596 0.356315
S3    S     S_3+6 0.237994 0.310730 0.118105 0.041456
O33   O     O_2   0.267210 0.259013 0.067802 -0.229470
O34   O     O_2   0.151294 0.436057 0.114604 -0.263021
O35   O     O_3   0.357875 0.295195 0.144265 -0.517700
H37   H     H_    0.331458 0.360256 0.167575 0.342396
H38   H     H_    0.367538 0.025690 0.271420 0.179872
S4    S     S_3+6 0.963263 0.325478 0.299508 0.004036
O36   O     O_2   0.905310 0.263993 0.278851 -0.276941
O37   O     O_2   0.894389 0.397753 0.342160 -0.233398
O38   O     O_3   0.968277 0.409984 0.256524 -0.534177
H39   H     H_    0.018652 0.437267 0.270052 0.347659
S5    S     S_3+6 0.432179 0.758539 0.804643 0.048469
O39   O     O_2   0.441770 0.665424 0.836905 -0.197464
O40   O     O_2   0.400368 0.863666 0.835058 -0.297525
O41   O     O_3   0.329327 0.787427 0.763311 -0.465044
H40   H     H_    0.355312 0.807121 0.733320 0.338288
S6    S     S_3+6 0.552800 0.553779 0.704013 0.031393
O42   O     O_2   0.460667 0.640887 0.672074 -0.283160
O43   O     O_2   0.639883 0.457187 0.672788 -0.250843
O44   O     O_3   0.493924 0.505010 0.743785 -0.508790
H41   H     H_    0.445468 0.484428 0.723815 0.362219
S7    S     S_3+6 0.992649 0.190695 0.701591 0.017106
O45   O     O_2   0.885836 0.254247 0.731764 -0.309198
O46   O     O_2   0.982426 0.260035 0.657730 -0.225439
O47   O     O_3   0.009180 0.063602 0.683919 -0.490130
H42   H     H_    0.085329 0.022943 0.667862 0.347007

loop_
_geom_bond_atom_site_label_1
_geom_bond_atom_site_label_2
_ccdc_geom_bond_type
C44   C49   A    
C58   C62   A    
C66   C68   A    
C72   H22   S    
C69   H26   S    
C26   H4    S    
Cr5   O15   S    
C66   H23   S    
C34   O26   A    
C73   C74   A    
Cr1   O5    S    
C55   S4    S    
C72   C76   A    
C1    O12   A    
C2    C12   S    
Cr6   O17   S    
Cr6   O19   S    
C7    C8    S    
C23   O1    A    
C35   H6    S    
C45   O3    A    
C68   C75   S    
C11   S7    S    
C11   C19   S    
C47   H35   S    
C29   H8    S    
C63   C81   S    
C16   H31   S    
C56   O4    A    
S2    O30   D    
C19   C21   S    
Cr1   O25   S    
Cr4   O13   S    
C18   C19   S    
C21   H30   S    
S1    O28   D    
Cr1   O12   S    
C5    C6    S    
C34   O25   A    
O38   H39   S    
C70   H27   S    
C79   O9    A    
C11   C13   S    
C17   C20   S    
Cr5   O9    S    
C12   O21   A    
C76   C83   S    
C51   C56   S    
C41   C42   A    
C14   C77   S    
S7    O45   D    
C38   C45   S    
Cr4   O6    S    
S3    O34   D    
C57   H19   S    
O32   H36   S    
C44   C46   A    
C16   C17   S    
Cr5   O19   S    
C71   H21   S    
Cr2   O2    S    
C1    C28   S    
C31   C33   S    
Cr1   O1    S    
C51   C57   A    
C64   C70   A    
C47   C50   A    
C33   H7    S    
C60   H18   S    
S5    O41   S    
C67   H9    S    
C25   C32   S    
C15   C23   S    
C80   O11   A    
C7    S5    S    
Cr2   O5    S    
C8    C78   S    
C79   C84   S    
C23   O23   A    
C69   C70   A    
C67   C78   S    
C4    C7    S    
Cr3   O4    S    
Cr2   O26   S    
Cr1   O24   S    
C41   C49   S    
Cr6   O18   S    
S5    O40   D    
C46   C50   A    
C81   O15   A    
S4    O38   S    
C43   H13   S    
S2    O32   S    
C25   C29   S    
C46   H11   S    
C71   C75   A    
C74   C75   A    
C39   C40   A    
C51   C52   A    
C32   C35   S    
C81   O14   A    
S4    O37   D    
C27   C80   S    
S1    O29   S    
S4    O36   D    
C5    C7    S    
C68   C69   A    
C6    C8    S    
C54   C62   S    
S6    O43   D    
C58   C59   A    
C53   C54   A    
C79   O10   A    
C60   C61   A    
S7    O47   S    
C56   O24   A    
C42   S2    S    
Cr4   O19   S    
C4    C78   S    
C29   C30   S    
C59   S3    S    
C3    H28   S    
C20   H2    S    
C11   C16   S    
C26   C35   S    
C47   C48   A    
C12   O22   A    
S6    O44   S    
C34   C64   S    
C13   C21   S    
C32   C37   S    
C20   C21   S    
C77   O8    A    
C5    S6    S    
C1    O20   A    
S6    O42   D    
Cr6   O11   S    
C15   C24   T    
C25   H5    S    
C55   C57   A    
C45   O2    A    
C73   C76   A    
C60   C63   A    
C42   C43   A    
C31   H32   S    
C3    C4    S    
C2    C10   T    
C6    C67   S    
Cr3   O5    S    
S3    O35   S    
S5    O39   D    
C50   C82   S    
C13   H29   S    
C48   H34   S    
C54   C55   A    
O35   H37   S    
C30   C33   S    
C31   C32   S    
C3    C67   S    
C3    C5    S    
C8    H16   S    
C6    C10   S    
C26   C30   S    
C13   C17   S    
C78   H1    S    
C82   O17   A    
Cr4   O7    S    
C39   S1    S    
C59   C63   A    
C17   C22   S    
C73   H25   S    
C30   C36   S    
C27   C36   T    
C64   C65   A    
C58   H15   S    
S2    O31   D    
C19   C24   S    
C25   C26   S    
Cr4   O14   S    
C38   C43   A    
C29   C31   S    
O41   H40   S    
S3    O33   D    
S1    O27   D    
Cr3   O3    S    
C44   H10   S    
C14   C22   T    
O47   H42   S    
C38   C39   A    
C80   O6    A    
C28   C37   T    
C48   C49   A    
C33   C35   S    
C52   H14   S    
C18   C20   S    
Cr3   O22   S    
C82   O16   A    
C61   C62   A    
C61   H17   S    
S7    O46   D    
C65   H20   S    
C83   O13   A    
C77   O7    A    
C9    C84   T    
C40   H12   S    
Cr6   O10   S    
C53   H38   S    
C71   C72   A    
O29   H33   S    
C16   C18   S    
C65   C66   A    
Cr5   O16   S    
C18   H3    S    
C40   C41   A    
Cr2   O20   S    
Cr3   O23   S    
C4    C9    S    
C83   O18   A    
O44   H41   S    
Cr2   O21   S    
C52   C53   A    
Cr5   O8    S    
C74   H24   S    
