data_mof_unit_44968.cif
_audit_creation_date              2012-12-11T15:35:31-0500
_audit_creation_method            fapswitch 2.2
_symmetry_space_group_name_H-M    P1
_symmetry_Int_Tables_number       1
_space_group_crystal_system       triclinic
_cell_length_a                    17.415351
_cell_length_b                    24.240595
_cell_length_c                    15.063978
_cell_angle_alpha                 90.148706
_cell_angle_beta                  125.586138
_cell_angle_gamma                 89.964421
_cell_volume                      5171.69650009

loop_
_atom_site_label
_atom_site_type_symbol
_atom_type_description
_atom_site_fract_x
_atom_site_fract_y
_atom_site_fract_z
_atom_type_partial_charge
Br1   Br    Br    0.325790 0.179759 0.771866 -0.525686
Br2   Br    Br    0.410178 0.881818 0.637241 -0.522139
Br3   Br    Br    0.903665 0.616882 0.635400 -0.488121
Br4   Br    Br    0.910178 0.381819 0.637241 -0.522139
Br5   Br    Br    0.326155 0.820354 0.771150 -0.534221
Br6   Br    Br    0.825789 0.679759 0.771865 -0.525687
Br7   Br    Br    0.826155 0.320354 0.771151 -0.534220
Br8   Br    Br    0.955922 0.942651 0.332827 -0.569506
Br9   Br    Br    0.961984 0.070912 0.353596 -0.565444
Br10  Br    Br    0.455922 0.442651 0.332827 -0.569507
Br11  Br    Br    0.461984 0.570912 0.353596 -0.565443
Br12  Br    Br    0.403665 0.116882 0.635400 -0.488121
C1    C     C_R   0.354251 0.152631 0.907468 0.272330
C2    C     C_R   0.600737 0.122210 0.911019 -0.058290
C3    C     C_R   0.256890 0.546179 0.302438 -0.073167
C4    C     C_R   0.101618 0.378616 0.911474 -0.053312
C5    C     C_R   0.100737 0.622210 0.911019 -0.058290
C6    C     C_R   0.439526 0.000221 0.636910 -0.147657
C7    C     C_R   0.939526 0.500221 0.636910 -0.147656
C8    C     C_R   0.806156 0.000223 0.362768 0.041680
C9    C     C_R   0.306156 0.500223 0.362768 0.041680
C10   C     C_R   0.689929 0.135085 0.002558 0.013445
C11   C     C_R   0.690584 0.865609 0.002933 0.011319
C12   C     C_R   0.189929 0.635086 0.002558 0.013445
C13   C     C_R   0.354403 0.847262 0.907090 0.273892
C14   C     C_R   0.190584 0.365609 0.002933 0.011319
C15   C     C_3   0.022209 0.948229 0.637616 -0.377522
C16   C     C_3   0.022961 0.051747 0.637885 -0.379842
C17   C     C_3   0.522209 0.448229 0.637616 -0.377520
C18   C     C_3   0.522961 0.551747 0.637885 -0.379844
C19   C     C_3   0.921780 0.947245 0.531690 -0.431689
C20   C     C_3   0.919521 0.050198 0.537793 -0.417621
C21   C     C_3   0.421780 0.447245 0.531690 -0.431689
C22   C     C_3   0.419521 0.550198 0.537793 -0.417621
C23   C     C_3   0.074939 0.999337 0.535222 -0.446022
C24   C     C_R   0.854251 0.652631 0.907468 0.272331
C25   C     C_3   0.574939 0.499337 0.535222 -0.446022
C26   C     C_3   0.075583 0.999800 0.638859 0.286241
C27   C     C_3   0.575583 0.499800 0.638859 0.286241
C28   C     C_3   0.903099 0.000211 0.463238 0.193842
C29   C     C_3   0.403099 0.500211 0.463238 0.193842
C30   C     C_R   0.441080 0.847378 0.089427 -0.184382
C31   C     C_R   0.441217 0.152746 0.089711 -0.179929
C32   C     C_R   0.941080 0.347378 0.089427 -0.184382
C33   C     C_R   0.941217 0.652746 0.089711 -0.179930
C34   C     C_3   0.974144 0.002779 0.431002 0.571955
C35   C     C_R   0.854403 0.347262 0.907090 0.273892
C36   C     C_3   0.474144 0.502779 0.431002 0.571955
C37   C     C_R   0.278989 0.733995 0.900179 -0.113403
C38   C     C_R   0.277489 0.264995 0.900694 -0.111392
C39   C     C_R   0.778988 0.233996 0.900179 -0.113402
C40   C     C_R   0.777491 0.764996 0.900694 -0.111394
C41   C     C_R   0.737374 0.186283 0.901583 -0.172642
C42   C     C_R   0.736504 0.813050 0.901717 -0.169195
C43   C     C_R   0.237375 0.686283 0.901583 -0.172643
C44   C     C_R   0.236502 0.313049 0.901716 -0.169194
C45   C     C_R   0.761830 0.165212 0.001147 0.130828
C46   C     C_R   0.690274 0.123355 0.092947 -0.092908
C47   C     C_R   0.762159 0.835228 0.001210 0.131975
C48   C     C_R   0.261830 0.665212 0.001148 0.130828
C49   C     C_R   0.262159 0.335228 0.001209 0.131974
C50   C     C_R   0.844323 0.183961 0.098410 -0.119333
C51   C     C_R   0.845114 0.816998 0.098365 -0.120265
C52   C     C_R   0.344323 0.683961 0.098410 -0.119333
C53   C     C_R   0.345114 0.316999 0.098364 -0.120266
C54   C     C_R   0.391298 0.729803 0.096361 -0.153265
C55   C     C_R   0.391707 0.270816 0.096466 -0.156689
C56   C     C_R   0.891298 0.229803 0.096361 -0.153265
C57   C     C_R   0.690430 0.876872 0.093123 -0.087869
C58   C     C_R   0.891707 0.770816 0.096467 -0.156689
C59   C     C_R   0.353750 0.757979 0.997598 0.147196
C60   C     C_R   0.353257 0.241842 0.998039 0.147934
C61   C     C_R   0.853750 0.257979 0.997598 0.147196
C62   C     C_R   0.853258 0.741842 0.998040 0.147933
C63   C     C_R   0.366705 0.971749 0.445759 -0.060497
C64   C     C_R   0.501230 0.034521 0.541678 -0.125018
C65   C     C_R   0.866705 0.471749 0.445759 -0.060497
C66   C     C_R   0.001230 0.534521 0.541678 -0.125018
C67   C     C_R   0.371073 0.971757 0.356766 -0.188342
C68   C     C_R   0.190274 0.623355 0.092947 -0.092908
C69   C     C_R   0.504265 0.035486 0.453335 -0.168336
C70   C     C_R   0.871073 0.471757 0.356766 -0.188342
C71   C     C_R   0.004265 0.535486 0.453335 -0.168336
C72   C     C_R   0.440268 0.003601 0.361783 0.130372
C73   C     C_R   0.940268 0.503601 0.361783 0.130372
C74   C     C_R   0.481191 0.046648 0.247935 -0.133065
C75   C     C_R   0.482581 0.954495 0.251294 -0.124759
C76   C     C_R   0.981191 0.546648 0.247935 -0.133064
C77   C     C_R   0.982581 0.454495 0.251294 -0.124759
C78   C     C_R   0.433469 0.002321 0.538494 0.190259
C79   C     C_R   0.190430 0.376872 0.093123 -0.087868
C80   C     C_R   0.933469 0.502321 0.538495 0.190259
C81   C     C_R   0.232355 0.953731 0.757699 -0.092809
C82   C     C_R   0.232288 0.046102 0.757922 -0.089525
C83   C     C_R   0.732355 0.453731 0.757699 -0.092810
C84   C     C_R   0.732287 0.546102 0.757922 -0.089524
C85   C     C_R   0.380797 0.184598 0.998070 -0.027261
C86   C     C_R   0.380985 0.815308 0.997542 -0.026668
C87   C     C_R   0.880797 0.684598 0.998070 -0.027260
C88   C     C_R   0.880985 0.315308 0.997542 -0.026668
C89   C     C_R   0.454221 0.001188 0.277823 0.046491
C90   C     C_R   0.601618 0.878616 0.911474 -0.053313
C91   C     C_R   0.954221 0.501188 0.277823 0.046491
C92   C     C_R   0.175807 0.999852 0.732231 -0.041160
C93   C     C_R   0.675807 0.499852 0.732231 -0.041160
C94   C     C_R   0.451880 0.045484 0.697668 0.264332
C95   C     C_R   0.452029 0.954514 0.696873 0.269618
C96   C     C_R   0.951880 0.545485 0.697668 0.264332
C97   C     C_R   0.952029 0.454514 0.696872 0.269617
C98   C     C_R   0.756540 0.954104 0.302722 -0.073756
C99   C     C_R   0.756890 0.046179 0.302438 -0.073167
C100  C     C_R   0.256539 0.454104 0.302722 -0.073756
H1    H     H_    0.019432 0.949006 0.709565 0.174425
H2    H     H_    0.903299 0.090128 0.494513 0.194312
H3    H     H_    0.414335 0.409459 0.485408 0.196938
H4    H     H_    0.403299 0.590128 0.494512 0.194312
H5    H     H_    0.110035 0.961068 0.534743 0.205852
H6    H     H_    0.118245 0.034030 0.538293 0.213040
H7    H     H_    0.610035 0.461068 0.534744 0.205852
H8    H     H_    0.618245 0.534031 0.538293 0.213040
H9    H     H_    0.243633 0.754129 0.822633 0.172023
H10   H     H_    0.240891 0.243932 0.823726 0.172153
H11   H     H_    0.743631 0.254130 0.822633 0.172021
H12   H     H_    0.026475 0.053848 0.713973 0.170205
H13   H     H_    0.740894 0.743934 0.823726 0.172155
H14   H     H_    0.677490 0.171401 0.823970 0.131210
H15   H     H_    0.675915 0.827168 0.824098 0.138388
H16   H     H_    0.177492 0.671400 0.823970 0.131210
H17   H     H_    0.175913 0.327166 0.824097 0.138388
H18   H     H_    0.867823 0.166741 0.176542 0.163462
H19   H     H_    0.869304 0.834985 0.176360 0.159273
H20   H     H_    0.367822 0.666741 0.176543 0.163461
H21   H     H_    0.369305 0.334986 0.176359 0.159274
H22   H     H_    0.451046 0.745615 0.173265 0.131159
H23   H     H_    0.519432 0.449006 0.709565 0.174425
H24   H     H_    0.451987 0.255441 0.173244 0.128715
H25   H     H_    0.951047 0.245614 0.173264 0.131160
H26   H     H_    0.951986 0.755440 0.173245 0.128715
H27   H     H_    0.312843 0.947814 0.442828 0.172800
H28   H     H_    0.553877 0.057581 0.614099 0.129369
H29   H     H_    0.812843 0.447814 0.442828 0.172800
H30   H     H_    0.053877 0.557581 0.614099 0.129369
H31   H     H_    0.484947 0.833656 0.173167 0.117776
H32   H     H_    0.485366 0.166803 0.173373 0.115083
H33   H     H_    0.984947 0.333656 0.173167 0.117776
H34   H     H_    0.526475 0.553848 0.713973 0.170206
H35   H     H_    0.985367 0.666803 0.173373 0.115083
H36   H     H_    0.322029 0.947009 0.285409 0.137460
H37   H     H_    0.559618 0.059160 0.458670 0.124496
H38   H     H_    0.822029 0.447009 0.285409 0.137460
H39   H     H_    0.059618 0.559160 0.458670 0.124496
H40   H     H_    0.475125 0.089518 0.262841 0.113914
H41   H     H_    0.477713 0.912068 0.269457 0.113347
H42   H     H_    0.975125 0.589518 0.262841 0.113914
H43   H     H_    0.977713 0.412068 0.269457 0.113347
H44   H     H_    0.211190 0.911094 0.744254 0.139789
H45   H     H_    0.869626 0.944125 0.551653 0.177600
H46   H     H_    0.210794 0.088677 0.744597 0.141239
H47   H     H_    0.711190 0.411094 0.744254 0.139789
H48   H     H_    0.710794 0.588677 0.744597 0.141239
H49   H     H_    0.769324 0.911664 0.329251 0.098773
H50   H     H_    0.769974 0.088732 0.328624 0.102291
H51   H     H_    0.269324 0.411664 0.329251 0.098773
H52   H     H_    0.269974 0.588732 0.328624 0.102291
H53   H     H_    0.747611 0.129500 0.177508 0.125286
H54   H     H_    0.747516 0.870565 0.177687 0.121666
H55   H     H_    0.247611 0.629500 0.177508 0.125285
H56   H     H_    0.872268 0.046845 0.564798 0.176179
H57   H     H_    0.247516 0.370565 0.177687 0.121666
H58   H     H_    0.578189 0.876946 0.828391 0.141778
H59   H     H_    0.575976 0.124890 0.827400 0.135546
H60   H     H_    0.078189 0.376947 0.828391 0.141777
H61   H     H_    0.075976 0.624890 0.827401 0.135546
H62   H     H_    0.057512 0.909323 0.641293 0.175161
H63   H     H_    0.055414 0.090026 0.633161 0.186137
H64   H     H_    0.557512 0.409323 0.641293 0.175160
H65   H     H_    0.555414 0.590026 0.633161 0.186137
H66   H     H_    0.369626 0.444125 0.551653 0.177600
H67   H     H_    0.372268 0.546845 0.564798 0.176179
H68   H     H_    0.914335 0.909459 0.485408 0.196938
N1    N     N_R   0.392140 0.102630 0.941800 -0.068536
N2    N     N_R   0.525160 0.972040 0.206160 -0.046664
N3    N     N_R   0.025160 0.527960 0.206160 -0.047737
N4    N     N_R   0.025160 0.472040 0.206160 -0.046664
N5    N     N_R   0.317870 0.971120 0.792790 -0.030204
N6    N     N_R   0.317870 0.028880 0.792790 -0.029559
N7    N     N_R   0.817870 0.471120 0.792790 -0.030204
N8    N     N_R   0.817870 0.528880 0.792790 -0.029559
N9    N     N_R   0.473480 0.027920 0.793480 -0.096410
N10   N     N_R   0.473480 0.972080 0.793480 -0.094816
N11   N     N_R   0.973480 0.527920 0.793480 -0.096410
N12   N     N_R   0.392140 0.897370 0.941800 -0.068511
N13   N     N_R   0.973480 0.472080 0.793480 -0.094816
N14   N     N_R   0.681610 0.971120 0.207570 -0.043733
N15   N     N_R   0.681610 0.028880 0.207570 -0.044761
N16   N     N_R   0.181610 0.471120 0.207570 -0.043733
N17   N     N_R   0.181610 0.528880 0.207570 -0.044761
N18   N     N_R   0.605410 0.102620 0.056870 -0.051865
N19   N     N_R   0.605410 0.897380 0.056870 -0.051972
N20   N     N_R   0.105410 0.602620 0.056870 -0.051865
N21   N     N_R   0.105410 0.397380 0.056870 -0.051972
N22   N     N_R   0.549680 0.896430 0.944180 -0.028128
N23   N     N_R   0.892140 0.602630 0.941800 -0.068536
N24   N     N_R   0.549680 0.103570 0.944180 -0.028607
N25   N     N_R   0.049680 0.396430 0.944180 -0.028128
N26   N     N_R   0.049680 0.603570 0.944180 -0.028607
N27   N     N_R   0.892140 0.397370 0.941800 -0.068511
N28   N     N_R   0.450890 0.896450 0.057150 -0.058742
N29   N     N_R   0.450890 0.103550 0.057150 -0.058651
N30   N     N_R   0.950890 0.396450 0.057150 -0.058742
N31   N     N_R   0.950890 0.603550 0.057150 -0.058651
N32   N     N_R   0.525160 0.027960 0.206160 -0.047737
Ni1   Ni    Ni4+2 0.433410 0.064680 0.868830 0.305615
Ni2   Ni    Ni4+2 0.433410 0.935320 0.868830 0.304733
Ni3   Ni    Ni4+2 0.933410 0.564680 0.868830 0.305615
Ni4   Ni    Ni4+2 0.933410 0.435320 0.868830 0.304733
Ni5   Ni    Ni4+2 0.565650 0.934380 0.131170 0.211816
Ni6   Ni    Ni4+2 0.565650 0.065620 0.131170 0.208887
Ni7   Ni    Ni4+2 0.065650 0.434380 0.131170 0.211816
Ni8   Ni    Ni4+2 0.065650 0.565620 0.131170 0.208887

loop_
_geom_bond_atom_site_label_1
_geom_bond_atom_site_label_2
_ccdc_geom_bond_type
N26   Ni3   S    
C90   H58   S    
C61   C88   S    
Br12  C94   S    
C84   C93   A    
C65   C80   A    
N3    Ni8   S    
C39   H11   S    
C84   N8    A    
C38   H10   S    
Br4   C97   S    
C69   C72   A    
C10   C45   S    
C6    C94   A    
C56   H25   S    
C83   N7    A    
C45   C50   A    
N5    Ni2   S    
C11   C47   S    
N31   Ni8   S    
C99   H50   S    
C33   N31   A    
C6    C95   A    
C83   H47   S    
N29   Ni6   S    
N23   Ni3   S    
C5    N26   A    
C14   C49   S    
C74   N32   A    
C40   C62   A    
C30   C86   A    
C67   C72   A    
C3    N17   A    
C69   H37   S    
C77   H43   S    
C11   C90   A    
C15   C26   S    
C22   H4    S    
C68   N20   A    
N6    Ni1   S    
C17   C21   S    
Br2   C95   S    
C19   C28   S    
C15   H62   S    
N1    N29   A    
C55   C60   A    
C46   H53   S    
C38   C60   A    
C57   H54   S    
C100  N16   A    
C8    C98   A    
C26   C92   S    
C7    C80   S    
C83   C93   A    
C63   C78   A    
N11   Ni3   S    
C54   H22   S    
C66   C71   A    
C12   C68   A    
N4    Ni7   S    
C52   H20   S    
N25   Ni4   S    
C40   C42   A    
C53   C55   A    
N19   Ni5   S    
C98   N14   A    
N19   N22   A    
C75   H41   S    
C96   N11   A    
C30   N28   A    
C24   N23   A    
C51   H19   S    
C76   C91   A    
C24   C87   A    
N17   Ni8   S    
C68   H55   S    
C44   H17   S    
C73   C91   S    
C90   N22   A    
C42   C47   A    
C7    C96   A    
C64   H28   S    
N14   N15   A    
C82   C92   A    
Br9   C34   S    
C82   H46   S    
C75   C89   A    
C43   C48   A    
C77   C91   A    
C72   C89   S    
N12   N28   A    
N23   N31   A    
Br11  C36   S    
N18   Ni6   S    
C22   C29   S    
C75   N2    A    
C81   C92   A    
N12   Ni2   S    
C98   H49   S    
C5    H61   S    
C18   H34   S    
N14   Ni5   S    
C71   H39   S    
C60   C85   S    
C7    C97   A    
C4    C14   A    
C59   C86   S    
C21   H3    S    
C5    C12   A    
C18   C22   S    
C15   C19   S    
C6    C78   S    
C77   N4    A    
C39   C61   A    
C3    H52   S    
C16   C20   S    
C23   C26   S    
N21   Ni7   S    
C4    N25   A    
C33   C87   A    
C79   H57   S    
C2    H59   S    
C76   N3    A    
C66   C80   A    
C14   C79   A    
C37   C43   A    
C11   C57   A    
C38   C44   A    
C35   C88   A    
C2    N24   A    
C39   C41   A    
C76   H42   S    
C29   C36   S    
C28   C34   S    
N3    N4    A    
N11   N13   A    
C58   C62   A    
C74   H40   S    
N27   N30   A    
C8    C99   A    
C4    H60   S    
C54   C59   A    
C25   H7    S    
C51   C58   A    
C16   C26   S    
C12   C48   S    
C37   H9    S    
C17   C27   S    
N2    N32   A    
C32   H33   S    
C84   H48   S    
C79   N21   A    
N22   Ni2   S    
C25   C36   S    
C97   N13   A    
N10   Ni2   S    
C19   H45   S    
N9    Ni1   S    
C9    C29   S    
C15   H1    S    
C71   C73   A    
C58   H26   S    
C1    N1    A    
C20   H56   S    
Br10  C36   S    
N20   Ni8   S    
Br5   C13   S    
C23   H5    S    
Br1   C1    S    
C17   H64   S    
C22   H67   S    
N16   Ni7   S    
N13   Ni4   S    
C64   C78   A    
N28   Ni5   S    
C27   C93   S    
C100  H51   S    
N7    Ni4   S    
C46   N18   A    
N20   N26   A    
C17   H23   S    
C21   H66   S    
C33   H35   S    
C81   H44   S    
C82   N6    A    
N16   N17   A    
C70   H38   S    
C13   N12   A    
C41   C45   A    
C64   C69   A    
C10   C46   A    
N1    Ni1   S    
C40   H13   S    
C16   H12   S    
C16   H63   S    
C62   C87   S    
C35   N27   A    
Br3   C96   S    
C70   C73   A    
Br7   C35   S    
C42   H15   S    
C23   C34   S    
C47   C51   A    
C50   H18   S    
C94   N9    A    
C50   C56   A    
C19   H68   S    
C48   C52   A    
C21   C29   S    
C9    C100  A    
C2    C10   A    
C66   H30   S    
C55   H24   S    
C56   C61   A    
N7    N8    A    
C25   C27   S    
C63   H27   S    
N18   N24   A    
C32   C88   A    
N5    N6    A    
C25   H8    S    
N32   Ni6   S    
C65   C70   A    
C8    C28   S    
N24   Ni1   S    
C95   N10   A    
N27   Ni4   S    
C18   H65   S    
Br6   C24   S    
C18   C27   S    
C67   H36   S    
C32   N30   A    
C20   C28   S    
C1    C85   A    
N9    N10   A    
C31   N29   A    
C65   H29   S    
N8    Ni3   S    
C41   H14   S    
N30   Ni7   S    
C49   C53   A    
C13   C86   A    
C3    C9    A    
C43   H16   S    
N2    Ni5   S    
C31   C85   A    
C37   C59   A    
C99   N15   A    
C30   H31   S    
C57   N19   A    
N21   N25   A    
C44   C49   A    
C23   H6    S    
C31   H32   S    
Br8   C34   S    
C20   H2    S    
C74   C89   A    
C63   C67   A    
N15   Ni6   S    
C53   H21   S    
C52   C54   A    
C81   N5    A    
