data_mof_unit_34209.cif
_audit_creation_date              2012-12-10T18:11:42-0500
_audit_creation_method            fapswitch 2.2
_symmetry_space_group_name_H-M    P1
_symmetry_Int_Tables_number       1
_space_group_crystal_system       triclinic
_cell_length_a                    10.499141
_cell_length_b                    12.600503
_cell_length_c                    13.105639
_cell_angle_alpha                 82.317875
_cell_angle_beta                  90.63982
_cell_angle_gamma                 102.196797
_cell_volume                      1679.19680663

loop_
_atom_site_label
_atom_site_type_symbol
_atom_type_description
_atom_site_fract_x
_atom_site_fract_y
_atom_site_fract_z
_atom_type_partial_charge
C1    C     C_R   0.475503 0.438966 0.690905 0.865792
C2    C     C_3   0.066906 0.599806 0.515691 -0.167646
C3    C     C_3   0.965576 0.524125 0.592179 -0.203461
C4    C     C_3   0.877522 0.499968 0.500873 -0.013262
C5    C     C_R   0.469649 0.725754 0.050052 0.129798
C6    C     C_R   0.511528 0.597414 0.196331 -0.156726
C7    C     C_R   0.449550 0.291845 0.839176 -0.155371
C8    C     C_R   0.437836 0.258164 0.944510 -0.107626
C9    C     C_R   0.430600 0.333826 0.011310 -0.191190
C10   C     C_R   0.428992 0.444290 0.972554 0.107768
C11   C     C_R   0.414839 0.471241 0.866183 0.093295
C12   C     C_R   0.742215 0.500184 0.500515 0.881181
C13   C     C_R   0.447357 0.530303 0.034337 0.049963
C14   C     C_R   0.432831 0.636963 0.992343 0.072861
C15   C     C_R   0.386804 0.652361 0.891936 -0.197580
C16   C     C_R   0.377015 0.570231 0.829865 -0.187189
C17   C     C_R   0.488567 0.513899 0.134794 -0.291341
C18   C     C_R   0.515763 0.706447 0.151134 0.139059
C19   C     C_R   0.442364 0.399497 0.799457 -0.109552
C20   C     C_R   0.313632 0.087402 0.350388 -0.282873
C21   C     C_R   0.655712 0.799510 0.628812 0.024480
C22   C     C_R   0.686804 0.903550 0.658241 -0.212285
C23   C     C_R   0.516460 0.561458 0.307740 0.890370
C24   C     C_R   0.626137 0.984710 0.610749 -0.173494
C25   C     C_R   0.533322 0.961632 0.533296 0.011873
C26   C     C_R   0.504009 0.853832 0.507099 0.240795
C27   C     C_R   0.469540 0.040878 0.480375 -0.008539
C28   C     C_R   0.376310 0.010246 0.404252 0.189686
C29   C     C_R   0.347690 0.903311 0.381608 -0.250347
C30   C     C_R   0.411661 0.826658 0.431722 -0.180144
C31   C     C_R   0.495274 0.150349 0.498751 -0.037297
C32   C     C_R   0.343892 0.194266 0.372059 0.020048
C33   C     C_R   0.257834 0.499769 0.499771 0.872912
C34   C     C_3   0.932992 0.399870 0.485669 -0.152904
C35   C     C_3   0.023720 0.424800 0.576453 0.174113
C36   C     C_3   0.122580 0.499814 0.500417 -0.017899
C37   C     C_3   0.034272 0.475730 0.409252 -0.205778
C38   C     C_3   0.976060 0.575533 0.424436 -0.159773
H1    H     H_    0.505931 0.435215 0.166814 0.180378
H2    H     H_    0.466420 0.234221 0.789104 0.169322
H3    H     H_    0.424633 0.303155 0.092369 0.135956
H4    H     H_    0.440698 0.174464 0.974863 0.180250
H5    H     H_    0.341603 0.585920 0.752660 0.181618
H6    H     H_    0.296497 0.255398 0.331455 0.134435
H7    H     H_    0.277712 0.879278 0.323050 0.167966
H8    H     H_    0.242546 0.065358 0.292064 0.156341
H9    H     H_    0.563975 0.181478 0.554748 0.125662
H10   H     H_    0.702304 0.735880 0.665424 0.143742
H11   H     H_    0.874931 0.318059 0.473819 0.163714
H12   H     H_    0.653669 0.064002 0.636409 0.149179
H13   H     H_    0.757662 0.921284 0.717605 0.172892
H14   H     H_    0.390502 0.747658 0.406834 0.217714
H15   H     H_    0.066842 0.456093 0.334986 0.151112
H16   H     H_    0.951922 0.637093 0.362595 0.153598
H17   H     H_    0.125167 0.681483 0.527747 0.162956
H18   H     H_    0.933099 0.543608 0.666539 0.154120
H19   H     H_    0.363246 0.728749 0.858384 0.185788
N1    N     N_R   0.432930 0.222190 0.444670 -0.102192
N2    N     N_R   0.566370 0.776980 0.554790 -0.130608
O1    O     O_R   0.467970 0.366730 0.627150 -0.604367
O2    O     O_R   0.510820 0.544830 0.662520 -0.627316
O3    O     O_R   0.664630 0.410960 0.482340 -0.625527
O4    O     O_R   0.707470 0.589060 0.517710 -0.612999
O5    O     O_R   0.489180 0.455170 0.337480 -0.624936
O6    O     O_R   0.532030 0.633270 0.372850 -0.603519
O7    O     O_R   0.292530 0.410940 0.482290 -0.598965
O8    O     O_R   0.335370 0.589040 0.517660 -0.660060
Zn1   Zn    Zn3+2 0.471390 0.381080 0.476380 0.955559
Zn2   Zn    Zn3+2 0.528610 0.618920 0.523620 0.940686
I1    I     I_    0.066231 0.306448 0.697357 -0.386672
I2    I     I_    0.615367 0.841817 0.224129 -0.321458
I3    I     I_    0.461954 0.889637 0.983710 -0.386087

loop_
_geom_bond_atom_site_label_1
_geom_bond_atom_site_label_2
_ccdc_geom_bond_type
O7    Zn1   S    
C34   C37   S    
C35   C36   S    
C32   N1    A    
C7    C8    A    
C11   C19   A    
C29   C30   A    
O5    Zn1   S    
C31   N1    A    
C28   C29   A    
C8    H4    S    
C21   N2    A    
C5    I3    S    
C2    H17   S    
O2    Zn2   S    
C15   C16   A    
C33   C36   S    
C34   C35   S    
C17   H1    S    
O4    Zn2   S    
C35   I1    S    
C8    C9    A    
C7    H2    S    
C4    C12   S    
C9    C10   A    
C21   H10   S    
C37   H15   S    
C31   H9    S    
C21   C22   A    
C15   H19   S    
C33   O7    A    
C24   H12   S    
C6    C18   A    
C4    C34   S    
C1    C19   S    
C27   C31   A    
C24   C25   A    
C1    O1    A    
C12   O4    A    
C5    C18   A    
C20   C28   A    
C25   C26   A    
C29   H7    S    
O8    Zn2   S    
C37   C38   S    
C12   O3    A    
C3    H18   S    
C2    C38   S    
C38   H16   S    
C3    C35   S    
C32   H6    S    
C16   H5    S    
C5    C14   A    
N2    Zn2   S    
N1    Zn1   S    
C23   O5    A    
C4    C38   S    
C26   C30   A    
C7    C19   A    
C22   C24   A    
C3    C4    S    
C33   O8    A    
C20   C32   A    
C2    C36   S    
C18   I2    S    
C6    C17   A    
C30   H14   S    
C36   C37   S    
C34   H11   S    
C10   C13   A    
C1    O2    A    
O3    Zn1   S    
C25   C27   A    
C9    H3    S    
C13   C17   A    
C23   O6    A    
C2    C3    S    
O6    Zn2   S    
C6    C23   S    
C11   C16   A    
C10   C11   A    
O1    Zn1   S    
C27   C28   A    
C14   C15   A    
C26   N2    A    
C13   C14   A    
C20   H8    S    
C22   H13   S    
