data_mof_unit_5011.cif
_audit_creation_date              2012-12-10T18:09:51-0500
_audit_creation_method            fapswitch 2.2
_symmetry_space_group_name_H-M    P1
_symmetry_Int_Tables_number       1
_space_group_crystal_system       triclinic
_cell_length_a                    10.622205
_cell_length_b                    12.598785
_cell_length_c                    13.128597
_cell_angle_alpha                 82.307587
_cell_angle_beta                  90.288701
_cell_angle_gamma                 102.440545
_cell_volume                      1699.75196871

loop_
_atom_site_label
_atom_site_type_symbol
_atom_type_description
_atom_site_fract_x
_atom_site_fract_y
_atom_site_fract_z
_atom_type_partial_charge
C1    C     C_R   0.481388 0.438755 0.691178 0.872551
C2    C     C_R   0.473508 0.447805 0.973440 0.083700
C3    C     C_R   0.437975 0.466131 0.870193 0.079843
C4    C     C_R   0.741902 0.500261 0.499970 0.884352
C5    C     C_R   0.468752 0.529454 0.036503 0.078025
C6    C     C_R   0.410472 0.618677 0.001261 0.176194
C7    C     C_R   0.359666 0.626726 0.903287 -0.257514
C8    C     C_R   0.373136 0.551406 0.838375 -0.206124
C9    C     C_R   0.521936 0.525389 0.133561 -0.264276
C10   C     C_R   0.445002 0.685274 0.165952 -0.212003
C11   C     C_R   0.470239 0.399534 0.800812 -0.122473
C12   C     C_3   0.121156 0.498277 0.500501 0.131691
C13   C     C_R   0.322127 0.088201 0.346531 -0.310772
C14   C     C_R   0.651797 0.799380 0.630139 0.018364
C15   C     C_R   0.682925 0.903896 0.658693 -0.251935
C16   C     C_R   0.512921 0.561106 0.308827 0.853693
C17   C     C_R   0.625436 0.985534 0.609483 -0.200349
C18   C     C_R   0.536192 0.962663 0.530808 0.014531
C19   C     C_R   0.508187 0.854775 0.504420 0.240841
C20   C     C_R   0.473749 0.041903 0.477563 -0.015403
C21   C     C_R   0.384899 0.011588 0.399632 0.202320
C22   C     C_R   0.359779 0.905257 0.375120 -0.307025
C23   C     C_3   0.094797 0.589477 0.416769 -0.424608
C24   C     C_R   0.420967 0.828311 0.426631 -0.226233
C25   C     C_R   0.495651 0.150770 0.498032 -0.060710
C26   C     C_R   0.348008 0.194297 0.370627 0.004928
C27   C     C_R   0.258032 0.499248 0.500227 0.833991
C28   C     C_3   0.899640 0.386032 0.478011 -0.361932
C29   C     C_3   0.042363 0.385620 0.477704 -0.396653
C30   C     C_3   0.950325 0.589360 0.416242 -0.516436
C31   C     C_3   0.933782 0.522184 0.607723 0.411685
C32   C     C_3   0.878596 0.499395 0.500900 0.095502
C33   C     C_3   0.852020 0.487195 0.775995 -0.348622
C34   C     C_3   0.078332 0.519270 0.607504 -0.455200
C35   C     C_R   0.401652 0.697369 0.065602 -0.206011
C36   C     C_R   0.501579 0.596803 0.200326 -0.047254
C37   C     C_R   0.510900 0.302900 0.837229 -0.176651
C38   C     C_R   0.527616 0.276027 0.941615 -0.164381
C39   C     C_R   0.512209 0.348585 0.009272 -0.202270
H1    H     H_    0.860401 0.368649 0.401662 0.171085
H2    H     H_    0.528115 0.323582 0.089261 0.136710
H3    H     H_    0.558004 0.200932 0.969743 0.144848
H4    H     H_    0.848385 0.318749 0.536804 0.208329
H5    H     H_    0.331032 0.559950 0.763298 0.163132
H6    H     H_    0.300847 0.255007 0.330272 0.133311
H7    H     H_    0.292585 0.881334 0.315579 0.149158
H8    H     H_    0.254171 0.066292 0.286977 0.143223
H9    H     H_    0.561524 0.181701 0.555120 0.128182
H10   H     H_    0.695832 0.735423 0.668234 0.130543
H11   H     H_    0.652654 0.065096 0.634682 0.137893
H12   H     H_    0.135197 0.598851 0.626793 0.140805
H13   H     H_    0.751189 0.921571 0.718900 0.148748
H14   H     H_    0.398224 0.748503 0.403736 0.209629
H15   H     H_    0.060023 0.318650 0.536835 0.187741
H16   H     H_    0.071594 0.368208 0.401328 0.177334
H17   H     H_    0.911181 0.573968 0.339464 0.183851
H18   H     H_    0.126727 0.576008 0.339775 0.170850
H19   H     H_    0.924786 0.607039 0.618198 0.062681
H20   H     H_    0.097377 0.453966 0.667812 0.183987
H21   H     H_    0.786292 0.545345 0.763560 0.168317
H22   H     H_    0.947120 0.528706 0.803108 0.159549
H23   H     H_    0.936490 0.671637 0.429380 0.187471
H24   H     H_    0.807879 0.420350 0.837368 0.208483
H25   H     H_    0.149750 0.671359 0.431897 0.188344
H26   H     H_    0.428059 0.741028 0.217701 0.147082
H27   H     H_    0.311218 0.692228 0.876190 0.145678
H28   H     H_    0.356326 0.765182 0.039828 0.134507
H29   H     H_    0.575044 0.463829 0.161459 0.143738
H30   H     H_    0.534262 0.250191 0.784672 0.159258
N1    N     N_R   0.433240 0.222190 0.444680 -0.102306
N2    N     N_R   0.566070 0.776970 0.554790 -0.130245
O1    O     O_R   0.468120 0.366740 0.627160 -0.608939
O2    O     O_R   0.510770 0.544830 0.662520 -0.618064
O3    O     O_R   0.663880 0.410950 0.482330 -0.622830
O4    O     O_R   0.706530 0.589040 0.517700 -0.636458
O5    O     O_R   0.489230 0.455170 0.337480 -0.615097
O6    O     O_R   0.531880 0.633260 0.372840 -0.633277
O7    O     O_R   0.293470 0.410960 0.482300 -0.625088
O8    O     O_R   0.336120 0.589050 0.517670 -0.646992
O9    O     O_3   0.865897 0.441084 0.685645 -0.615154
Zn1   Zn    Zn3+2 0.471520 0.381090 0.476390 0.934208
Zn2   Zn    Zn3+2 0.528480 0.618910 0.523610 0.918403

loop_
_geom_bond_atom_site_label_1
_geom_bond_atom_site_label_2
_ccdc_geom_bond_type
C37   H30   S    
C12   C29   S    
C14   N2    A    
C19   N2    A    
C1    C11   S    
C27   O7    A    
C31   O9    S    
C39   H2    S    
C12   C23   S    
C34   H12   S    
C31   H19   S    
C28   C29   S    
C38   H3    S    
C27   O8    A    
C5    C6    A    
C14   H10   S    
C20   C25   A    
C28   H1    S    
C6    C35   A    
C15   C17   A    
C18   C19   A    
C11   C37   A    
N1    Zn1   S    
C4    O4    A    
C26   H6    S    
C2    C39   A    
C9    C36   A    
C10   C35   A    
C4    O3    A    
O1    Zn1   S    
N2    Zn2   S    
C21   C22   A    
C28   C32   S    
C1    O1    A    
C12   C27   S    
C23   C30   S    
C7    C8    A    
C3    C8    A    
C13   H8    S    
C29   H16   S    
C24   H14   S    
C30   H17   S    
C17   H11   S    
C5    C9    A    
C37   C38   A    
C31   C32   S    
C35   H28   S    
C33   H24   S    
C17   C18   A    
C31   C34   S    
C13   C21   A    
C33   O9    S    
C15   H13   S    
C25   H9    S    
C4    C32   S    
C23   H25   S    
C22   H7    S    
C33   H21   S    
C30   H23   S    
C34   H20   S    
C26   N1    A    
C22   C24   A    
C13   C26   A    
C2    C5    A    
O3    Zn1   S    
C12   C34   S    
O2    Zn2   S    
C10   H26   S    
C23   H18   S    
C16   O5    A    
C8    H5    S    
O5    Zn1   S    
O8    Zn2   S    
O4    Zn2   S    
C6    C7    A    
C28   H4    S    
C1    O2    A    
C19   C24   A    
C9    H29   S    
C16   C36   S    
C7    H27   S    
C30   C32   S    
O7    Zn1   S    
C38   C39   A    
O6    Zn2   S    
C2    C3    A    
C18   C20   A    
C3    C11   A    
C20   C21   A    
C33   H22   S    
C29   H15   S    
C14   C15   A    
C16   O6    A    
C10   C36   A    
C25   N1    A    
