data_mof_unit_21679.cif
_audit_creation_date              2012-12-11T14:15:42-0500
_audit_creation_method            fapswitch 2.2
_symmetry_space_group_name_H-M    P1
_symmetry_Int_Tables_number       1
_space_group_crystal_system       triclinic
_cell_length_a                    11.150319
_cell_length_b                    12.709594
_cell_length_c                    23.491072
_cell_angle_alpha                 90.561612
_cell_angle_beta                  96.701317
_cell_angle_gamma                 68.599321
_cell_volume                      3076.4168603

loop_
_atom_site_label
_atom_site_type_symbol
_atom_type_description
_atom_site_fract_x
_atom_site_fract_y
_atom_site_fract_z
_atom_type_partial_charge
C1    C     C_R   0.149710 0.616790 0.428935 0.541962
C2    C     C_2   0.180881 0.232533 0.226780 -0.112577
C3    C     C_2   0.157009 0.163887 0.263163 -0.093336
C4    C     C_R   0.747576 0.604990 0.404246 0.589842
C5    C     C_1   0.133504 0.197549 0.320912 -0.016174
C6    C     C_1   0.210309 0.197376 0.169816 -0.037237
C7    C     C_1   0.116677 0.231123 0.368642 0.022293
C8    C     C_1   0.167375 0.750044 0.123768 -0.000914
C9    C     C_2   0.143045 0.689065 0.228212 -0.122121
C10   C     C_2   0.237149 0.677004 0.271670 -0.113205
C11   C     C_1   0.218744 0.653064 0.329361 -0.025271
C12   C     C_R   0.677240 0.551231 0.310017 -0.174365
C13   C     C_1   0.155291 0.720979 0.170911 -0.043870
C14   C     C_1   0.194588 0.635195 0.376318 0.020304
C15   C     C_1   0.628657 0.756309 0.864933 0.002596
C16   C     C_R   0.101316 0.281968 0.423471 0.551260
C17   C     C_2   0.700045 0.708892 0.761240 -0.112235
C18   C     C_2   0.611546 0.705452 0.718151 -0.093809
C19   C     C_1   0.649872 0.671015 0.662279 -0.031275
C20   C     C_1   0.664272 0.736171 0.818119 -0.034568
C21   C     C_1   0.689208 0.640501 0.616919 0.008386
C22   C     C_R   0.203805 0.176611 0.852211 0.008856
C23   C     C_R   0.681839 0.741482 0.318934 0.242063
C24   C     C_R   0.115909 0.212200 0.638104 0.009171
C25   C     C_R   0.005343 0.175596 0.714418 -0.143824
C26   C     C_R   0.007077 0.197650 0.656520 -0.164887
C27   C     C_R   0.227232 0.194165 0.677655 0.255130
C28   C     C_R   0.147199 0.615285 0.591754 0.540191
C29   C     C_R   0.212236 0.200005 0.735768 0.040712
C30   C     C_R   0.105141 0.181927 0.754698 0.004762
C31   C     C_R   0.103566 0.166353 0.813396 -0.120644
C32   C     C_R   0.291988 0.219768 0.833028 -0.133103
C33   C     C_R   0.299721 0.226834 0.775181 -0.091928
C34   C     C_R   0.687903 0.745774 0.259166 0.032504
C35   C     C_R   0.125098 0.742617 0.854419 0.009559
C36   C     C_R   0.178462 0.631236 0.652080 0.012018
C37   C     C_R   0.304864 0.564067 0.744043 -0.138699
C38   C     C_R   0.291162 0.557948 0.684510 -0.122961
C39   C     C_R   0.079715 0.709592 0.679291 -0.115737
C40   C     C_R   0.749479 0.602454 0.565930 0.553173
C41   C     C_R   0.090615 0.713818 0.738013 0.037314
C42   C     C_R   0.204765 0.641989 0.770891 0.042137
C43   C     C_R   0.219593 0.654605 0.829600 -0.123947
C44   C     C_R   0.006389 0.805158 0.822418 -0.128182
C45   C     C_R   0.687555 0.651535 0.226410 0.000083
C46   C     C_R   0.989322 0.790886 0.764077 -0.146206
C47   C     C_R   0.265701 0.110161 0.069408 0.543257
C48   C     C_R   0.600932 0.774877 0.081035 0.545670
C49   C     C_R   0.189514 0.787822 0.069795 0.544855
C50   C     C_R   0.241239 0.115332 0.907472 0.547324
C51   C     C_R   0.573913 0.776429 0.918154 0.546305
C52   C     C_R   0.101526 0.275363 0.584243 0.569751
C53   C     C_R   0.163291 0.785523 0.907990 0.545643
C54   C     C_R   0.669265 0.756210 0.139172 0.005173
C55   C     C_R   0.690993 0.638011 0.344594 0.011883
C56   C     C_R   0.687446 0.654897 0.167592 -0.116263
C57   C     C_R   0.676912 0.557511 0.251669 -0.160309
C58   C     C_R   0.681395 0.846742 0.170761 -0.144237
C59   C     C_R   0.694051 0.840424 0.230562 -0.096374
C60   C     C_1   0.235628 0.162628 0.123003 0.002831
Cr1   Cr    Cr6+3 0.189770 0.415650 0.511620 1.093067
Cr2   Cr    Cr6+3 0.930400 0.667320 0.496770 1.100778
Cr3   Cr    Cr6+3 0.879870 0.417010 0.491650 1.041745
Cr4   Cr    Cr6+3 0.149500 0.973980 0.985330 1.027739
Cr5   Cr    Cr6+3 0.457000 0.976510 0.994660 1.032887
Cr6   Cr    Cr6+3 0.411170 0.724270 0.995270 1.022718
H1    H     H_    0.683479 0.582794 0.143389 0.133415
H2    H     H_    0.310439 0.604106 0.854570 0.127157
H3    H     H_    0.671259 0.925227 0.149434 0.141254
H4    H     H_    0.931456 0.871514 0.841410 0.142381
H5    H     H_    0.392895 0.508312 0.768946 0.114370
H6    H     H_    0.900149 0.844333 0.738986 0.126974
H7    H     H_    0.366690 0.495312 0.664009 0.165223
H8    H     H_    0.990465 0.765240 0.655035 0.142268
H9    H     H_    0.671685 0.487081 0.226411 0.126362
H10   H     H_    0.702907 0.911855 0.253438 0.193722
H11   H     H_    0.677618 0.473150 0.328266 0.161904
H12   H     H_    0.053678 0.678607 0.235836 0.140378
H13   H     H_    0.157828 0.081379 0.250148 0.148986
H14   H     H_    0.180882 0.314702 0.240006 0.134934
H15   H     H_    0.326159 0.688484 0.264421 0.150537
H16   H     H_    0.477890 0.071442 0.582479 0.366897
H17   H     H_    0.587627 0.917437 0.443107 0.368422
H18   H     H_    0.510932 0.725755 0.724994 0.149926
H19   H     H_    0.800886 0.686632 0.754461 0.134433
H20   H     H_    0.031379 0.138111 0.828166 0.127052
H21   H     H_    0.365640 0.234838 0.862669 0.135303
H22   H     H_    0.922130 0.162426 0.727998 0.134098
H23   H     H_    0.375309 0.251831 0.761685 0.174362
H24   H     H_    0.921770 0.207559 0.626597 0.153123
O1    O     O_R   0.196340 0.303200 0.448500 -0.489725
O2    O     O_R   0.555390 0.700940 0.062700 -0.518947
O3    O     O_R   0.295020 0.731920 0.049950 -0.494331
O4    O     O_R   0.199310 0.519670 0.454880 -0.500952
O5    O     O_R   0.094290 0.884230 0.921550 -0.517811
O6    O     O_R   0.168980 0.069410 0.926940 -0.501389
O7    O     O_R   0.358400 0.089990 0.927950 -0.513630
O8    O     O_R   0.544850 0.873850 0.939920 -0.488701
O9    O     O_R   0.536020 0.701900 0.936430 -0.513552
O10   O     O_R   0.277070 0.732810 0.932890 -0.506674
O11   O     O_3   0.339220 0.891590 0.991750 -0.244917
O12   O     O_R   0.811960 0.658090 0.547150 -0.489712
O13   O     O_R   0.045660 0.691380 0.441680 -0.471456
O14   O     O_R   0.811930 0.659460 0.430950 -0.428845
O15   O     O_R   0.757900 0.507620 0.421760 -0.531149
O16   O     O_R   0.988630 0.322990 0.439840 -0.499099
O17   O     O_R   0.196380 0.301720 0.573850 -0.423829
O18   O     O_R   0.199350 0.518300 0.571080 -0.490010
O19   O     O_R   0.045700 0.689900 0.567030 -0.520864
O20   O     O_2   0.423833 0.252420 0.651383 -0.307841
O21   O     O_2   0.481889 0.067332 0.699535 -0.295804
O22   O     O_3   0.388507 0.089577 0.592088 -0.499597
O23   O     O_R   0.757930 0.506140 0.547110 -0.503892
O24   O     O_2   0.773218 0.887634 0.373954 -0.283107
O25   O     O_2   0.549592 0.965102 0.326407 -0.294954
O26   O     O_3   0.592556 0.849184 0.421292 -0.512719
O27   O     O_R   0.988670 0.321620 0.556040 -0.516888
O28   O     O_3   0.000020 0.499990 0.500010 -0.281219
O29   O     O_R   0.113660 0.883270 0.047820 -0.507553
O30   O     O_R   0.186930 0.068530 0.043990 -0.496094
O31   O     O_R   0.377770 0.089040 0.054220 -0.509540
O32   O     O_R   0.562800 0.872960 0.056970 -0.500440
S1    S     S_3+6 0.385907 0.151066 0.655933 0.007964
S2    S     S_3+6 0.649771 0.865337 0.360080 0.006110

loop_
_geom_bond_atom_site_label_1
_geom_bond_atom_site_label_2
_ccdc_geom_bond_type
C24   C52   S    
C8    C13   T    
C35   C53   S    
C41   C42   A    
C24   C27   A    
Cr5   O11   S    
C3    H13   S    
C39   C41   A    
C48   C54   S    
Cr2   O19   S    
C45   C57   A    
C37   C38   A    
Cr4   O29   S    
C22   C32   A    
C17   H19   S    
C19   C21   T    
C24   C26   A    
Cr5   O8    S    
C48   O32   A    
C30   C31   A    
Cr3   O27   S    
C11   C14   T    
C47   O31   A    
C53   O5    A    
C29   C33   A    
C17   C20   S    
C27   C29   A    
C18   C19   S    
C39   H8    S    
Cr6   O10   S    
C37   C42   A    
Cr1   O18   S    
C9    C13   S    
C47   C60   S    
C52   O17   A    
C45   C56   A    
C43   H2    S    
C18   H18   S    
C41   C46   A    
C44   H4    S    
C15   C51   S    
Cr3   O15   S    
C35   C43   A    
C9    C10   D    
C1    O13   A    
C46   H6    S    
C16   O16   A    
C22   C50   S    
O24   S2    D    
C52   O27   A    
C51   O8    A    
C31   H20   S    
Cr6   O11   S    
C2    C6    S    
C44   C46   A    
Cr2   O14   S    
C53   O10   A    
C51   O9    A    
C15   C20   T    
C54   C56   A    
C22   C31   A    
O21   S1    D    
C6    C60   T    
Cr4   O6    S    
O22   S1    S    
C5    C7    T    
Cr3   O28   S    
C27   S1    S    
Cr1   O4    S    
C1    O4    A    
Cr6   O2    S    
Cr4   O11   S    
C25   C26   A    
C32   H21   S    
C25   H22   S    
H16   O22   S    
Cr6   O9    S    
C29   C30   A    
C33   H23   S    
O20   S1    D    
C40   O23   A    
C23   C34   A    
C12   H11   S    
C17   C18   D    
C34   C45   A    
Cr5   O32   S    
Cr3   O16   S    
C35   C44   A    
Cr6   O3    S    
C12   C57   A    
C7    C16   S    
Cr5   O31   S    
C37   H5    S    
C4    C55   S    
C34   C59   A    
C42   C43   A    
Cr2   O13   S    
C54   C58   A    
C25   C30   A    
C47   O30   A    
C50   O7    A    
O25   S2    D    
O26   S2    S    
C8    C49   S    
Cr1   O28   S    
H17   O26   S    
C36   C39   A    
Cr4   O5    S    
C3    C5    S    
C58   H3    S    
C23   C55   A    
C23   S2    S    
C28   O19   A    
C26   H24   S    
C56   H1    S    
C4    O15   A    
C10   H15   S    
Cr4   O30   S    
C32   C33   A    
C57   H9    S    
C36   C38   A    
C2    C3    D    
C58   C59   A    
Cr5   O7    S    
C50   O6    A    
C49   O29   A    
C21   C40   S    
C28   O18   A    
C4    O14   A    
C9    H12   S    
Cr1   O17   S    
Cr2   O28   S    
C12   C55   A    
C2    H14   S    
C10   C11   S    
C40   O12   A    
Cr3   O23   S    
C28   C36   S    
C16   O1    A    
C48   O2    A    
C1    C14   S    
C49   O3    A    
C59   H10   S    
Cr1   O1    S    
Cr2   O12   S    
C38   H7    S    
