data_mof_unit_14483.cif
_audit_creation_date              2012-12-10T17:19:18-0500
_audit_creation_method            fapswitch 2.2
_symmetry_space_group_name_H-M    P1
_symmetry_Int_Tables_number       1
_space_group_crystal_system       triclinic
_cell_length_a                    18.851207
_cell_length_b                    18.856916
_cell_length_c                    33.9142
_cell_angle_alpha                 89.946346
_cell_angle_beta                  89.929923
_cell_angle_gamma                 90.161379
_cell_volume                      12055.6093437

loop_
_atom_site_label
_atom_site_type_symbol
_atom_type_description
_atom_site_fract_x
_atom_site_fract_y
_atom_site_fract_z
_atom_type_partial_charge
C1    C     C_R   0.631806 0.977322 0.521393 0.069135
C2    C     C_R   0.867179 0.488317 0.978971 0.070773
C3    C     C_R   0.513204 0.934636 0.958408 0.108226
C4    C     C_R   0.933423 0.500978 0.041547 0.109249
C5    C     C_R   0.066732 0.507694 0.958676 0.109771
C6    C     C_R   0.508369 0.933485 0.041364 0.110440
C7    C     C_R   0.486723 0.065310 0.958531 0.108622
C8    C     C_R   0.000097 0.499680 0.644726 0.789882
C9    C     C_R   0.999904 0.500372 0.355287 0.778251
C10   C     C_R   0.499646 0.000088 0.644716 0.782220
C11   C     C_R   0.500336 0.999913 0.355255 0.789655
C12   C     C_R   0.500097 0.999666 0.144737 0.779763
C13   C     C_R   0.482355 0.132083 0.021213 0.071932
C14   C     C_R   0.499903 0.000350 0.855299 0.791102
C15   C     C_R   0.999641 0.500073 0.144707 0.791301
C16   C     C_R   0.000309 0.499924 0.855275 0.781502
C17   C     C_R   0.858806 0.638961 0.750922 0.817450
C18   C     C_R   0.139339 0.359197 0.250608 0.818839
C19   C     C_R   0.358572 0.861309 0.748843 0.817619
C20   C     C_R   0.639417 0.140946 0.249328 0.818401
C21   C     C_R   0.140377 0.360196 0.750229 0.821027
C22   C     C_R   0.861386 0.641579 0.251242 0.815745
C23   C     C_R   0.641242 0.138875 0.748981 0.816935
C24   C     C_R   0.523064 0.868316 0.978602 0.070226
C25   C     C_R   0.361398 0.858402 0.248764 0.813476
C26   C     C_R   0.862103 0.358030 0.251705 0.816656
C27   C     C_R   0.141427 0.638688 0.751159 0.817582
C28   C     C_R   0.360646 0.140786 0.249407 0.819683
C29   C     C_R   0.641196 0.861045 0.749071 0.817842
C30   C     C_R   0.137819 0.642219 0.251799 0.812255
C31   C     C_R   0.858759 0.361128 0.751021 0.816801
C32   C     C_R   0.638583 0.858403 0.248734 0.815479
C33   C     C_R   0.359623 0.139801 0.749770 0.821401
C34   C     C_R   0.277058 0.622545 0.705904 -0.115421
C35   C     C_R   0.866762 0.494477 0.021288 0.071193
C36   C     C_R   0.744429 0.358523 0.311312 -0.113454
C37   C     C_R   0.368837 0.266937 0.696602 -0.128206
C38   C     C_R   0.621331 0.721988 0.294034 -0.111002
C39   C     C_R   0.724347 0.376490 0.704635 -0.121367
C40   C     C_R   0.255222 0.643816 0.312581 -0.109037
C41   C     C_R   0.635524 0.737308 0.693382 -0.121290
C42   C     C_R   0.373914 0.272689 0.298536 -0.131837
C43   C     C_R   0.264637 0.366592 0.305171 -0.120026
C44   C     C_R   0.724815 0.624170 0.703661 -0.122912
C45   C     C_R   0.375868 0.722619 0.295126 -0.107996
C46   C     C_R   0.133387 0.512596 0.979094 0.068303
C47   C     C_R   0.635904 0.262822 0.693355 -0.125465
C48   C     C_R   0.738555 0.636629 0.308044 -0.108161
C49   C     C_R   0.270175 0.371586 0.699144 -0.136780
C50   C     C_R   0.627100 0.273524 0.298682 -0.112424
C51   C     C_R   0.363670 0.737819 0.692879 -0.122467
C52   C     C_R   0.767055 0.132488 0.195710 -0.117291
C53   C     C_R   0.222948 0.877440 0.794114 -0.114378
C54   C     C_R   0.878401 0.777777 0.205722 -0.111520
C55   C     C_R   0.131185 0.233072 0.803406 -0.126728
C56   C     C_R   0.238851 0.861686 0.191817 -0.119253
C57   C     C_R   0.518296 0.867390 0.020997 0.070744
C58   C     C_R   0.775652 0.123522 0.795378 -0.120139
C59   C     C_R   0.126031 0.227238 0.201543 -0.133351
C60   C     C_R   0.864435 0.762683 0.806613 -0.119917
C61   C     C_R   0.775250 0.875893 0.796257 -0.124261
C62   C     C_R   0.235343 0.133383 0.194857 -0.120436
C63   C     C_R   0.864098 0.237194 0.806658 -0.126615
C64   C     C_R   0.120383 0.779538 0.207753 -0.105021
C65   C     C_R   0.229809 0.128388 0.800837 -0.138410
C66   C     C_R   0.761259 0.863306 0.191862 -0.109284
C67   C     C_R   0.136325 0.762169 0.807134 -0.123777
C68   C     C_R   0.478600 0.131697 0.978879 0.071836
C69   C     C_R   0.882141 0.220171 0.209029 -0.108585
C70   C     C_R   0.330607 0.619189 0.677954 -0.161074
C71   C     C_R   0.683102 0.370201 0.332653 -0.165819
C72   C     C_R   0.378455 0.327261 0.674300 -0.167262
C73   C     C_R   0.617682 0.667009 0.321208 -0.167687
C74   C     C_R   0.670077 0.380466 0.677342 -0.164222
C75   C     C_R   0.317528 0.630405 0.332692 -0.166125
C76   C     C_R   0.623941 0.675502 0.672558 -0.166858
C77   C     C_R   0.380179 0.330203 0.323340 -0.175041
C78   C     C_R   0.326144 0.377585 0.326310 -0.164447
C79   C     C_R   0.308649 0.744966 0.722550 0.076601
C80   C     C_R   0.669266 0.619710 0.677217 -0.168055
C81   C     C_R   0.377071 0.670832 0.324503 -0.161893
C82   C     C_R   0.625088 0.324345 0.672188 -0.170510
C83   C     C_R   0.675224 0.623376 0.327531 -0.164948
C84   C     C_R   0.329004 0.379274 0.675426 -0.174494
C85   C     C_R   0.625406 0.326714 0.326954 -0.168120
C86   C     C_R   0.374822 0.676025 0.671998 -0.170622
C87   C     C_R   0.830086 0.120606 0.175924 -0.171067
C88   C     C_R   0.169400 0.880795 0.822065 -0.159760
C89   C     C_R   0.882011 0.832759 0.178560 -0.166957
C90   C     C_R   0.690259 0.257534 0.275844 0.075037
C91   C     C_R   0.121565 0.172750 0.825710 -0.166444
C92   C     C_R   0.176473 0.874032 0.171544 -0.170964
C93   C     C_R   0.829924 0.119548 0.822671 -0.163043
C94   C     C_R   0.119871 0.169866 0.176632 -0.174847
C95   C     C_R   0.876019 0.824480 0.827442 -0.166494
C96   C     C_R   0.830747 0.880310 0.822743 -0.169137
C97   C     C_R   0.173903 0.122495 0.173648 -0.164737
C98   C     C_R   0.874914 0.175670 0.827825 -0.171097
C99   C     C_R   0.118135 0.831879 0.178875 -0.158116
C100  C     C_R   0.170998 0.120721 0.824571 -0.175496
C101  C     C_R   0.258173 0.311475 0.724889 0.079542
C102  C     C_R   0.824531 0.876501 0.172327 -0.166490
C103  C     C_R   0.125181 0.823961 0.828018 -0.170962
C104  C     C_R   0.886649 0.165401 0.181903 -0.160458
C105  C     C_R   0.500088 0.000063 0.520628 -0.048708
C106  C     C_R   0.500193 0.999505 0.479439 -0.050026
C107  C     C_R   0.000429 0.499648 0.520506 -0.049385
C108  C     C_R   0.999873 0.499819 0.479327 -0.050114
C109  C     C_R   0.000192 0.500262 0.020662 -0.050277
C110  C     C_R   0.000354 0.499859 0.979492 -0.048881
C111  C     C_R   0.500540 0.999767 0.020564 -0.049934
C112  C     C_R   0.367928 0.018670 0.478786 0.072037
C113  C     C_R   0.745051 0.691316 0.277677 0.072821
C114  C     C_R   0.499986 0.999873 0.979388 -0.049051
C115  C     C_3   0.706055 0.964514 0.541587 -0.391928
C116  C     C_3   0.722453 0.955376 0.585450 -0.915659
C117  C     C_3   0.294492 0.034135 0.458517 -0.396874
C118  C     C_3   0.274713 0.021849 0.415386 -0.906387
C119  C     C_3   0.012997 0.707844 0.541443 -0.395625
C120  C     C_3   0.034200 0.724199 0.584084 -0.899248
C121  C     C_3   0.992306 0.291100 0.458314 -0.388624
C122  C     C_3   0.001780 0.273201 0.414551 -0.912488
C123  C     C_3   0.293008 0.025706 0.541394 -0.395109
C124  C     C_R   0.691246 0.255302 0.722713 0.076891
C125  C     C_3   0.276509 0.041236 0.584638 -0.910510
C126  C     C_3   0.707264 0.970588 0.458990 -0.395700
C127  C     C_3   0.726543 0.979851 0.415464 -0.906819
C128  C     C_3   0.980774 0.291471 0.540883 -0.393561
C129  C     C_3   0.963011 0.275194 0.584133 -0.899868
C130  C     C_3   0.015969 0.707612 0.458281 -0.390396
C131  C     C_3   0.002925 0.726380 0.415034 -0.914538
C132  C     C_3   0.209177 0.504169 0.041516 -0.390792
C133  C     C_3   0.226582 0.495840 0.085427 -0.902581
C134  C     C_3   0.792234 0.486128 0.958584 -0.391531
C135  C     C_R   0.311608 0.740415 0.274024 0.073270
C136  C     C_3   0.776103 0.463514 0.916133 -0.907525
C137  C     C_3   0.467746 0.205605 0.041536 -0.394272
C138  C     C_3   0.482094 0.225476 0.084429 -0.913844
C139  C     C_3   0.536455 0.794218 0.958399 -0.397264
C140  C     C_3   0.547253 0.778266 0.914634 -0.906447
C141  C     C_3   0.792337 0.485462 0.041788 -0.395687
C142  C     C_3   0.773670 0.499829 0.084921 -0.900945
C143  C     C_3   0.208245 0.524485 0.959412 -0.387298
C144  C     C_3   0.224272 0.540545 0.915906 -0.906837
C145  C     C_3   0.527472 0.792562 0.040923 -0.391878
C146  C     C_R   0.740030 0.687124 0.726504 0.077231
C147  C     C_3   0.516129 0.773198 0.084243 -0.918588
C148  C     C_3   0.473438 0.206639 0.958587 -0.397659
C149  C     C_3   0.456693 0.222738 0.915464 -0.904905
C150  C     C_R   0.256058 0.309711 0.276695 0.075069
C151  C     C_R   0.312274 0.259078 0.274260 0.078605
C152  C     C_R   0.691072 0.744719 0.722747 0.075943
C153  C     C_R   0.251351 0.695168 0.280368 0.074409
C154  C     C_R   0.739885 0.313081 0.726841 0.075927
C155  C     C_R   0.685978 0.738851 0.272556 0.074533
C156  C     C_R   0.011419 0.632864 0.521073 0.070873
C157  C     C_R   0.310525 0.256939 0.723954 0.077197
C158  C     C_R   0.749260 0.305046 0.280552 0.073628
C159  C     C_R   0.260688 0.686609 0.727312 0.074176
C160  C     C_R   0.817164 0.236547 0.229913 0.074856
C161  C     C_R   0.191349 0.755022 0.777463 0.077054
C162  C     C_R   0.754800 0.808597 0.222215 0.073553
C163  C     C_R   0.241826 0.188513 0.775104 0.079914
C164  C     C_R   0.184971 0.762365 0.228613 0.074768
C165  C     C_R   0.808756 0.244710 0.777298 0.077371
C166  C     C_R   0.243901 0.190233 0.223357 0.075515
C167  C     C_R   0.994881 0.366333 0.478547 0.068306
C168  C     C_R   0.759990 0.812903 0.773453 0.077335
C169  C     C_R   0.808918 0.755289 0.777231 0.075444
C170  C     C_R   0.187674 0.240850 0.225808 0.078985
C171  C     C_R   0.760116 0.186929 0.773169 0.075838
C172  C     C_R   0.244626 0.808536 0.222719 0.075069
C173  C     C_R   0.189484 0.243058 0.776045 0.076789
C174  C     C_R   0.813850 0.761014 0.227297 0.074797
C175  C     C_R   0.239313 0.813379 0.772702 0.074103
C176  C     C_R   0.758721 0.188345 0.225074 0.074251
C177  C     C_R   0.300372 0.806905 0.747099 -0.208744
C178  C     C_R   0.368113 0.021146 0.521157 0.071162
C179  C     C_R   0.695728 0.197546 0.249093 -0.207129
C180  C     C_R   0.196978 0.304402 0.750571 -0.206548
C181  C     C_R   0.807227 0.699895 0.253074 -0.209192
C182  C     C_R   0.699215 0.193488 0.747471 -0.207979
C183  C     C_R   0.306604 0.800225 0.247288 -0.209110
C184  C     C_R   0.800967 0.693625 0.752287 -0.208185
C185  C     C_R   0.194503 0.301931 0.251523 -0.206602
C186  C     C_R   0.305450 0.198010 0.248532 -0.206906
C187  C     C_R   0.699039 0.806391 0.747685 -0.207640
C188  C     C_R   0.190584 0.702200 0.254817 -0.212509
C189  C     C_R   0.632531 0.980768 0.478951 0.070980
C190  C     C_R   0.800786 0.306520 0.752537 -0.207353
C191  C     C_R   0.692661 0.800029 0.246832 -0.209262
C192  C     C_R   0.303024 0.195592 0.749424 -0.205870
C193  C     C_R   0.809901 0.298064 0.254972 -0.210241
C194  C     C_R   0.199627 0.693087 0.752911 -0.208152
C195  C     C_R   0.438344 0.016325 0.582544 -0.214687
C196  C     C_R   0.563338 0.992278 0.417362 -0.208320
C197  C     C_R   0.991776 0.436553 0.582597 -0.210233
C198  C     C_R   0.993068 0.563466 0.417489 -0.217749
C199  C     C_R   0.561359 0.985067 0.582682 -0.214412
C200  C     C_R   0.988716 0.366509 0.520949 0.069322
C201  C     C_R   0.437327 0.005549 0.417369 -0.206971
C202  C     C_R   0.010569 0.562258 0.582550 -0.207863
C203  C     C_R   0.005199 0.436822 0.417305 -0.214755
C204  C     C_R   0.936650 0.508123 0.082483 -0.209011
C205  C     C_R   0.063307 0.509680 0.917404 -0.214356
C206  C     C_R   0.506215 0.936515 0.082615 -0.216598
C207  C     C_R   0.482288 0.061198 0.917531 -0.211312
C208  C     C_R   0.063079 0.493165 0.082637 -0.209060
C209  C     C_R   0.937884 0.488549 0.917484 -0.214381
C210  C     C_R   0.496060 0.062734 0.082616 -0.211904
C211  C     C_R   0.006264 0.633230 0.478723 0.070018
C212  C     C_R   0.516347 0.939012 0.917347 -0.208209
C213  C     C_R   0.499713 0.000371 0.602257 -0.058800
C214  C     C_R   0.500410 0.999569 0.397784 -0.060566
C215  C     C_R   0.000465 0.499509 0.602174 -0.059965
C216  C     C_R   0.999589 0.500274 0.397727 -0.053720
C217  C     C_R   0.999737 0.500301 0.102252 -0.057275
C218  C     C_R   0.000491 0.499665 0.897834 -0.056889
C219  C     C_R   0.500463 0.999571 0.102207 -0.057147
C220  C     C_R   0.499608 0.000252 0.897770 -0.061507
C221  C     C_R   0.565499 0.987445 0.541601 0.108918
C222  C     C_R   0.133697 0.504452 0.021411 0.069428
C223  C     C_R   0.434127 0.007933 0.458506 0.107866
C224  C     C_R   0.007727 0.565930 0.541405 0.107354
C225  C     C_R   0.999883 0.433213 0.458354 0.109319
C226  C     C_R   0.434478 0.012731 0.541509 0.108306
C227  C     C_R   0.566410 0.990797 0.458617 0.109396
C228  C     C_R   0.993416 0.433200 0.541327 0.109628
C229  C     C_R   0.999732 0.566596 0.458446 0.110059
C230  C     C_R   0.066799 0.499321 0.041615 0.109439
C231  C     C_R   0.934125 0.491976 0.958618 0.108011
C232  C     C_R   0.492983 0.065897 0.041493 0.107917
H1    H     H_    0.254809 0.568825 0.710593 0.169945
H2    H     H_    0.749926 0.572117 0.704796 0.173975
H3    H     H_    0.939219 0.267685 0.465016 0.204842
H4    H     H_    0.290343 0.995061 0.603647 0.257263
H5    H     H_    0.300685 0.092798 0.593968 0.263324
H6    H     H_    0.217801 0.047513 0.587843 0.246954
H7    H     H_    0.263765 0.069892 0.527018 0.206096
H8    H     H_    0.265212 0.974659 0.534992 0.205534
H9    H     H_    0.704876 0.935345 0.397442 0.260468
H10   H     H_    0.712041 0.033998 0.404720 0.263716
H11   H     H_    0.785419 0.975459 0.412535 0.246510
H12   H     H_    0.743493 0.010138 0.472582 0.206515
H13   H     H_    0.431626 0.742143 0.288945 0.155705
H14   H     H_    0.725694 0.915940 0.466197 0.205214
H15   H     H_    0.010133 0.284790 0.603437 0.254516
H16   H     H_    0.913396 0.303011 0.593618 0.266269
H17   H     H_    0.952218 0.217076 0.586905 0.245631
H18   H     H_    0.935512 0.264580 0.526002 0.206489
H19   H     H_    0.030815 0.261537 0.535093 0.202491
H20   H     H_    0.043654 0.701491 0.395630 0.258317
H21   H     H_    0.946639 0.714915 0.406508 0.258973
H22   H     H_    0.010461 0.784879 0.411401 0.247156
H23   H     H_    0.979027 0.745127 0.473141 0.204608
H24   H     H_    0.599568 0.223432 0.682551 0.184018
H25   H     H_    0.071926 0.724462 0.463917 0.206005
H26   H     H_    0.203981 0.540647 0.102962 0.261734
H27   H     H_    0.211790 0.441653 0.096363 0.259891
H28   H     H_    0.285379 0.500111 0.088985 0.246089
H29   H     H_    0.239697 0.459758 0.027748 0.203905
H30   H     H_    0.235055 0.556004 0.034539 0.205199
H31   H     H_    0.788686 0.507314 0.895084 0.253587
H32   H     H_    0.801744 0.411517 0.909078 0.263967
H33   H     H_    0.717622 0.455343 0.913181 0.246377
H34   H     H_    0.759677 0.446192 0.974668 0.205640
H35   H     H_    0.780994 0.603807 0.322055 0.171331
H36   H     H_    0.767679 0.539620 0.962580 0.202829
H37   H     H_    0.440918 0.202383 0.104225 0.258475
H38   H     H_    0.537937 0.212671 0.092800 0.262828
H39   H     H_    0.476086 0.284105 0.087544 0.247447
H40   H     H_    0.501614 0.245669 0.026488 0.205839
H41   H     H_    0.410848 0.218762 0.036152 0.205873
H42   H     H_    0.498047 0.789641 0.897536 0.259552
H43   H     H_    0.596121 0.804772 0.903091 0.264941
H44   H     H_    0.556263 0.720024 0.911344 0.247007
H45   H     H_    0.585811 0.772296 0.971683 0.206938
H46   H     H_    0.238420 0.417103 0.694001 0.188500
H47   H     H_    0.490512 0.759543 0.965883 0.205662
H48   H     H_    0.798333 0.459489 0.104648 0.262055
H49   H     H_    0.785494 0.556253 0.092985 0.260590
H50   H     H_    0.715111 0.492723 0.088632 0.246113
H51   H     H_    0.754891 0.522046 0.026611 0.204344
H52   H     H_    0.775367 0.429402 0.036632 0.206907
H53   H     H_    0.215275 0.492475 0.897184 0.254026
H54   H     H_    0.195885 0.589479 0.905802 0.262819
H55   H     H_    0.282256 0.552055 0.913071 0.246633
H56   H     H_    0.231894 0.572217 0.973952 0.205747
H57   H     H_    0.571960 0.251872 0.295617 0.168381
H58   H     H_    0.241187 0.476466 0.965771 0.202198
H59   H     H_    0.560101 0.794211 0.102855 0.257056
H60   H     H_    0.461769 0.788323 0.094329 0.262658
H61   H     H_    0.519718 0.714287 0.087106 0.247629
H62   H     H_    0.488415 0.756543 0.026779 0.206906
H63   H     H_    0.582312 0.773961 0.034370 0.204853
H64   H     H_    0.502296 0.208617 0.896098 0.259512
H65   H     H_    0.404832 0.198580 0.906663 0.263668
H66   H     H_    0.450421 0.281408 0.912160 0.246531
H67   H     H_    0.429666 0.235947 0.973327 0.205913
H68   H     H_    0.399199 0.777901 0.681610 0.183063
H69   H     H_    0.524666 0.234463 0.964454 0.206225
H70   H     H_    0.727249 0.096801 0.183138 0.180585
H71   H     H_    0.245202 0.931160 0.789431 0.169692
H72   H     H_    0.933489 0.755073 0.208907 0.160646
H73   H     H_    0.786863 0.391762 0.323431 0.175021
H74   H     H_    0.090052 0.268646 0.811757 0.189788
H75   H     H_    0.280929 0.894022 0.178966 0.176505
H76   H     H_    0.751864 0.071040 0.792414 0.171627
H77   H     H_    0.077089 0.255785 0.199248 0.182802
H78   H     H_    0.900131 0.722782 0.818105 0.182152
H79   H     H_    0.750238 0.928028 0.795027 0.173888
H80   H     H_    0.273617 0.095375 0.184219 0.184951
H81   H     H_    0.900443 0.276583 0.817463 0.183447
H82   H     H_    0.065026 0.759022 0.214012 0.152746
H83   H     H_    0.261522 0.082826 0.805949 0.188344
H84   H     H_    0.409993 0.231379 0.688258 0.189398
H85   H     H_    0.718807 0.896166 0.177873 0.171150
H86   H     H_    0.100776 0.722094 0.818400 0.182435
H87   H     H_    0.936476 0.243395 0.213289 0.162362
H88   H     H_    0.081767 0.828049 0.849004 0.131518
H89   H     H_    0.935658 0.157422 0.165737 0.126740
H90   H     H_    0.164641 0.074338 0.843140 0.129382
H91   H     H_    0.828561 0.920021 0.151300 0.129532
H92   H     H_    0.918514 0.171438 0.848596 0.130536
H93   H     H_    0.069387 0.840272 0.162593 0.126404
H94   H     H_    0.838412 0.928178 0.839897 0.128330
H95   H     H_    0.566198 0.744618 0.290741 0.160984
H96   H     H_    0.169022 0.077840 0.153644 0.131117
H97   H     H_    0.072733 0.162906 0.158786 0.128463
H98   H     H_    0.919884 0.828739 0.848055 0.131121
H99   H     H_    0.173157 0.916437 0.149835 0.131180
H100  H     H_    0.837470 0.071502 0.839657 0.128024
H101  H     H_    0.930768 0.841127 0.162104 0.126872
H102  H     H_    0.076108 0.167255 0.845105 0.130713
H103  H     H_    0.835104 0.076601 0.155368 0.130921
H104  H     H_    0.161543 0.929187 0.838679 0.128323
H105  H     H_    0.577689 0.334432 0.344349 0.128626
H106  H     H_    0.748132 0.428967 0.707604 0.171910
H107  H     H_    0.418232 0.671942 0.651009 0.131513
H108  H     H_    0.671170 0.579861 0.348566 0.131234
H109  H     H_    0.335353 0.425651 0.656852 0.129275
H110  H     H_    0.425673 0.661898 0.340842 0.127532
H111  H     H_    0.581491 0.328574 0.651415 0.130530
H112  H     H_    0.331066 0.422320 0.346256 0.132292
H113  H     H_    0.661621 0.571859 0.660046 0.128178
H114  H     H_    0.580053 0.671227 0.651961 0.131008
H115  H     H_    0.427414 0.337247 0.341115 0.129485
H116  H     H_    0.662529 0.428512 0.660357 0.128135
H117  H     H_    0.211030 0.614591 0.326647 0.164991
H118  H     H_    0.319641 0.588870 0.355155 0.130503
H119  H     H_    0.423920 0.332766 0.654912 0.130656
H120  H     H_    0.568831 0.658549 0.337584 0.127433
H121  H     H_    0.338469 0.570795 0.661342 0.128426
H122  H     H_    0.680374 0.412851 0.354181 0.131484
H123  H     H_    0.396539 0.031476 0.601279 0.165243
H124  H     H_    0.606994 0.987828 0.398403 0.163751
H125  H     H_    0.985190 0.392917 0.601564 0.163573
H126  H     H_    0.981993 0.607221 0.399000 0.160676
H127  H     H_    0.603478 0.972437 0.601626 0.165264
H128  H     H_    0.599794 0.777200 0.681890 0.181290
H129  H     H_    0.393526 0.007114 0.398427 0.163029
H130  H     H_    0.020752 0.605264 0.601445 0.164388
H131  H     H_    0.013446 0.393126 0.398488 0.162526
H132  H     H_    0.893065 0.520402 0.100916 0.162397
H133  H     H_    0.106830 0.517028 0.898415 0.162577
H134  H     H_    0.509100 0.892744 0.101548 0.161995
H135  H     H_    0.465531 0.102496 0.898906 0.165876
H136  H     H_    0.106594 0.483371 0.101390 0.163322
H137  H     H_    0.895069 0.477154 0.898637 0.163154
H138  H     H_    0.496158 0.106588 0.101513 0.162033
H139  H     H_    0.422795 0.244054 0.300922 0.183615
H140  H     H_    0.530590 0.897367 0.898453 0.166911
H141  H     H_    0.711160 0.005193 0.602046 0.257644
H142  H     H_    0.696135 0.906869 0.597621 0.262113
H143  H     H_    0.780759 0.946579 0.588669 0.247872
H144  H     H_    0.727797 0.914618 0.528804 0.206650
H145  H     H_    0.740754 0.010141 0.533490 0.205172
H146  H     H_    0.298356 0.063626 0.396167 0.260521
H147  H     H_    0.286974 0.966225 0.406304 0.263856
H148  H     H_    0.216140 0.028568 0.412267 0.246667
H149  H     H_    0.254321 0.999667 0.473083 0.205610
H150  H     H_    0.226327 0.404546 0.315821 0.185458
H151  H     H_    0.281415 0.090833 0.464607 0.206242
H152  H     H_    0.989832 0.711427 0.604736 0.256186
H153  H     H_    0.086132 0.698884 0.591624 0.265628
H154  H     H_    0.041969 0.782711 0.587063 0.245559
H155  H     H_    0.053419 0.740359 0.525711 0.205384
H156  H     H_    0.959605 0.732340 0.536941 0.203669
H157  H     H_    0.957369 0.295498 0.396622 0.257770
H158  H     H_    0.056178 0.287997 0.403956 0.259732
H159  H     H_    0.997531 0.214390 0.411142 0.247116
H160  H     H_    0.034873 0.258662 0.472341 0.204821
O1    O     O_3   1.000000 0.500000 0.750000 -0.478236
O2    O     O_R   0.060740 0.500000 0.337440 -0.650034
O3    O     O_R   0.500000 0.939260 0.662560 -0.650296
O4    O     O_R   0.500000 0.060740 0.337440 -0.637717
O5    O     O_R   0.560740 0.000000 0.162560 -0.650763
O6    O     O_R   0.439260 0.000000 0.837440 -0.640096
O7    O     O_R   1.000000 0.560740 0.162560 -0.634383
O8    O     O_R   1.000000 0.439260 0.837440 -0.648872
O9    O     O_R   0.439260 0.000000 0.162560 -0.648841
O10   O     O_R   0.560740 0.000000 0.837440 -0.635931
O11   O     O_R   1.000000 0.439260 0.162560 -0.636370
O12   O     O_3   1.000000 0.500000 0.250000 -0.480705
O13   O     O_R   0.000000 0.560740 0.837440 -0.649586
O14   O     O_R   0.853850 0.585450 0.727070 -0.666143
O15   O     O_R   0.146150 0.414550 0.272930 -0.661267
O16   O     O_R   0.414550 0.853850 0.727070 -0.661068
O17   O     O_R   0.585450 0.146150 0.272930 -0.663382
O18   O     O_R   0.146150 0.414550 0.727070 -0.671850
O19   O     O_R   0.853850 0.585450 0.272930 -0.656611
O20   O     O_R   0.585450 0.146150 0.727070 -0.663805
O21   O     O_R   0.414550 0.853850 0.272930 -0.660071
O22   O     O_R   0.853850 0.414550 0.272930 -0.657027
O23   O     O_3   0.500000 1.000000 0.750000 -0.478046
O24   O     O_R   0.146150 0.585450 0.727070 -0.661915
O25   O     O_R   0.414550 0.146150 0.272930 -0.669838
O26   O     O_R   0.585450 0.853850 0.727070 -0.661298
O27   O     O_R   0.146150 0.585450 0.272930 -0.652748
O28   O     O_R   0.853850 0.414550 0.727070 -0.665382
O29   O     O_R   0.585450 0.853850 0.272930 -0.662512
O30   O     O_R   0.414550 0.146150 0.727070 -0.665722
O31   O     O_R   0.353850 0.085450 0.227070 -0.662244
O32   O     O_R   0.646150 0.914550 0.772930 -0.666771
O33   O     O_R   0.914550 0.353850 0.227070 -0.660629
O34   O     O_3   0.500000 1.000000 0.250000 -0.479614
O35   O     O_R   0.085450 0.646150 0.772930 -0.661415
O36   O     O_R   0.646150 0.914550 0.227070 -0.658357
O37   O     O_R   0.353850 0.085450 0.772930 -0.672442
O38   O     O_R   0.085450 0.646150 0.227070 -0.659238
O39   O     O_R   0.914550 0.353850 0.772930 -0.664161
O40   O     O_R   0.353850 0.914550 0.772930 -0.661208
O41   O     O_R   0.646150 0.085450 0.227070 -0.660115
O42   O     O_R   0.914550 0.646150 0.772930 -0.660977
O43   O     O_R   0.085450 0.353850 0.227070 -0.671052
O44   O     O_R   0.646150 0.085450 0.772930 -0.664641
O45   O     O_R   0.060740 0.500000 0.662560 -0.639851
O46   O     O_R   0.353850 0.914550 0.227070 -0.658894
O47   O     O_R   0.085450 0.353850 0.772930 -0.665235
O48   O     O_R   0.914550 0.646150 0.227070 -0.663205
O49   O     O_R   0.939260 0.500000 0.337440 -0.653245
O50   O     O_R   0.500000 0.060740 0.662560 -0.649071
O51   O     O_R   0.500000 0.939260 0.337440 -0.634483
O52   O     O_R   0.939260 0.500000 0.662560 -0.634901
Zn1   Zn    Zn3+2 1.000000 0.586740 0.782740 0.941806
Zn2   Zn    Zn3+2 0.500000 0.913260 0.717260 0.941815
Zn3   Zn    Zn3+2 0.913260 0.500000 0.282740 0.940502
Zn4   Zn    Zn3+2 0.086740 0.500000 0.717260 0.947152
Zn5   Zn    Zn3+2 0.500000 0.913260 0.282740 0.951269
Zn6   Zn    Zn3+2 0.500000 0.086740 0.717260 0.939136
Zn7   Zn    Zn3+2 0.086740 0.500000 0.282740 0.941069
Zn8   Zn    Zn3+2 0.913260 0.500000 0.717260 0.948685
Zn9   Zn    Zn3+2 1.000000 0.413260 0.217260 0.948713
Zn10  Zn    Zn3+2 0.413260 1.000000 0.782740 0.947412
Zn11  Zn    Zn3+2 0.586740 0.000000 0.217260 0.941100
Zn12  Zn    Zn3+2 1.000000 0.413260 0.782740 0.939038
Zn13  Zn    Zn3+2 1.000000 0.586740 0.217260 0.951570
Zn14  Zn    Zn3+2 0.586740 1.000000 0.782740 0.948715
Zn15  Zn    Zn3+2 0.413260 0.000000 0.217260 0.940913
Zn16  Zn    Zn3+2 0.500000 0.086740 0.282740 0.947952

loop_
_geom_bond_atom_site_label_1
_geom_bond_atom_site_label_2
_ccdc_geom_bond_type
C12   O9    A    
C159  C194  A    
C126  C127  S    
C57   C145  S    
C126  H14   S    
C83   H108  S    
C64   C164  A    
C198  C216  A    
C150  C185  A    
C3    C24   A    
C175  C177  A    
C147  H59   S    
C117  H151  S    
C2    C134  S    
C15   O7    A    
C139  H47   S    
C22   C181  S    
C197  H125  S    
C60   H78   S    
O1    Zn1   S    
O12   Zn9   S    
C61   H79   S    
C10   O3    A    
C149  H66   S    
C208  C217  A    
C69   C160  A    
O35   Zn1   S    
C1    C221  A    
C209  C231  A    
C39   C74   A    
C78   H112  S    
C31   O28   A    
C55   C173  A    
C7    C68   A    
C29   O26   A    
C50   C90   A    
C176  C179  A    
C39   H106  S    
C167  C200  A    
C120  H152  S    
C203  H131  S    
C163  C192  A    
C91   C100  A    
C36   C71   A    
O17   Zn16  S    
C67   H86   S    
C143  H56   S    
C168  C187  A    
C144  H55   S    
C96   H94   S    
O6    Zn10  S    
C14   C220  S    
C189  C227  A    
C127  H10   S    
C113  C155  A    
C123  C178  S    
C51   H68   S    
C118  H147  S    
C129  H17   S    
C158  C193  A    
C39   C154  A    
C42   H139  S    
C23   C182  S    
C145  H63   S    
C59   H77   S    
C212  C220  A    
C94   C97   A    
C77   C78   A    
C36   H73   S    
C75   H118  S    
C76   H114  S    
C17   O42   A    
C124  C182  A    
C109  C230  A    
O1    Zn12  S    
O27   Zn7   S    
C165  C190  A    
O14   Zn8   S    
C72   C84   A    
C11   O51   A    
C133  H26   S    
C9    O49   A    
C126  H12   S    
O21   Zn5   S    
O11   Zn9   S    
C203  C225  A    
C7    C114  A    
C112  C178  A    
C129  H15   S    
C80   H113  S    
C93   H100  S    
C103  H88   S    
C28   O31   A    
C166  C186  A    
C139  H45   S    
C45   C81   A    
C26   O33   A    
C164  C188  A    
C46   C222  A    
C139  C140  S    
C131  H21   S    
C10   C213  S    
C206  C219  A    
C63   C98   A    
C33   O37   A    
C5    C46   A    
O44   Zn14  S    
C48   H35   S    
C61   C168  A    
C69   H87   S    
C130  C131  S    
C47   H24   S    
C23   O20   A    
C142  H50   S    
C95   H98   S    
C205  H133  S    
C17   C184  S    
C54   C174  A    
C30   O27   A    
C170  C185  A    
C58   C171  A    
C201  C214  A    
C11   C214  S    
C60   C95   A    
O10   Zn14  S    
C199  H127  S    
C106  C227  A    
C1    C115  S    
C27   O24   A    
C32   O29   A    
C73   C83   A    
C125  H6    S    
C18   O15   A    
C41   C76   A    
C165  C171  A    
O23   Zn6   S    
C4    C109  A    
C6    C111  A    
C135  C183  A    
C128  C129  S    
C119  H156  S    
C61   C96   A    
C67   C103  A    
C169  C184  A    
C31   C190  S    
C23   O44   A    
C149  H64   S    
C60   C169  A    
C49   C84   A    
C18   O43   A    
C25   O21   A    
C5    C110  A    
C62   H80   S    
C115  C116  S    
C27   O35   A    
C86   H107  S    
C43   H150  S    
C37   C157  A    
O16   Zn2   S    
C64   C99   A    
C113  C181  A    
C33   O30   A    
C24   C57   A    
C107  C108  A    
C79   C177  A    
C16   C218  S    
C19   C177  S    
O34   Zn16  S    
C68   C148  S    
C34   C159  A    
C99   H93   S    
C94   H97   S    
O51   Zn5   S    
C156  C211  A    
C15   O11   A    
C130  C211  S    
C162  C191  A    
C38   C155  A    
C66   H85   S    
O12   Zn13  S    
C20   C179  S    
C123  H7    S    
C121  H160  S    
O39   Zn12  S    
C122  H159  S    
C45   C135  A    
C128  H19   S    
C144  H54   S    
C127  H11   S    
C7    C207  A    
C142  H48   S    
O9    Zn15  S    
O42   Zn1   S    
C73   H120  S    
C210  C219  A    
C120  H153  S    
C63   H81   S    
C85   H105  S    
C141  H52   S    
C28   C186  S    
C62   C97   A    
C196  C214  A    
C106  C223  A    
O8    Zn12  S    
C65   C163  A    
C212  H140  S    
C27   C194  S    
C31   O39   A    
C50   H57   S    
C42   C151  A    
C43   C150  A    
O19   Zn3   S    
C62   C166  A    
C35   C141  S    
C166  C170  A    
O22   Zn3   S    
C40   C153  A    
C164  C172  A    
C201  C223  A    
C163  C173  A    
O26   Zn2   S    
C116  H141  S    
C53   C175  A    
C132  H30   S    
C107  C224  A    
C34   C70   A    
C19   O40   A    
C16   O8    A    
O37   Zn10  S    
C199  C213  A    
C72   H119  S    
C76   C80   A    
C3    C114  A    
O29   Zn5   S    
O34   Zn5   S    
C21   O18   A    
C41   H128  S    
C16   O13   A    
C18   C185  S    
C201  H129  S    
C48   C83   A    
C146  C184  A    
C156  C224  A    
C101  C180  A    
C117  C118  S    
C13   C232  A    
C172  C183  A    
C105  C221  A    
O32   Zn14  S    
C71   H122  S    
C51   C79   A    
C196  C227  A    
C110  C231  A    
C197  C228  A    
C63   C165  A    
O52   Zn8   S    
C42   C77   A    
C210  C232  A    
C150  C151  A    
C34   H1    S    
C129  H16   S    
C92   C99   A    
C160  C193  A    
C13   C68   A    
C1    C189  A    
C2    C35   A    
C11   O4    A    
C198  H126  S    
C122  H157  S    
C119  C156  S    
C100  H90   S    
C151  C186  A    
C9    O2    A    
C127  H9    S    
C88   C103  A    
C198  C229  A    
C118  H148  S    
O2    Zn7   S    
C12   O5    A    
C43   C78   A    
C207  C220  A    
C132  C222  S    
C140  H43   S    
C58   C93   A    
C145  H62   S    
C152  C187  A    
C79   C159  A    
C112  C117  S    
C123  C125  S    
C108  C225  A    
C66   C162  A    
O36   Zn11  S    
C200  C228  A    
C209  H137  S    
C21   O47   A    
C38   H95   S    
C77   H115  S    
C55   C91   A    
O25   Zn16  S    
C50   C85   A    
O23   Zn10  S    
C122  H158  S    
C59   C94   A    
C202  C215  A    
C15   C217  S    
C14   O10   A    
C116  H143  S    
C147  H60   S    
C130  H23   S    
O3    Zn2   S    
O12   Zn3   S    
C154  C190  A    
C4    C35   A    
C101  C157  A    
C56   C172  A    
C6    C57   A    
C74   C82   A    
C51   C86   A    
O34   Zn11  S    
C145  C147  S    
C4    C204  A    
C26   O22   A    
C138  H39   S    
C24   C139  S    
C134  H36   S    
C121  C167  S    
C37   H84   S    
O46   Zn15  S    
C202  C224  A    
C203  C216  A    
C44   C80   A    
C91   H102  S    
C53   H71   S    
C115  H144  S    
C45   H13   S    
C173  C180  A    
C56   H75   S    
O38   Zn13  S    
C128  H18   S    
C29   C187  S    
C30   C188  S    
C8    O45   A    
C128  C200  S    
C52   H70   S    
C67   C161  A    
C143  H58   S    
C195  H123  S    
C40   H117  S    
C196  H124  S    
C204  H132  S    
C121  C122  S    
O7    Zn13  S    
C112  C223  A    
C82   H111  S    
C125  H5    S    
O33   Zn9   S    
C118  H146  S    
C74   H116  S    
O18   Zn4   S    
C208  H136  S    
O48   Zn13  S    
C211  C229  A    
O50   Zn6   S    
C64   H82   S    
C65   C100  A    
O40   Zn10  S    
C119  H155  S    
C119  C120  S    
C153  C188  A    
O43   Zn9   S    
C105  C106  A    
O13   Zn1   S    
C81   H110  S    
C40   C75   A    
C102  H91   S    
C143  C144  S    
C32   O36   A    
C157  C192  A    
C206  H134  S    
C125  H4    S    
C109  C110  A    
C87   H103  S    
C47   C124  A    
C92   H99   S    
C28   O25   A    
C111  C114  A    
C195  C213  A    
O23   Zn2   S    
C87   C104  A    
C133  H27   S    
C148  H67   S    
C32   C191  S    
O41   Zn11  S    
C37   C72   A    
O5    Zn11  S    
C26   C193  S    
C48   C113  A    
C138  H37   S    
C134  H34   S    
C124  C154  A    
C89   C102  A    
C136  H32   S    
C66   C102  A    
C171  C182  A    
C95   C96   A    
C207  H135  S    
C8    C215  S    
C131  H22   S    
C41   C152  A    
C33   C192  S    
C209  C218  A    
O4    Zn16  S    
C142  H49   S    
C161  C175  A    
O45   Zn4   S    
C149  H65   S    
C167  C225  A    
C140  H42   S    
C25   O46   A    
C47   C82   A    
O15   Zn7   S    
C141  H51   S    
C58   H76   S    
C138  H38   S    
C71   C85   A    
C21   C180  S    
C132  C133  S    
C121  H3    S    
C44   C146  A    
C20   O41   A    
C199  C221  A    
O31   Zn15  S    
C59   C170  A    
C12   C219  S    
C197  C215  A    
C36   C158  A    
O1    Zn8   S    
C98   H92   S    
C111  C232  A    
C160  C176  A    
C174  C181  A    
C10   O50   A    
C137  H40   S    
C116  H142  S    
O49   Zn3   S    
C108  C229  A    
C133  H28   S    
C9    C216  S    
C205  C218  A    
C6    C206  A    
C148  C149  S    
O24   Zn4   S    
C54   C89   A    
C54   H72   S    
C75   C81   A    
O23   Zn14  S    
C134  C136  S    
C147  H61   S    
C117  H149  S    
C30   O38   A    
C89   H101  S    
C136  H33   S    
C13   C137  S    
C90   C158  A    
C126  C189  S    
O20   Zn6   S    
C104  H89   S    
C14   O6    A    
C115  H145  S    
C44   H2    S    
O1    Zn4   S    
O12   Zn7   S    
C148  H69   S    
C17   O14   A    
C19   O16   A    
C107  C228  A    
C105  C226  A    
C8    O52   A    
C97   H96   S    
C222  C230  A    
O34   Zn15  S    
C155  C191  A    
C2    C231  A    
C88   H104  S    
C146  C152  A    
C29   O32   A    
C120  H154  S    
C70   C86   A    
C130  H25   S    
C131  H20   S    
C210  H138  S    
C123  H8    S    
C69   C104  A    
C3    C212  A    
C90   C179  A    
C168  C169  A    
C22   O48   A    
C195  C226  A    
C144  H53   S    
C52   C87   A    
C65   H83   S    
O30   Zn6   S    
O28   Zn8   S    
C46   C143  S    
C162  C174  A    
C202  H130  S    
C137  C138  S    
O47   Zn12  S    
C135  C153  A    
C70   H121  S    
C204  C217  A    
C140  H44   S    
C141  C142  S    
C49   H46   S    
C137  H41   S    
C161  C194  A    
C53   C88   A    
C22   O19   A    
C55   H74   S    
C178  C226  A    
C20   O17   A    
C5    C205  A    
C56   C92   A    
C84   H109  S    
C52   C176  A    
C93   C98   A    
C25   C183  S    
C49   C101  A    
C208  C230  A    
C132  H29   S    
C136  H31   S    
C38   C73   A    
