data_mof_unit_21393.cif
_audit_creation_date              2012-12-10T20:25:47-0500
_audit_creation_method            fapswitch 2.2
_symmetry_space_group_name_H-M    P1
_symmetry_Int_Tables_number       1
_space_group_crystal_system       triclinic
_cell_length_a                    8.547708
_cell_length_b                    10.695891
_cell_length_c                    9.922528
_cell_angle_alpha                 90.871663
_cell_angle_beta                  97.20563
_cell_angle_gamma                 91.181857
_cell_volume                      899.669775741

loop_
_atom_site_label
_atom_site_type_symbol
_atom_type_description
_atom_site_fract_x
_atom_site_fract_y
_atom_site_fract_z
_atom_type_partial_charge
C1    C     C_R   0.499381 0.260692 0.498768 0.914896
C2    C     C_R   0.391796 0.933908 0.400360 0.413076
C3    C     C_R   0.493846 0.871991 0.500623 -0.177164
C4    C     C_R   0.610205 0.939539 0.585090 0.051342
C5    C     C_3   0.653022 0.941739 0.737321 0.502871
C6    C     C_3   0.651707 0.084158 0.733080 -0.496867
C7    C     C_R   0.471960 0.391426 0.066808 0.083010
C8    C     C_R   0.551768 0.601712 0.079014 -0.133264
C9    C     C_R   0.554840 0.600511 0.935820 -0.164446
C10   C     C_R   0.456786 0.395450 0.924144 0.147401
C11   C     C_3   0.301168 0.323632 0.913700 0.334971
C12   C     C_R   0.201956 0.501245 0.465242 0.944887
C13   C     C_3   0.337306 0.300287 0.066770 0.131498
C14   C     C_R   0.498369 0.739658 0.500780 0.845526
C15   C     C_R   0.797828 0.507419 0.534067 0.911960
C16   C     C_2   0.037277 0.495976 0.447665 -0.495404
C17   C     C_2   0.959129 0.538109 0.546380 0.235402
C18   C     C_R   0.611387 0.067667 0.583318 -0.015001
C19   C     C_R   0.502935 0.129271 0.494230 -0.126382
C20   C     C_R   0.401592 0.063158 0.395703 -0.227127
H1    H     H_    0.980411 0.443401 0.359395 0.170193
H2    H     H_    0.598790 0.681465 0.888470 0.195880
H3    H     H_    0.379740 0.204730 0.092854 0.110830
H4    H     H_    0.320764 0.112058 0.322779 0.174643
H5    H     H_    0.554716 0.125250 0.781956 0.270849
H6    H     H_    0.766975 0.133072 0.762113 0.158179
H7    H     H_    0.590567 0.685038 0.137880 0.167395
N1    N     N_R   0.498950 0.499140 0.142680 -0.085290
N2    N     N_R   0.498950 0.499180 0.857030 -0.122190
O1    O     O_R   0.500020 0.316790 0.614690 -0.584247
O2    O     O_R   0.500000 0.316760 0.385350 -0.611831
O3    O     O_R   0.271760 0.500010 0.587850 -0.606884
O4    O     O_R   0.271740 0.499970 0.358500 -0.550391
O5    O     O_R   0.500000 0.683240 0.614650 -0.586434
O6    O     O_R   0.499980 0.683210 0.385310 -0.625495
O7    O     O_R   0.728260 0.500030 0.641500 -0.620351
O8    O     O_R   0.728240 0.499990 0.412150 -0.649576
Zn1   Zn    Zn3+2 0.500010 0.500020 0.653130 0.968729
Zn2   Zn    Zn3+2 0.499990 0.499980 0.346870 0.977554
C21   C     C_3   0.147687 0.397719 0.872901 -0.338003
C22   C     C_3   0.145106 0.531089 0.935569 -0.259245
C23   C     C_3   0.978445 0.569512 0.956008 -0.817483
H8    H     H_    0.897708 0.560079 0.860171 0.306026
H9    H     H_    0.932432 0.509762 0.033487 0.257125
H10   H     H_    0.980352 0.668352 0.992163 0.239931
H11   H     H_    0.216077 0.540106 0.036119 0.262151
H12   H     H_    0.197664 0.598212 0.869221 0.240027
H13   H     H_    0.126283 0.403052 0.760954 0.238410
H14   H     H_    0.047430 0.340753 0.902333 0.178799
O9    O     O_3   0.305493 0.213630 0.835985 -0.797242
H15   H     H_    0.211796 0.162431 0.851781 0.325203
O10   O     O_3   0.221913 0.340090 0.145242 -0.737687
H16   H     H_    0.143483 0.270120 0.142118 0.317970
O11   O     O_3   0.020634 0.620978 0.648305 -0.797942
H17   H     H_    0.104143 0.673245 0.614580 0.345958
O12   O     O_3   0.276196 0.873554 0.311443 -0.769916
H18   H     H_    0.248709 0.792177 0.349530 0.331698
O13   O     O_3   0.529582 0.893279 0.803374 -0.774352
H19   H     H_    0.552722 0.919328 0.900416 0.324962
C24   C     C_3   0.814855 0.885540 0.789144 -0.441367
C25   C     C_3   0.951102 0.922400 0.708050 -0.387589
C26   C     C_3   0.111084 0.898153 0.789211 -0.776903
H20   H     H_    0.128229 0.957611 0.882731 0.246136
H21   H     H_    0.118926 0.799447 0.820043 0.286537
H22   H     H_    0.206638 0.919895 0.726441 0.285115
H23   H     H_    0.939287 0.867572 0.611163 0.238025
H24   H     H_    0.949472 0.022677 0.681786 0.218515
H25   H     H_    0.845549 0.915050 0.897355 0.191364
H26   H     H_    0.802262 0.781985 0.786060 0.231032

loop_
_geom_bond_atom_site_label_1
_geom_bond_atom_site_label_2
_ccdc_geom_bond_type
N2    Zn1   S    
C14   O5    A    
C7    C10   A    
O6    Zn2   S    
C22   H11   S    
C15   C17   S    
C16   H1    S    
O3    Zn1   S    
C13   O10   S    
C22   C23   S    
C25   H24   S    
C19   C20   A    
C26   H22   S    
C9    N2    A    
C4    C18   A    
C25   C26   S    
O7    Zn1   S    
C2    C3    A    
C22   H12   S    
O8    Zn2   S    
C11   O9    S    
C2    O12   S    
C12   O3    A    
N1    Zn2   S    
C12   O4    A    
C11   C13   S    
C10   N2    A    
C13   H3    S    
C26   H20   S    
C3    C14   S    
C23   H9    S    
C5    O13   S    
C24   C25   S    
C8    N1    A    
C5    C6    S    
C24   H26   S    
C1    O1    A    
O2    Zn2   S    
O9    H15   S    
C1    O2    A    
C11   C21   S    
C6    C18   S    
C9    H2    S    
C1    C19   S    
C6    H5    S    
O1    Zn1   S    
C10   C11   S    
C25   H23   S    
C2    C20   A    
C21   H14   S    
C20   H4    S    
C15   O7    A    
C7    C13   S    
O10   H16   S    
C24   H25   S    
C8    C9    A    
C21   H13   S    
C18   C19   A    
C23   H8    S    
C14   O6    A    
O12   H18   S    
C8    H7    S    
C6    H6    S    
C21   C22   S    
C26   H21   S    
C12   C16   S    
C5    C24   S    
O13   H19   S    
O11   H17   S    
C17   O11   S    
O4    Zn2   S    
C15   O8    A    
C7    N1    A    
C3    C4    A    
C16   C17   D    
C4    C5    S    
C23   H10   S    
O5    Zn1   S    
