data_mof_unit_18283.cif
_audit_creation_date              2012-12-10T17:52:26-0500
_audit_creation_method            fapswitch 2.2
_symmetry_space_group_name_H-M    P1
_symmetry_Int_Tables_number       1
_space_group_crystal_system       triclinic
_cell_length_a                    19.07775
_cell_length_b                    10.726235
_cell_length_c                    9.873659
_cell_angle_alpha                 89.439929
_cell_angle_beta                  89.742785
_cell_angle_gamma                 91.787074
_cell_volume                      2019.36840439

loop_
_atom_site_label
_atom_site_type_symbol
_atom_type_description
_atom_site_fract_x
_atom_site_fract_y
_atom_site_fract_z
_atom_type_partial_charge
C1    C     C_R   0.504220 0.259802 0.501685 0.872925
C2    C     C_R   0.852942 0.431346 0.501663 0.091727
C3    C     C_R   0.516079 0.108416 0.760774 -0.158686
C4    C     C_R   0.365288 0.497390 0.500487 0.853399
C5    C     C_R   0.494512 0.045979 0.879093 -0.142569
C6    C     C_R   0.457270 0.933027 0.870889 -0.161922
C7    C     C_R   0.448090 0.876822 0.745348 -0.154761
C8    C     C_R   0.475929 0.934273 0.625944 0.100522
C9    C     C_R   0.499985 0.058417 0.631443 0.094364
C10   C     C_R   0.506466 0.125793 0.506819 -0.125549
C11   C     C_R   0.503589 0.063932 0.382887 -0.203795
C12   C     C_R   0.289555 0.476950 0.502421 -0.058537
C13   C     C_R   0.494647 0.936991 0.380646 -0.209601
C14   C     C_R   0.483216 0.871237 0.501681 -0.134861
C15   C     C_R   0.408821 0.333891 0.142416 -0.195610
C16   C     C_R   0.492594 0.738849 0.500023 0.890362
C17   C     C_R   0.364602 0.249640 0.073288 0.232513
C18   C     C_R   0.365187 0.251328 0.932411 -0.281167
C19   C     C_R   0.409026 0.335017 0.861679 -0.208710
C20   C     C_R   0.454984 0.418644 0.928731 0.160099
C21   C     C_R   0.454910 0.418486 0.073396 0.114725
C22   C     C_R   0.542828 0.578321 0.070428 -0.122789
C23   C     C_R   0.928381 0.411967 0.502938 0.277554
C24   C     C_R   0.542807 0.578290 0.927041 -0.122586
C25   C     C_R   0.634731 0.498280 0.499725 0.868696
C26   C     C_R   0.257030 0.427602 0.619444 -0.272307
C27   C     C_R   0.185898 0.394488 0.619728 0.240288
C28   C     C_R   0.146095 0.416434 0.502026 0.056626
C29   C     C_R   0.179176 0.465463 0.384901 -0.220459
C30   C     C_R   0.250443 0.495159 0.384964 -0.214418
C31   C     C_3   0.274491 0.204569 0.244813 -0.770381
C32   C     C_3   0.145817 0.203985 0.730089 -0.773764
C33   C     C_R   0.069625 0.402482 0.503503 0.296396
C34   C     C_R   0.816997 0.449276 0.623855 -0.162254
C35   C     C_R   0.746222 0.474718 0.622847 -0.196760
C36   C     C_R   0.710308 0.482252 0.499669 -0.037760
C37   C     C_R   0.746184 0.464989 0.377342 -0.195744
C38   C     C_R   0.817063 0.439449 0.378340 -0.162111
H1    H     H_    0.287210 0.410295 0.709849 0.156286
H2    H     H_    0.405909 0.330116 0.754429 0.220691
H3    H     H_    0.577702 0.642184 0.871904 0.152582
H4    H     H_    0.149682 0.483786 0.293759 0.163375
H5    H     H_    0.274936 0.532044 0.293183 0.166956
H6    H     H_    0.843443 0.444123 0.720472 0.150429
H7    H     H_    0.719579 0.487035 0.718682 0.155892
H8    H     H_    0.719414 0.469560 0.280988 0.156508
H9    H     H_    0.843682 0.426925 0.282564 0.150177
H10   H     H_    0.509275 0.113233 0.286923 0.170797
H11   H     H_    0.299683 0.090242 0.084370 0.224954
H12   H     H_    0.547159 0.193250 0.773434 0.170294
H13   H     H_    0.242212 0.125737 0.287897 0.238901
H14   H     H_    0.238959 0.272382 0.197394 0.245645
H15   H     H_    0.303527 0.248750 0.329659 0.245810
H16   H     H_    0.179196 0.365022 0.827044 0.225173
H17   H     H_    0.197547 0.159641 0.721767 0.226733
H18   H     H_    0.113074 0.177955 0.641376 0.250695
H19   H     H_    0.118788 0.168184 0.823077 0.245172
H20   H     H_    0.505406 0.086716 0.976983 0.140866
H21   H     H_    0.437569 0.886954 0.962037 0.139959
H22   H     H_    0.418844 0.788845 0.742715 0.161189
H23   H     H_    0.498067 0.890411 0.284031 0.167932
H24   H     H_    0.577766 0.642173 0.123556 0.144239
H25   H     H_    0.406507 0.329456 0.249582 0.217892
H26   H     H_    0.331653 0.186947 0.876504 0.153611
N1    N     N_R   0.033606 0.391687 0.385930 -0.185776
N2    N     N_R   0.964141 0.396163 0.385684 -0.179936
N3    N     N_R   0.964341 0.419790 0.620676 -0.178628
N4    N     N_R   0.033703 0.415560 0.620853 -0.133970
N5    N     N_R   0.499340 0.498800 0.142780 -0.112940
N6    N     N_R   0.499320 0.498720 0.857170 -0.120042
N7    N     N_2   0.322481 0.158138 0.144666 -0.310075
N8    N     N_2   0.155310 0.338026 0.737979 -0.299521
O1    O     O_R   0.500000 0.316780 0.614690 -0.651204
O2    O     O_R   0.499990 0.316750 0.385360 -0.638316
O3    O     O_R   0.398140 0.500000 0.614700 -0.640957
O4    O     O_R   0.398130 0.499970 0.385370 -0.636949
O5    O     O_R   0.500010 0.683250 0.614640 -0.621146
O6    O     O_R   0.500000 0.683220 0.385310 -0.617029
O7    O     O_R   0.601870 0.500030 0.614630 -0.618989
O8    O     O_R   0.601860 0.500000 0.385300 -0.615770
Zn1   Zn    Zn3+2 0.500000 0.500020 0.653130 0.923556
Zn2   Zn    Zn3+2 0.500000 0.499980 0.346870 0.931841

loop_
_geom_bond_atom_site_label_1
_geom_bond_atom_site_label_2
_ccdc_geom_bond_type
C29   H4    S    
C25   O8    A    
C35   C36   A    
C31   H14   S    
C24   N6    A    
C7    C8    A    
C32   N8    S    
C26   C27   A    
C37   C38   A    
C5    H20   S    
C1    O2    A    
C23   N2    A    
C36   C37   A    
C34   C35   A    
C5    C6    A    
C26   H1    S    
C18   C19   A    
C23   N3    A    
N6    Zn1   S    
O6    Zn2   S    
C4    O3    A    
N5    Zn2   S    
C19   C20   A    
C8    C9    A    
C14   C16   S    
C4    C12   S    
C9    C10   A    
C32   H17   S    
C2    C34   A    
C31   N7    S    
C13   C14   A    
C24   H3    S    
C20   N6    A    
C11   H10   S    
C32   H19   S    
O2    Zn2   S    
O1    Zn1   S    
C3    H12   S    
C33   N1    A    
N3    N4    A    
C34   H6    S    
O8    Zn2   S    
C19   H2    S    
O4    Zn2   S    
O7    Zn1   S    
O3    Zn1   S    
C21   N5    A    
C29   C30   A    
C3    C9    A    
C22   H24   S    
C2    C38   A    
O5    Zn1   S    
C17   C18   A    
H16   N8    S    
C31   H15   S    
C38   H9    S    
C28   C33   S    
C17   N7    S    
C22   C24   A    
C30   H5    S    
C35   H7    S    
C7    H22   S    
C2    C23   S    
C15   C17   A    
C28   C29   A    
C8    C14   A    
C22   N5    A    
C12   C30   A    
C25   O7    A    
C6    H21   S    
C1    C10   S    
C31   H13   S    
C3    C5    A    
C6    C7    A    
C1    O1    A    
C11   C13   A    
C18   H26   S    
C16   O6    A    
C4    O4    A    
C10   C11   A    
C25   C36   S    
C15   C21   A    
C13   H23   S    
C20   C21   A    
N1    N2    A    
H11   N7    S    
C12   C26   A    
C27   C28   A    
C15   H25   S    
C16   O5    A    
C37   H8    S    
C32   H18   S    
C27   N8    S    
C33   N4    A    
