data_mof_unit_18163.cif
_audit_creation_date              2012-12-10T17:40:25-0500
_audit_creation_method            fapswitch 2.2
_symmetry_space_group_name_H-M    P1
_symmetry_Int_Tables_number       1
_space_group_crystal_system       triclinic
_cell_length_a                    13.68962
_cell_length_b                    15.095743
_cell_length_c                    15.873784
_cell_angle_alpha                 89.903439
_cell_angle_beta                  70.168972
_cell_angle_gamma                 89.963836
_cell_volume                      3085.85547626

loop_
_atom_site_label
_atom_site_type_symbol
_atom_type_description
_atom_site_fract_x
_atom_site_fract_y
_atom_site_fract_z
_atom_type_partial_charge
C1    C     C_R   0.500002 0.671523 0.499829 0.815000
C2    C     C_R   0.499997 0.328475 0.500174 0.815013
C3    C     C_R   0.374720 0.530971 0.094238 -0.220964
C4    C     C_R   0.626463 0.524683 0.905068 -0.222445
C5    C     C_R   0.303538 0.532466 0.049496 -0.229789
C6    C     C_R   0.697668 0.525080 0.949795 -0.230695
C7    C     C_R   0.588075 0.185525 0.502491 -0.255339
C8    C     C_R   0.411910 0.814467 0.497548 -0.255085
C9    C     C_R   0.500211 0.231648 0.500369 -0.064267
C10   C     C_R   0.499781 0.768346 0.499652 -0.063559
C11   C     C_R   0.412763 0.185380 0.498363 -0.231982
C12   C     C_R   0.587221 0.814612 0.501677 -0.231715
C13   C     C_R   0.412351 0.093201 0.498199 0.067701
C14   C     C_R   0.587623 0.906790 0.501865 0.067704
C15   C     C_R   0.500712 0.046387 0.500171 0.037816
C16   C     C_R   0.499260 0.953604 0.499896 0.037782
C17   C     C_R   0.590217 0.092564 0.502414 0.049389
C18   C     C_R   0.409752 0.907427 0.497660 0.049356
C19   C     C_R   0.324149 0.047990 0.496000 -0.207185
C20   C     C_R   0.675810 0.951999 0.504100 -0.207174
C21   C     C_R   0.320787 0.954962 0.495668 0.141662
C22   C     C_R   0.679161 0.045028 0.504459 0.141549
C23   C     C_R   0.437258 0.500521 0.672294 0.803887
C24   C     C_R   0.562739 0.500722 0.327711 0.804894
C25   C     C_R   0.229446 0.553975 0.441990 0.001527
C26   C     C_R   0.770588 0.445979 0.557951 0.001565
C27   C     C_R   0.183891 0.446249 0.558164 -0.000133
C28   C     C_R   0.816114 0.553735 0.441806 0.000139
C29   C     C_R   0.080276 0.444891 0.559499 -0.004285
C30   C     C_R   0.919754 0.555062 0.440421 -0.003338
C31   C     C_R   0.051833 0.500005 0.499983 0.089408
C32   C     C_R   0.948203 0.499950 0.499934 0.089110
C33   C     C_R   0.126965 0.555179 0.440522 -0.005171
C34   C     C_R   0.873083 0.444754 0.559377 -0.006582
C35   C     C_R   0.004775 0.389959 0.618625 -0.207594
C36   C     C_R   0.995285 0.609932 0.381231 -0.207734
C37   C     C_R   0.902115 0.389885 0.618560 -0.209828
C38   C     C_R   0.097961 0.609983 0.381271 -0.211413
C39   C     C_R   0.400423 0.505747 0.770453 -0.054533
C40   C     C_R   0.599631 0.505627 0.229523 -0.054197
C41   C     C_R   0.263085 0.523246 0.913082 -0.197332
C42   C     C_R   0.737656 0.517392 0.086519 -0.197448
C43   C     C_R   0.294833 0.514830 0.820317 -0.194770
C44   C     C_R   0.705555 0.511000 0.179478 -0.194905
C45   C     C_R   0.473582 0.504978 0.814188 -0.249788
C46   C     C_R   0.526427 0.507412 0.185836 -0.253232
C47   C     C_R   0.444130 0.517099 0.907172 0.089303
C48   C     C_R   0.556460 0.517254 0.092522 0.088947
C49   C     C_R   0.336661 0.524231 0.956802 0.166318
C50   C     C_R   0.664180 0.519961 0.042737 0.166754
C51   C     C_R   0.518197 0.520700 0.952134 0.065725
C52   C     C_R   0.482635 0.522368 0.047396 0.066627
Cu1   Cu    Cu3+1 0.402580 0.500010 0.499990 0.937189
Cu2   Cu    Cu3+1 0.597420 0.499990 0.500010 0.937408
H1    H     H_    0.221673 0.539402 0.088003 0.142485
H2    H     H_    0.779814 0.528453 0.911100 0.143456
H3    H     H_    0.288061 0.596155 0.396819 0.124246
H4    H     H_    0.711990 0.403772 0.603098 0.124340
H5    H     H_    0.207112 0.404265 0.603428 0.124275
H6    H     H_    0.792885 0.595715 0.396542 0.123313
H7    H     H_    0.025097 0.347052 0.664910 0.136388
H8    H     H_    0.974978 0.652800 0.334910 0.135208
H9    H     H_    0.845448 0.346932 0.664803 0.136876
H10   H     H_    0.154660 0.652863 0.334958 0.134983
H11   H     H_    0.446144 0.498959 0.226150 0.152483
H12   H     H_    0.553299 0.493168 0.774125 0.148754
H13   H     H_    0.763451 0.509949 0.212022 0.151828
H14   H     H_    0.236962 0.515586 0.787743 0.153081
H15   H     H_    0.180924 0.529460 0.950703 0.130372
H16   H     H_    0.820050 0.520375 0.048757 0.130258
H17   H     H_    0.342395 0.539547 0.165725 0.140341
H18   H     H_    0.659247 0.530337 0.833295 0.145499
H19   H     H_    0.654489 0.223153 0.504209 0.150844
H20   H     H_    0.345504 0.776839 0.495810 0.150726
H21   H     H_    0.344668 0.221152 0.496774 0.151778
H22   H     H_    0.655317 0.778840 0.503263 0.151618
H23   H     H_    0.258251 0.086677 0.494536 0.156278
H24   H     H_    0.741702 0.913312 0.505574 0.156163
N1    N     N_R   0.256170 0.500070 0.500040 -0.180883
N2    N     N_R   0.743830 0.499930 0.499960 -0.180781
O1    O     O_R   0.417730 0.629750 0.499970 -0.588885
O2    O     O_R   0.582270 0.370250 0.500030 -0.588499
O3    O     O_R   0.582270 0.629730 0.499980 -0.587325
O4    O     O_R   0.417730 0.370270 0.500020 -0.586982
O5    O     O_R   0.371590 0.500020 0.629830 -0.586735
O6    O     O_R   0.628410 0.499980 0.370170 -0.586276
O7    O     O_R   0.536130 0.499990 0.629840 -0.588648
O8    O     O_R   0.463870 0.500010 0.370160 -0.588857
C53   C     C_3   0.224227 0.905613 0.493260 -0.389829
C54   C     C_3   0.132564 0.962743 0.491414 -0.864491
H25   H     H_    0.103921 0.004413 0.552514 0.252160
H26   H     H_    0.155115 0.005012 0.430476 0.253336
H27   H     H_    0.067961 0.919060 0.489829 0.249195
H28   H     H_    0.246510 0.862902 0.432699 0.199432
H29   H     H_    0.195789 0.862301 0.553367 0.204482
C55   C     C_3   0.775679 0.094374 0.506968 -0.389661
C56   C     C_3   0.867250 0.037239 0.509028 -0.864367
H30   H     H_    0.844528 0.994975 0.569975 0.253188
H31   H     H_    0.896053 0.995562 0.447943 0.252131
H32   H     H_    0.931795 0.080918 0.510757 0.249329
H33   H     H_    0.804242 0.137639 0.446834 0.204793
H34   H     H_    0.753297 0.137132 0.567497 0.199295

loop_
_geom_bond_atom_site_label_1
_geom_bond_atom_site_label_2
_ccdc_geom_bond_type
C55   H34   S    
C27   C29   A    
C18   C21   A    
C2    O4    A    
C4    H18   S    
C56   H30   S    
C7    H19   S    
C21   C53   S    
Cu1   Cu2   S    
C40   C46   A    
C25   H3    S    
Cu1   O4    S    
C19   C21   A    
C27   N1    A    
Cu2   O7    S    
C1    O1    A    
C15   C16   A    
C34   C37   A    
C42   H16   S    
Cu1   O1    S    
C45   C47   A    
C53   H28   S    
C19   H23   S    
C37   H9    S    
C26   C34   A    
C43   H14   S    
C7    C17   A    
C31   C33   A    
C38   H10   S    
C39   C45   A    
C48   C50   A    
C23   O7    A    
C55   H33   S    
C24   O8    A    
Cu1   O5    S    
C41   C43   A    
C5    C49   A    
C42   C44   A    
C36   H8    S    
C41   C49   A    
Cu2   O3    S    
C56   H31   S    
Cu2   N2    S    
C28   H6    S    
C46   C48   A    
C13   C19   A    
C4    C51   A    
C51   C52   A    
C14   C20   A    
C46   H11   S    
C4    C6    A    
Cu2   O6    S    
C39   C43   A    
C8    C18   A    
C32   C34   A    
C53   H29   S    
C3    H17   S    
C9    C11   A    
C54   H26   S    
C31   C32   A    
C40   C44   A    
C55   C56   S    
C8    H20   S    
C35   H7    S    
C6    C50   A    
C26   H4    S    
C10   C12   A    
C42   C50   A    
C16   C18   A    
C12   C14   A    
C13   C15   A    
C14   C16   A    
C2    O2    A    
C20   C22   A    
C36   C38   A    
Cu2   O2    S    
C56   H32   S    
C35   C37   A    
C54   H27   S    
C41   H15   S    
C15   C17   A    
Cu1   N1    S    
C25   N1    A    
C22   C55   S    
C5    H1    S    
C1    C10   S    
C33   C38   A    
C6    H2    S    
C3    C5    A    
C47   C51   A    
C3    C52   A    
C20   H24   S    
C1    O3    A    
C29   C35   A    
C17   C22   A    
C30   C36   A    
C12   H22   S    
C29   C31   A    
C11   H21   S    
C47   C49   A    
C30   C32   A    
C11   C13   A    
C54   H25   S    
C23   C39   S    
C28   C30   A    
C24   C40   S    
Cu1   O8    S    
C28   N2    A    
C26   N2    A    
C7    C9    A    
C48   C52   A    
C8    C10   A    
C23   O5    A    
C45   H12   S    
C44   H13   S    
C27   H5    S    
C53   C54   S    
C2    C9    S    
C24   O6    A    
C25   C33   A    
