data_mof_unit_44114.cif
_audit_creation_date              2012-12-11T14:08:45-0500
_audit_creation_method            fapswitch 2.2
_symmetry_space_group_name_H-M    P1
_symmetry_Int_Tables_number       1
_space_group_crystal_system       triclinic
_cell_length_a                    28.202518
_cell_length_b                    7.181961
_cell_length_c                    17.209404
_cell_angle_alpha                 89.99978
_cell_angle_beta                  101.991693
_cell_angle_gamma                 89.999655
_cell_volume                      3409.68713203

loop_
_atom_site_label
_atom_site_type_symbol
_atom_type_description
_atom_site_fract_x
_atom_site_fract_y
_atom_site_fract_z
_atom_type_partial_charge
O1    O     O_R   0.000700 0.436510 0.857920 -0.532633
O2    O     O_R   0.999300 0.563490 0.142080 -0.532632
O3    O     O_R   0.999300 0.936510 0.642080 -0.532631
O4    O     O_R   0.000700 0.063490 0.357920 -0.532629
O5    O     O_R   0.930080 0.766380 0.721890 -0.539689
O6    O     O_R   0.069920 0.233620 0.278110 -0.539687
O7    O     O_R   0.069920 0.266380 0.778110 -0.539688
O8    O     O_R   0.930080 0.733620 0.221890 -0.539684
C1    C     C_R   0.910714 0.597681 0.708638 0.724970
C2    C     C_R   0.089287 0.402320 0.291345 0.724944
C3    C     C_R   0.089286 0.097680 0.791362 0.724965
C4    C     C_R   0.910713 0.902322 0.208655 0.724971
O9    O     O_R   0.996180 0.766230 0.862310 -0.546649
O10   O     O_R   0.003820 0.233770 0.137690 -0.546651
O11   O     O_R   0.003820 0.266230 0.637690 -0.546646
O12   O     O_R   0.996180 0.733770 0.362310 -0.546644
O13   O     O_R   0.065870 0.936460 0.783500 -0.537359
O14   O     O_R   0.934130 0.063540 0.216500 -0.537357
O15   O     O_R   0.934130 0.436460 0.716500 -0.537363
O16   O     O_R   0.065870 0.563540 0.283500 -0.537373
C5    C     C_R   0.998489 0.596443 0.894516 0.755512
C6    C     C_R   0.001512 0.403557 0.105484 0.755501
C7    C     C_R   0.001511 0.096443 0.605484 0.755516
C8    C     C_R   0.998488 0.903556 0.394516 0.755513
O17   O     O_3   0.022790 0.603020 0.723980 -0.377333
O18   O     O_3   0.977210 0.396980 0.276020 -0.377327
O19   O     O_3   0.977210 0.103020 0.776020 -0.377338
O20   O     O_3   0.022790 0.896980 0.223980 -0.377346
V1    V     V_3+5 0.995770 0.877900 0.754830 1.406199
V2    V     V_3+5 0.004230 0.122100 0.245170 1.406173
V3    V     V_3+5 0.004230 0.377900 0.745170 1.406203
V4    V     V_3+5 0.995770 0.622100 0.254830 1.406194
C9    C     C_2   0.001703 0.082736 0.519586 -0.338349
C10   C     C_2   0.998297 0.917264 0.480414 -0.338346
C11   C     C_2   0.998297 0.582735 0.980414 -0.338363
C12   C     C_2   0.001704 0.417265 0.019586 -0.338368
H1    H     H_    0.004492 0.211833 0.487959 0.152346
H2    H     H_    0.995508 0.788168 0.512041 0.152344
H3    H     H_    0.995508 0.711832 0.012040 0.152342
H4    H     H_    0.004492 0.288168 0.987960 0.152340
C13   C     C_R   0.678306 0.805968 0.057519 0.626556
C14   C     C_R   0.321670 0.193978 0.942786 0.626487
C15   C     C_R   0.321694 0.305983 0.442478 0.626620
C16   C     C_R   0.678329 0.693978 0.557197 0.626495
O21   O     O_2   0.702669 0.660821 0.034929 -0.524069
O22   O     O_2   0.297306 0.339141 0.965360 -0.524085
O23   O     O_2   0.297330 0.160875 0.465096 -0.524128
O24   O     O_2   0.702693 0.839129 0.534614 -0.524095
N1    N     N_R   0.703182 0.944247 0.103719 -0.546050
N2    N     N_R   0.296798 0.055722 0.896566 -0.546052
N3    N     N_R   0.296819 0.444228 0.396252 -0.545918
N4    N     N_R   0.703201 0.555736 0.603429 -0.546040
C17   C     C_R   0.679059 0.093232 0.126952 0.573570
C18   C     C_R   0.320922 0.906714 0.873355 0.573592
C19   C     C_R   0.320943 0.593171 0.372990 0.574013
C20   C     C_R   0.679077 0.406742 0.626649 0.573605
C21   C     C_R   0.776433 0.792587 0.182255 0.475073
C22   C     C_R   0.223577 0.207430 0.817958 0.475106
C23   C     C_R   0.223569 0.292575 0.317734 0.475105
C24   C     C_R   0.776422 0.707465 0.682024 0.475084
C25   C     C_R   0.827060 0.779948 0.206507 -0.292471
C26   C     C_R   0.172954 0.220061 0.793629 -0.292488
C27   C     C_R   0.172938 0.279922 0.293496 -0.292845
C28   C     C_R   0.827046 0.720093 0.706353 -0.292524
C29   C     C_R   0.836353 0.054024 0.129471 -0.205298
C30   C     C_R   0.163617 0.945994 0.870642 -0.205321
C31   C     C_R   0.163651 0.554044 0.370507 -0.205297
C32   C     C_R   0.836382 0.445973 0.629372 -0.205285
C33   C     C_R   0.785997 0.063052 0.101018 0.110613
C34   C     C_R   0.213966 0.936974 0.899169 0.110631
C35   C     C_R   0.214007 0.563069 0.398953 0.110408
C36   C     C_R   0.786034 0.436955 0.600844 0.110595
C37   C     C_R   0.755426 0.932858 0.128472 0.276866
C38   C     C_R   0.244558 0.067159 0.871762 0.276837
C39   C     C_R   0.244575 0.432846 0.371509 0.277111
C40   C     C_R   0.755442 0.567170 0.628234 0.276866
C41   C     C_R   0.602244 0.970336 0.053471 -0.049249
C42   C     C_R   0.397731 0.029559 0.946880 -0.049245
C43   C     C_R   0.397758 0.470315 0.446499 -0.049248
C44   C     C_R   0.602268 0.529565 0.553107 -0.049247
C45   C     C_R   0.627470 0.814924 0.032832 -0.054103
C46   C     C_R   0.372504 0.184984 0.967507 -0.054108
C47   C     C_R   0.372530 0.314931 0.467159 -0.054077
C48   C     C_R   0.627495 0.684982 0.532473 -0.054106
C49   C     C_R   0.601570 0.672235 0.987769 -0.139805
C50   C     C_R   0.398403 0.327650 0.012590 -0.139769
C51   C     C_R   0.398429 0.172263 0.512240 -0.139793
C52   C     C_R   0.601597 0.827637 0.487381 -0.139815
C53   C     C_R   0.628508 0.111079 0.100763 -0.043017
C54   C     C_R   0.371469 0.888830 0.899576 -0.043002
C55   C     C_R   0.371495 0.611026 0.399182 -0.043075
C56   C     C_R   0.628530 0.388850 0.600422 -0.043003
C57   C     C_R   0.857314 0.912334 0.181619 -0.137274
C58   C     C_R   0.142680 0.087669 0.818463 -0.137279
C59   C     C_R   0.142686 0.412330 0.318375 -0.137112
C60   C     C_R   0.857319 0.587673 0.681536 -0.137268
H5    H     H_    0.859438 0.155063 0.108654 0.143262
H6    H     H_    0.140516 0.844962 0.891425 0.143251
H7    H     H_    0.140567 0.655105 0.391315 0.143268
H8    H     H_    0.859483 0.344917 0.608602 0.143263
H9    H     H_    0.619947 0.549847 0.971915 0.166713
H10   H     H_    0.380025 0.450040 0.028440 0.166735
H11   H     H_    0.380052 0.049895 0.528110 0.166688
H12   H     H_    0.619974 0.950024 0.471528 0.166715
C61   C     C_R   0.473699 0.854809 0.953328 0.028243
C62   C     C_R   0.526273 0.145057 0.047048 0.028230
C63   C     C_R   0.526301 0.354816 0.546662 0.028239
C64   C     C_R   0.473728 0.645026 0.452910 0.028221
C65   C     C_R   0.475026 0.160306 0.020016 0.028615
C66   C     C_R   0.524946 0.839559 0.980360 0.028631
C67   C     C_R   0.524975 0.660288 0.479952 0.028623
C68   C     C_R   0.475054 0.339564 0.519629 0.028636
C69   C     C_R   0.449049 0.014851 0.973510 0.066632
C70   C     C_R   0.550923 0.985023 0.026859 0.066632
C71   C     C_R   0.550951 0.514849 0.526471 0.066627
C72   C     C_R   0.449078 0.485008 0.473113 0.066635
C73   C     C_R   0.445915 0.715530 0.906138 -0.186517
C74   C     C_R   0.554058 0.284337 0.094236 -0.186504
C75   C     C_R   0.554085 0.215548 0.593860 -0.186503
C76   C     C_R   0.445945 0.784276 0.405699 -0.186452
C77   C     C_R   0.396050 0.732941 0.879692 -0.129039
C78   C     C_R   0.603926 0.266948 0.120663 -0.129048
C79   C     C_R   0.603950 0.232966 0.620311 -0.129027
C80   C     C_R   0.396077 0.766874 0.379264 -0.129008
O25   O     O_2   0.296037 0.775585 0.825332 -0.503034
O26   O     O_2   0.703948 0.224377 0.174960 -0.503048
O27   O     O_2   0.703960 0.275631 0.674686 -0.503059
O28   O     O_2   0.296056 0.724271 0.324953 -0.503114
C81   C     C_R   0.551486 0.683250 0.962530 -0.181801
C82   C     C_R   0.448486 0.316613 0.037848 -0.181779
C83   C     C_R   0.448514 0.183275 0.537477 -0.181775
C84   C     C_R   0.551514 0.816593 0.462118 -0.181780
H13   H     H_    0.157486 0.331277 0.753806 0.156695
H14   H     H_    0.842547 0.668730 0.246313 0.156686
H15   H     H_    0.842514 0.831330 0.746163 0.156690
H16   H     H_    0.157445 0.168671 0.253713 0.156542
H17   H     H_    0.376711 0.621862 0.843852 0.175226
H18   H     H_    0.623266 0.378032 0.156498 0.175221
H19   H     H_    0.623288 0.121896 0.656158 0.175219
H20   H     H_    0.376739 0.877933 0.343409 0.175241
H21   H     H_    0.461392 0.590062 0.887996 0.127649
H22   H     H_    0.538581 0.409795 0.112387 0.127660
H23   H     H_    0.538609 0.090080 0.612004 0.127645
H24   H     H_    0.461423 0.909714 0.387533 0.127652
H25   H     H_    0.534861 0.565558 0.928887 0.126325
H26   H     H_    0.465109 0.434290 0.071502 0.126336
H27   H     H_    0.465137 0.065602 0.571136 0.126310
H28   H     H_    0.534890 0.934266 0.428459 0.126329
C85   C     C_3   0.766681 0.210473 0.040364 -0.640935
H29   H     H_    0.772938 0.350221 0.068218 0.253486
H30   H     H_    0.785950 0.202265 0.990364 0.178022
H31   H     H_    0.727480 0.194236 0.014741 0.211669
C86   C     C_3   0.233252 0.789569 0.959849 -0.641080
H32   H     H_    0.227008 0.649812 0.931999 0.253485
H33   H     H_    0.272446 0.805810 0.985523 0.211688
H34   H     H_    0.213952 0.797798 0.009812 0.177959
C87   C     C_3   0.233328 0.710529 0.459585 -0.640988
H35   H     H_    0.227068 0.850259 0.431714 0.253484
H36   H     H_    0.214064 0.702363 0.509593 0.178076
H37   H     H_    0.272530 0.694300 0.485201 0.211644
C88   C     C_3   0.766747 0.289516 0.540182 -0.640954
H38   H     H_    0.772986 0.149777 0.568050 0.253486
H39   H     H_    0.727554 0.305765 0.514498 0.211676
H40   H     H_    0.786051 0.297691 0.490223 0.178036
O29   O     O_3   0.252648 0.338928 0.792344 -0.522327
C89   C     C_3   0.260587 0.283591 0.717516 -0.172057
H41   H     H_    0.226119 0.281157 0.672170 0.122045
H42   H     H_    0.278823 0.145426 0.720793 0.137330
H43   H     H_    0.284932 0.386569 0.697772 0.175432
O30   O     O_3   0.747382 0.661086 0.207917 -0.522356
C90   C     C_3   0.739488 0.716417 0.282773 -0.171953
H44   H     H_    0.721241 0.854557 0.279519 0.137391
H45   H     H_    0.773976 0.718905 0.328071 0.122016
H46   H     H_    0.715172 0.613406 0.302570 0.175456
O31   O     O_3   0.747350 0.838991 0.707619 -0.522332
C91   C     C_3   0.739433 0.783772 0.782474 -0.172044
H47   H     H_    0.773908 0.781420 0.827804 0.122016
H48   H     H_    0.721206 0.645597 0.779249 0.137322
H49   H     H_    0.715089 0.886778 0.802205 0.175449
O32   O     O_3   0.252643 0.161117 0.292093 -0.522379
C92   C     C_3   0.260172 0.215522 0.216906 -0.171946
H50   H     H_    0.278059 0.354297 0.219510 0.137286
H51   H     H_    0.225580 0.216159 0.171839 0.121956
H52   H     H_    0.284665 0.112976 0.197266 0.175527

loop_
_geom_bond_atom_site_label_1
_geom_bond_atom_site_label_2
_ccdc_geom_bond_type
O17   V3    S    
C31   C59   A    
C61   C66   A    
N1    C17   A    
O1    C5    A    
O29   C89   S    
C79   H19   S    
O19   V1    S    
C34   C86   S    
O13   V1    S    
C63   C68   A    
C64   C76   A    
O3    C7    A    
C11   C12   D    
C14   C46   A    
C90   H46   S    
C44   C48   A    
O15   V3    S    
C88   H38   S    
O4    V2    S    
C92   H50   S    
C42   C54   A    
O7    C3    A    
C90   H45   S    
C41   C53   A    
C32   C60   A    
C62   C70   A    
C26   H13   S    
O9    V1    S    
C23   O32   S    
N3    C39   S    
C18   C54   A    
N2    C38   S    
C74   C78   A    
O4    C8    A    
C25   C57   A    
C31   C35   A    
C82   H26   S    
O30   C90   S    
C77   H17   S    
C27   C59   A    
C15   C47   A    
O1    V3    S    
C75   H23   S    
C66   C81   A    
O2    V4    S    
C14   O22   S    
C20   O27   S    
C51   C83   A    
O3    V1    S    
C22   O29   S    
C73   C77   A    
C34   C38   A    
C19   C55   A    
C49   C81   A    
C76   C80   A    
C1    O15   A    
C87   H35   S    
C2    O16   A    
C7    C9    S    
C76   H24   S    
O2    C6    A    
C36   C88   S    
C83   H27   S    
O14   V2    S    
C86   H33   S    
C66   C70   A    
C81   H25   S    
C65   C69   A    
C30   C58   A    
C16   N4    A    
O11   C7    A    
C28   H15   S    
O12   C8    A    
C43   C72   A    
C62   C74   A    
C89   H42   S    
C61   C73   A    
O10   V2    S    
C63   C75   A    
C88   H39   S    
C21   C37   A    
C25   H14   S    
O5    V1    S    
C91   H49   S    
C73   H21   S    
C35   C87   S    
C18   O25   S    
O7    V3    S    
O8    V4    S    
C12   H4    S    
C78   H18   S    
C92   H51   S    
O18   V4    S    
C50   C82   A    
C16   C48   A    
C46   C50   A    
O11   V3    S    
C24   C40   A    
C8    C10   S    
C32   C36   A    
C84   H28   S    
C44   C56   A    
C11   H3    S    
C32   H8    S    
O5    C1    A    
C42   C46   A    
O31   C91   S    
C1    C60   S    
C44   C71   A    
C41   C45   A    
O8    C4    A    
C13   C45   A    
C9    C10   D    
O9    C5    A    
C36   C40   A    
N2    C18   A    
C86   H34   S    
C33   C37   A    
C90   H44   S    
C63   C71   A    
C22   C26   A    
C14   N2    A    
C51   H11   S    
C3    C58   S    
C91   H47   S    
O6    V2    S    
C87   H37   S    
C75   C79   A    
C55   C80   A    
C26   C58   A    
C17   C53   A    
C89   H41   S    
C54   C77   A    
N1    C37   S    
C4    C57   S    
C85   H31   S    
C42   C69   A    
C52   C84   A    
O10   C6    A    
C41   C70   A    
C50   H10   S    
C23   C39   A    
C68   C72   A    
C88   H40   S    
C49   H9    S    
O32   C92   S    
C22   C38   A    
C21   O30   S    
O16   V4    S    
C92   H52   S    
C61   C69   A    
C3    O13   A    
C10   H2    S    
C43   C55   A    
C80   H20   S    
C48   C52   A    
C74   H22   S    
C47   C51   A    
O6    C2    A    
C30   H6    S    
C21   C25   A    
C5    C11   S    
C31   H7    S    
O12   V4    S    
C13   N1    A    
C6    C12   S    
C23   C27   A    
C64   C67   A    
N4    C40   S    
C24   C28   A    
C33   C85   S    
C27   H16   S    
C64   C72   A    
C85   H30   S    
C29   H5    S    
C85   H29   S    
C35   C39   A    
C15   N3    A    
C30   C34   A    
C2    C59   S    
C29   C33   A    
O20   V2    S    
C29   C57   A    
C28   C60   A    
N3    C19   A    
C68   C83   A    
C56   C79   A    
C9    H1    S    
C17   O26   S    
C43   C47   A    
N4    C20   A    
C67   C84   A    
C20   C56   A    
C19   O28   S    
C89   H43   S    
C87   H36   S    
C53   C78   A    
C4    O14   A    
C65   C82   A    
C24   O31   S    
C13   O21   S    
C67   C71   A    
C86   H32   S    
C15   O23   S    
C52   H12   S    
C45   C49   A    
C16   O24   S    
C91   H48   S    
C62   C65   A    
