data_mof_unit_44950.cif
_audit_creation_date              2012-10-26T20:03:19-0400
_audit_creation_method            fapswitch 2.2
_symmetry_space_group_name_H-M    P1
_symmetry_Int_Tables_number       1
_space_group_crystal_system       triclinic
_cell_length_a                    10.649226
_cell_length_b                    12.346319
_cell_length_c                    13.376358
_cell_angle_alpha                 117.256758
_cell_angle_beta                  76.585192
_cell_angle_gamma                 101.194392
_cell_volume                      1512.8934111

loop_
_atom_site_label
_atom_site_type_symbol
_atom_type_description
_atom_site_fract_x
_atom_site_fract_y
_atom_site_fract_z
_atom_type_partial_charge
C1    C     C_R   0.507615 0.853610 0.287220 0.534753
C2    C     C_R   0.486060 0.555772 0.013933 0.041971
C3    C     C_R   0.461871 0.638563 0.131192 -0.031983
C4    C     C_R   0.740429 0.998596 0.498193 0.540829
C5    C     C_R   0.460369 0.428446 0.983212 0.037608
C6    C     C_R   0.436502 0.385217 0.067361 -0.036843
C7    C     C_R   0.393268 0.465056 0.180130 -0.014044
C8    C     C_R   0.396602 0.589245 0.208991 -0.114537
C9    C     C_R   0.428682 0.343719 0.877016 0.269911
C10   C     C_R   0.478225 0.183368 0.915929 0.242341
C11   C     C_R   0.502396 0.766499 0.165932 -0.017551
C12   C     C_3   0.014151 0.903184 0.517123 -0.104660
C13   C     C_R   0.705058 0.342116 0.324143 -0.133238
C14   C     C_R   0.320132 0.758079 0.643231 0.130195
C15   C     C_R   0.268733 0.654155 0.659387 -0.164011
C16   C     C_R   0.481567 0.145285 0.713470 0.561263
C17   C     C_R   0.327454 0.546497 0.595548 -0.016459
C18   C     C_R   0.449125 0.545843 0.524565 0.013440
C19   C     C_R   0.492237 0.651339 0.502836 0.156253
C20   C     C_R   0.525473 0.443419 0.468828 -0.002505
C21   C     C_R   0.632183 0.442553 0.383091 -0.008599
C22   C     C_R   0.667140 0.542835 0.357682 -0.169434
C23   C     C_3   0.959228 0.891321 0.414617 -0.143098
C24   C     C_R   0.600248 0.645792 0.417760 -0.091902
C25   C     C_R   0.504440 0.343921 0.497949 0.031127
C26   C     C_R   0.672353 0.240656 0.350068 0.446232
C27   C     C_R   0.259565 0.999952 0.500067 0.546185
C28   C     C_3   0.986474 0.090314 0.478630 0.009046
C29   C     C_3   0.070041 0.985683 0.396125 -0.125144
C30   C     C_3   0.122324 0.998142 0.499058 0.039552
C31   C     C_3   0.040519 0.103791 0.581397 -0.117695
C32   C     C_3   0.930242 0.008967 0.599099 -0.133953
C33   C     C_3   0.293684 0.365356 0.777471 -0.092748
C34   C     C_3   0.877511 0.997331 0.496740 0.018971
C35   C     C_3   0.708588 0.502431 0.799702 -0.124764
C36   C     C_3   0.792600 0.110063 0.180934 -0.133409
C37   C     C_1   0.251795 0.865515 0.709071 0.283920
C38   C     C_1   0.971097 0.191176 0.454386 0.289287
C39   C     C_1   0.245884 0.436503 0.586342 0.179535
C40   C     C_3   0.593860 0.055047 0.934451 -0.129999
C41   C     C_1   0.329933 0.419177 0.262987 0.184586
C42   C     C_R   0.447518 0.261063 0.032943 -0.126135
C43   C     C_R   0.467396 0.226063 0.836410 0.036466
C44   C     C_R   0.549776 0.809481 0.082272 -0.187426
C45   C     C_R   0.568280 0.728491 0.967226 -0.116954
C46   C     C_R   0.543463 0.602093 0.932427 0.278076
Cu1   Cu    Cu3+1 0.529830 0.098270 0.475420 1.007092
Cu2   Cu    Cu3+1 0.470170 0.901730 0.524580 0.963522
H1    H     H_    0.129934 0.976919 0.313383 0.122974
H2    H     H_    0.073475 0.188857 0.652445 0.133508
H3    H     H_    0.870343 0.018105 0.681944 0.125113
H4    H     H_    0.027965 0.825996 0.533194 0.134966
H5    H     H_    0.922957 0.804428 0.346846 0.108861
H6    H     H_    0.435503 0.225800 0.095589 0.132329
H7    H     H_    0.300104 0.278481 0.698705 0.153628
H8    H     H_    0.365591 0.439651 0.768612 0.170201
H9    H     H_    0.196553 0.394958 0.792134 0.141693
H10   H     H_    0.722219 0.458396 0.852292 0.101796
H11   H     H_    0.775242 0.588134 0.816421 0.118391
H12   H     H_    0.577662 0.906070 0.105862 0.135816
H13   H     H_    0.735239 0.438117 0.708857 0.166859
H14   H     H_    0.815014 0.013372 0.137306 0.138550
H15   H     H_    0.885205 0.167692 0.173872 0.136392
H16   H     H_    0.721984 0.118626 0.135946 0.070904
H17   H     H_    0.546190 0.054819 0.017509 0.114392
H18   H     H_    0.636403 0.966775 0.881615 0.137974
H19   H     H_    0.675416 0.129359 0.946126 0.095612
H20   H     H_    0.609106 0.763714 0.904552 0.126812
H21   H     H_    0.345215 0.644563 0.291811 0.161322
H22   H     H_    0.748887 0.542840 0.291933 0.108308
H23   H     H_    0.787273 0.344345 0.259755 0.094415
H24   H     H_    0.435470 0.343437 0.569790 0.128473
H25   H     H_    0.177344 0.654907 0.716317 0.100420
H26   H     H_    0.635170 0.718386 0.393105 0.180664
N1    N     N_R   0.575030 0.246270 0.438190 -0.229154
N2    N     N_R   0.425760 0.754330 0.561190 -0.257228
N3    N     N_1   0.195719 0.951157 0.762652 -0.293878
N4    N     N_1   0.959222 0.270800 0.435379 -0.248706
N5    N     N_1   0.179614 0.347982 0.577757 -0.345379
N6    N     N_1   0.277944 0.381028 0.328078 -0.277336
O1    O     O_R   0.537510 0.972500 0.318130 -0.458775
O2    O     O_3   0.578360 0.524930 0.818559 -0.596487
O3    O     O_3   0.741599 0.138374 0.296363 -0.513397
O4    O     O_3   0.501666 0.062655 0.877832 -0.532396
O5    O     O_R   0.487140 0.806530 0.359650 -0.548226
O6    O     O_R   0.708330 0.082950 0.479220 -0.454384
O7    O     O_R   0.657960 0.916980 0.520740 -0.525966
O8    O     O_R   0.512860 0.193470 0.640350 -0.531996
O9    O     O_R   0.462490 0.027500 0.681870 -0.434704
O10   O     O_R   0.342040 0.083020 0.479260 -0.508530
O11   O     O_R   0.291670 0.917050 0.520780 -0.515236
O12   O     O_3   0.301293 0.345394 0.870516 -0.573662

loop_
_geom_bond_atom_site_label_1
_geom_bond_atom_site_label_2
_ccdc_geom_bond_type
C33   H7    S    
C26   O3    S    
C10   C42   A    
Cu2   N2    S    
C1    C11   S    
C41   N6    T    
C7    C8    A    
C4    O7    A    
C29   H1    S    
C45   C46   A    
C2    C46   A    
C12   C23   S    
C8    H21   S    
C35   H10   S    
C23   C29   S    
C28   C29   S    
C30   C31   S    
C4    O6    A    
C20   C25   A    
C36   O3    S    
C1    O1    A    
C27   O10   A    
C35   H11   S    
C18   C19   A    
C17   C39   S    
C40   O4    S    
C32   C34   S    
C46   O2    S    
Cu1   Cu2   S    
Cu2   O11   S    
C27   O11   A    
C36   H15   S    
C33   H8    S    
C7    C41   S    
C28   C34   S    
C16   O9    A    
C40   H18   S    
C21   C22   A    
C12   C32   S    
C27   C30   S    
C36   H14   S    
C9    O12   S    
C12   H4    S    
C35   O2    S    
C17   C18   A    
C1    O5    A    
C4    C34   S    
C9    C43   A    
Cu1   O6    S    
C3    C8    A    
C33   O12   S    
C13   H23   S    
C37   N3    T    
C40   H19   S    
C25   N1    A    
C14   N2    A    
C32   H3    S    
C5    C9    A    
C29   C30   S    
C31   C32   S    
C28   C38   S    
C23   C34   S    
C45   H20   S    
C26   N1    A    
Cu2   O7    S    
C13   C21   A    
C11   C44   A    
C35   H13   S    
C25   H24   S    
C16   C43   S    
C15   H25   S    
Cu2   O9    S    
Cu1   O10   S    
C22   C24   A    
C13   C26   A    
C2    C5    A    
C31   H2    S    
C44   C45   A    
C15   C17   A    
C19   N2    A    
C33   H9    S    
C12   C30   S    
C10   C43   A    
C14   C15   A    
C28   C31   S    
C6    C7    A    
C38   N4    T    
C40   H17   S    
Cu1   O8    S    
C2    C3    A    
Cu1   N1    S    
C42   H6    S    
C14   C37   S    
C24   H26   S    
C5    C6    A    
C44   H12   S    
C23   H5    S    
C10   O4    S    
C19   C24   A    
C18   C20   A    
Cu1   O1    S    
C3    C11   A    
C20   C21   A    
C6    C42   A    
C16   O8    A    
Cu2   O5    S    
C36   H16   S    
C22   H22   S    
C39   N5    T    
