data_mof_unit_58699.cif
_audit_creation_date              2012-12-10T21:09:15-0500
_audit_creation_method            fapswitch 2.2
_symmetry_space_group_name_H-M    P1
_symmetry_Int_Tables_number       1
_space_group_crystal_system       triclinic
_cell_length_a                    10.800278
_cell_length_b                    17.280262
_cell_length_c                    16.893476
_cell_angle_alpha                 90.140324
_cell_angle_beta                  104.296962
_cell_angle_gamma                 91.179955
_cell_volume                      3054.46910924

loop_
_atom_site_label
_atom_site_type_symbol
_atom_type_description
_atom_site_fract_x
_atom_site_fract_y
_atom_site_fract_z
_atom_type_partial_charge
C1    C     C_R   0.504085 0.352251 0.500321 0.946115
C2    C     C_R   0.586473 0.545982 0.266395 0.429181
C3    C     C_R   0.613456 0.503140 0.767033 0.380775
C4    C     C_R   0.416720 0.452097 0.238625 0.408682
C5    C     C_R   0.615846 0.503037 0.852018 0.320241
C6    C     C_R   0.419142 0.449607 0.154398 0.312503
C7    C     C_R   0.500700 0.503134 0.877251 -0.253402
C8    C     C_R   0.501321 0.500500 0.125026 -0.216495
C9    C     C_1   0.500311 0.503006 0.964732 0.083039
C10   C     C_1   0.500538 0.502248 0.037388 0.106027
C11   C     C_R   0.258671 0.499076 0.465952 0.808988
C12   C     C_R   0.501119 0.647944 0.500517 0.944652
C13   C     C_R   0.740105 0.506458 0.534152 0.840023
C14   C     C_2   0.120454 0.491459 0.447751 0.209188
C15   C     C_2   0.873879 0.529160 0.553613 0.253017
C16   C     C_2   0.063284 0.525447 0.500892 0.355646
C17   C     C_2   0.949426 0.487925 0.518393 0.376827
C18   C     C_R   0.560861 0.850561 0.589672 0.401023
C19   C     C_R   0.638095 0.158508 0.459515 0.388123
C20   C     C_R   0.515664 0.773450 0.577420 0.307918
C21   C     C_R   0.594205 0.235122 0.447207 0.306236
C22   C     C_R   0.528039 0.732171 0.507127 -0.436753
C23   C     C_R   0.617074 0.885702 0.531698 -0.277729
C24   C     C_R   0.534710 0.269193 0.504719 -0.420152
C25   C     C_R   0.582236 0.769568 0.448888 0.338462
C26   C     C_R   0.516420 0.225710 0.571575 0.380687
C27   C     C_R   0.632834 0.844692 0.463696 0.392440
C28   C     C_R   0.568821 0.152473 0.586540 0.387697
C29   C     C_3   0.906141 0.362748 0.553181 -0.428693
C30   C     C_3   0.131716 0.652666 0.507324 -0.207986
C31   C     C_3   0.763946 0.560756 0.959851 -0.267784
C32   C     C_3   0.396110 0.341319 0.072385 -0.347556
C33   C     C_3   0.843250 0.660502 0.563197 -0.344756
C34   C     C_R   0.623082 0.117976 0.528695 -0.268578
C35   C     C_3   0.104639 0.366707 0.398584 -0.228915
C36   C     C_3   0.649652 0.914140 0.710435 -0.300781
C37   C     C_3   0.810634 0.105285 0.425233 -0.339147
C38   C     C_3   0.513692 0.723063 0.703335 0.156410
C39   C     C_3   0.424927 0.698615 0.756393 -0.781825
C40   C     C_3   0.712558 0.278757 0.356914 0.173461
C41   C     C_3   0.721685 0.352894 0.310344 -0.797776
C42   C     C_3   0.481658 0.749623 0.316087 -0.144848
C43   C     C_3   0.316673 0.225122 0.590999 -0.309414
C44   C     C_3   0.817819 0.866366 0.426621 -0.283215
C45   C     C_1   0.634330 0.967430 0.532871 0.133313
C46   C     C_3   0.646140 0.132463 0.721937 -0.274473
C47   C     C_3   0.237709 0.436689 0.871516 -0.272381
C48   C     C_3   0.593006 0.665358 0.114968 -0.274053
C49   C     C_3   0.246070 0.405745 0.665646 -0.240933
C50   C     C_3   0.797708 0.580089 0.321916 -0.126967
C51   C     C_3   0.797243 0.569166 0.760865 0.123577
C52   C     C_3   0.939633 0.553278 0.785579 -0.627175
C53   C     C_3   0.332193 0.331465 0.260395 0.237230
C54   C     C_3   0.205756 0.295062 0.212747 -0.860866
C55   C     C_1   0.636283 0.036360 0.531947 0.136925
C56   C     C_R   0.385698 0.500307 0.816020 0.321573
C57   C     C_R   0.582921 0.550657 0.181478 0.286624
C58   C     C_R   0.387555 0.496161 0.732416 0.449165
H1    H     H_    0.948056 0.306771 0.542539 0.169151
H2    H     H_    0.332860 0.288990 0.063015 0.187614
H3    H     H_    0.487906 0.325410 0.115460 0.143801
H4    H     H_    0.414110 0.355883 0.012346 0.176838
H5    H     H_    0.896568 0.714755 0.586560 0.185734
H6    H     H_    0.753027 0.660392 0.582891 0.136346
H7    H     H_    0.822744 0.661713 0.495402 0.177315
H8    H     H_    0.197732 0.364894 0.382354 0.172332
H9    H     H_    0.037971 0.325262 0.358372 0.165778
H10   H     H_    0.116121 0.346579 0.462409 0.136986
H11   H     H_    0.690374 0.969077 0.693257 0.190400
H12   H     H_    0.804667 0.351334 0.553197 0.187433
H13   H     H_    0.723062 0.868391 0.719003 0.101253
H14   H     H_    0.627993 0.923993 0.770473 0.184669
H15   H     H_    0.825888 0.050221 0.459503 0.191443
H16   H     H_    0.866803 0.153106 0.462974 0.110103
H17   H     H_    0.849598 0.098140 0.370811 0.184884
H18   H     H_    0.574104 0.771745 0.734950 0.143020
H19   H     H_    0.576951 0.674295 0.699030 0.111105
H20   H     H_    0.355535 0.653726 0.724336 0.292206
H21   H     H_    0.481334 0.675098 0.815100 0.169509
H22   H     H_    0.371132 0.749253 0.769291 0.256412
H23   H     H_    0.958838 0.383885 0.615006 0.161707
H24   H     H_    0.723129 0.229912 0.316500 0.181722
H25   H     H_    0.792817 0.279245 0.412649 0.152017
H26   H     H_    0.711884 0.403480 0.348437 0.299792
H27   H     H_    0.815499 0.357158 0.294755 0.231494
H28   H     H_    0.645018 0.353474 0.252926 0.197392
H29   H     H_    0.481078 0.811998 0.299892 0.162960
H30   H     H_    0.391765 0.732933 0.333439 0.118313
H31   H     H_    0.483826 0.715739 0.260814 0.166529
H32   H     H_    0.311448 0.160810 0.585926 0.200004
H33   H     H_    0.272840 0.251256 0.530761 0.119792
H34   H     H_    0.160578 0.701903 0.550657 0.223760
H35   H     H_    0.258845 0.241387 0.634046 0.161639
H36   H     H_    0.836100 0.803388 0.423422 0.173160
H37   H     H_    0.865764 0.890050 0.488179 0.130913
H38   H     H_    0.861282 0.896003 0.381570 0.185401
H39   H     H_    0.638291 0.194362 0.737993 0.195513
H40   H     H_    0.743221 0.121324 0.713356 0.123630
H41   H     H_    0.633758 0.097247 0.774365 0.180388
H42   H     H_    0.245382 0.447446 0.937286 0.220678
H43   H     H_    0.296992 0.386166 0.864487 0.121950
H44   H     H_    0.136661 0.420372 0.842941 0.178021
H45   H     H_    0.037668 0.666571 0.466012 0.102148
H46   H     H_    0.500352 0.674547 0.131183 0.134602
H47   H     H_    0.574788 0.657119 0.047893 0.161413
H48   H     H_    0.651649 0.719182 0.131271 0.185308
H49   H     H_    0.199886 0.383333 0.712948 0.138816
H50   H     H_    0.332681 0.372034 0.665648 0.192530
H51   H     H_    0.178543 0.395680 0.605490 0.163308
H52   H     H_    0.829870 0.623335 0.282442 0.193170
H53   H     H_    0.815354 0.520235 0.303180 0.158450
H54   H     H_    0.858416 0.589567 0.384196 0.120749
H55   H     H_    0.773657 0.606015 0.808979 0.083239
H56   H     H_    0.205034 0.648348 0.471708 0.115156
H57   H     H_    0.776240 0.603816 0.704602 0.160699
H58   H     H_    0.966709 0.516389 0.738883 0.276071
H59   H     H_    0.995237 0.608673 0.791619 0.214080
H60   H     H_    0.963594 0.522964 0.845110 0.241785
H61   H     H_    0.351823 0.307758 0.322998 0.167808
H62   H     H_    0.411018 0.311909 0.233978 0.142584
H63   H     H_    0.214622 0.231250 0.210294 0.202002
H64   H     H_    0.128389 0.308442 0.242813 0.244157
H65   H     H_    0.178141 0.317250 0.149543 0.301483
H66   H     H_    0.705823 0.612648 0.937821 0.112011
H67   H     H_    0.865493 0.577182 0.965066 0.177426
H68   H     H_    0.755031 0.545816 0.022036 0.220690
N1    N     N_R   0.500030 0.500030 0.707240 -0.218303
N2    N     N_R   0.499970 0.499970 0.292760 -0.211038
O1    O     O_R   0.500000 0.389130 0.566570 -0.575385
O2    O     O_3   0.125241 0.584798 0.552786 -0.522716
O3    O     O_3   0.732662 0.494866 0.908239 -0.562100
O4    O     O_3   0.332091 0.402321 0.100668 -0.581411
O5    O     O_3   0.918352 0.597090 0.596776 -0.580799
O6    O     O_3   0.052914 0.441478 0.386829 -0.589117
O7    O     O_3   0.534405 0.893337 0.652950 -0.545886
O8    O     O_3   0.678778 0.120708 0.398268 -0.571244
O9    O     O_3   0.438979 0.743243 0.625243 -0.555290
O10   O     O_3   0.591299 0.273675 0.374504 -0.605351
O11   O     O_3   0.590916 0.732168 0.378221 -0.528054
O12   O     O_R   0.500000 0.610870 0.433430 -0.544284
O13   O     O_3   0.443269 0.253303 0.621632 -0.575710
O14   O     O_3   0.685789 0.880816 0.406460 -0.562815
O15   O     O_3   0.550256 0.110138 0.652233 -0.561811
O16   O     O_3   0.268510 0.505771 0.835217 -0.560954
O17   O     O_3   0.663469 0.602718 0.155472 -0.604602
O18   O     O_3   0.272129 0.485984 0.676412 -0.498773
O19   O     O_3   0.669341 0.592647 0.323320 -0.529148
O20   O     O_3   0.728042 0.497931 0.745366 -0.550571
O21   O     O_3   0.321310 0.412891 0.265309 -0.561033
O22   O     O_R   0.499990 0.389100 0.433480 -0.570027
O23   O     O_R   0.500010 0.610900 0.566520 -0.601223
O24   O     O_R   0.317810 0.500010 0.541690 -0.538967
O25   O     O_R   0.682190 0.499990 0.458310 -0.589808
O26   O     O_R   0.317800 0.499990 0.408610 -0.579658
O27   O     O_R   0.682200 0.500010 0.591390 -0.580325
O28   O     O_3   0.912683 0.413545 0.488467 -0.611443
Zn1   Zn    Zn3+2 0.500010 0.500020 0.588860 1.011813
Zn2   Zn    Zn3+2 0.499990 0.499980 0.411140 1.022126

loop_
_geom_bond_atom_site_label_1
_geom_bond_atom_site_label_2
_ccdc_geom_bond_type
C50   O19   S    
C46   H41   S    
C23   C45   S    
C57   O17   S    
O27   Zn1   S    
C12   O23   A    
C54   H65   S    
C37   H16   S    
O1    Zn1   S    
C2    C57   A    
C33   H7    S    
C49   H49   S    
C38   H18   S    
C53   C54   S    
C4    O21   S    
C51   H55   S    
C58   N1    A    
C47   H43   S    
O23   Zn1   S    
C25   O11   S    
C24   C26   A    
C32   H3    S    
O26   Zn2   S    
C1    O1    A    
C38   C39   S    
C11   C14   S    
C3    N1    A    
C48   H46   S    
C12   C22   S    
C50   H52   S    
C27   O14   S    
C15   C17   D    
C5    O3    S    
O25   Zn2   S    
C13   O27   A    
C31   O3    S    
C11   O26   A    
O12   Zn2   S    
C48   H48   S    
C29   H1    S    
C16   C17   S    
C22   C25   A    
C40   O10   S    
C30   H45   S    
C12   O12   A    
C23   C27   A    
C26   O13   S    
C16   O2    S    
C9    C10   T    
N1    Zn1   S    
C18   C20   A    
C36   H13   S    
C52   H59   S    
C46   H40   S    
C28   C34   A    
C3    O20   S    
C47   H44   S    
C37   H17   S    
C53   O21   S    
C40   H25   S    
C21   O10   S    
C35   O6    S    
C49   H50   S    
C52   H58   S    
C53   H62   S    
C43   H32   S    
C4    N2    A    
N2    Zn2   S    
C18   C23   A    
C39   H20   S    
C40   H24   S    
C1    O22   A    
C6    O4    S    
C5    C7    A    
C6    C8    A    
C14   O6    S    
C35   H8    S    
C2    O19   S    
C30   O2    S    
C41   H26   S    
C47   O16   S    
C51   H57   S    
C47   H42   S    
C51   C52   S    
C39   H21   S    
C20   O9    S    
C29   H23   S    
C41   H28   S    
C8    C57   A    
C48   H47   S    
C35   H9    S    
C33   H5    S    
C48   O17   S    
C50   H54   S    
C37   O8    S    
C18   O7    S    
C28   O15   S    
C13   O25   A    
C29   O28   S    
C4    C6    A    
C40   C41   S    
C54   H63   S    
C20   C22   A    
C13   C15   S    
C14   C16   D    
C43   O13   S    
C42   H30   S    
C32   H2    S    
C36   O7    S    
C32   O4    S    
C36   H11   S    
C49   H51   S    
C29   H12   S    
C30   H56   S    
C7    C9    S    
C37   H15   S    
O24   Zn1   S    
C44   H38   S    
O22   Zn2   S    
C19   C21   A    
C42   O11   S    
C46   H39   S    
C8    C10   S    
C3    C5    A    
C19   C34   A    
C31   H66   S    
C53   H61   S    
C46   O15   S    
C15   O5    S    
C38   H19   S    
C25   C27   A    
C41   H27   S    
C26   C28   A    
C58   O18   S    
C42   H31   S    
C39   H22   S    
C19   O8    S    
C32   H4    S    
C44   H37   S    
C35   H10   S    
C33   H6    S    
C51   O20   S    
C50   H53   S    
C43   H35   S    
C38   O9    S    
C56   C58   A    
C49   O18   S    
C7    C56   A    
C54   H64   S    
C43   H33   S    
C44   H36   S    
C56   O16   S    
C33   O5    S    
C11   O24   A    
C34   C55   S    
C45   C55   T    
C1    C24   S    
C44   O14   S    
C21   C24   A    
C31   H67   S    
C42   H29   S    
C31   H68   S    
C17   O28   S    
C36   H14   S    
C2    N2    A    
C30   H34   S    
C52   H60   S    
