data_mof_unit_66840.cif
_audit_creation_date              2012-12-11T14:35:08-0500
_audit_creation_method            fapswitch 2.2
_symmetry_space_group_name_H-M    P1
_symmetry_Int_Tables_number       1
_space_group_crystal_system       triclinic
_cell_length_a                    8.889473
_cell_length_b                    15.130338
_cell_length_c                    16.248868
_cell_angle_alpha                 108.92959
_cell_angle_beta                  98.425853
_cell_angle_gamma                 79.737622
_cell_volume                      2024.95216936

loop_
_atom_site_label
_atom_site_type_symbol
_atom_type_description
_atom_site_fract_x
_atom_site_fract_y
_atom_site_fract_z
_atom_type_partial_charge
Ba1   Ba    Ba6+2 0.364960 0.465930 0.541880 1.901820
Ba2   Ba    Ba6+2 0.824870 0.533990 0.458110 1.857642
C1    C     C_3   0.369929 0.187875 0.788877 0.330832
C2    C     C_R   0.869834 0.498220 0.741377 -0.189341
C3    C     C_2   0.487337 0.413207 0.139972 -0.144968
C4    C     C_3   0.717117 0.273686 0.772129 0.605217
C5    C     C_2   0.457435 0.430347 0.223049 0.027882
C6    C     C_2   0.187158 0.497054 0.192033 -0.013824
C7    C     C_3   0.208631 0.451766 0.095595 0.015201
C8    C     C_3   0.373332 0.450787 0.076949 -0.032200
C9    C     C_2   0.081426 0.482614 0.033246 -0.077191
C10   C     C_2   0.104783 0.500258 0.960250 -0.064221
C11   C     C_R   0.830913 0.552361 0.918280 -0.098680
C12   C     C_3   0.267943 0.260635 0.747771 0.800135
C13   C     C_R   0.976201 0.512293 0.892497 0.032514
C14   C     C_R   0.705693 0.570782 0.859353 0.303529
C15   C     C_R   0.727773 0.551445 0.770171 0.085755
C16   C     C_3   0.767724 0.214697 0.838095 0.277018
C17   C     C_R   0.996306 0.483490 0.802779 0.103852
C18   C     C_R   0.225547 0.750702 0.448833 -0.111221
C19   C     C_R   0.313404 0.806995 0.427849 0.017663
C20   C     C_R   0.257768 0.903233 0.439833 -0.105799
C21   C     C_R   0.110794 0.944129 0.469834 0.066114
C22   C     C_R   0.026994 0.883655 0.490473 -0.028552
C23   C     C_3   0.028623 0.796013 0.750146 0.973169
C24   C     C_R   0.090007 0.791162 0.488726 0.076640
C25   C     C_R   0.906490 0.090558 0.519655 -0.054374
C26   C     C_R   0.857361 0.188558 0.541854 -0.020854
C27   C     C_R   0.077327 0.206895 0.479724 0.046394
C28   C     C_3   0.768689 0.214781 0.252976 0.623578
C29   C     C_R   0.131931 0.110103 0.463851 -0.061713
C30   C     C_R   0.048855 0.048868 0.483921 0.067285
C31   C     C_R   0.943081 0.246026 0.521465 -0.245755
C32   C     C_3   0.780880 0.205903 0.157229 -0.283668
C33   C     C_3   0.512640 0.817547 0.751352 0.968594
C34   C     C_3   0.903452 0.880517 0.780014 0.647221
C35   C     C_3   0.551724 0.918028 0.766920 -0.201618
C36   C     C_3   0.259129 0.227460 0.269601 0.711791
C37   C     C_3   0.206563 0.263261 0.191093 -0.297796
C38   C     C_3   0.078254 0.160956 0.710606 0.085780
C39   C     C_3   0.399951 0.143670 0.915492 0.252936
C40   C     C_3   0.119180 0.806202 0.901374 0.471881
C41   C     C_3   0.903205 0.980653 0.693126 0.187962
C42   C     C_3   0.868278 0.000030 0.916690 0.214831
C43   C     C_3   0.592774 0.391248 0.887149 0.171725
C44   C     C_3   0.551232 0.632677 0.976608 0.259850
C45   C     C_3   0.442620 0.710362 0.227055 0.337133
C46   C     C_3   0.367066 0.763077 0.163199 -0.316300
C47   C     C_3   0.968027 0.704166 0.194531 0.966062
C48   C     C_3   0.976605 0.719597 0.107024 -0.295346
C49   C     C_2   0.305769 0.483907 0.251428 -0.254693
H1    H     H_    0.307447 0.250437 0.682927 -0.068359
H2    H     H_    0.127899 0.217876 0.143061 0.174060
H3    H     H_    0.306655 0.264700 0.158169 0.062298
H4    H     H_    0.142598 0.335080 0.213407 0.047580
H5    H     H_    0.821040 0.850585 0.803087 -0.092533
H6    H     H_    0.486843 0.183781 0.774306 0.026279
H7    H     H_    0.520327 0.647313 0.192399 0.043667
H8    H     H_    0.350566 0.685654 0.250050 -0.057219
H9    H     H_    0.290883 0.827074 0.197081 0.123444
H10   H     H_    0.298240 0.716828 0.109735 0.022985
H11   H     H_    0.455174 0.784933 0.134988 0.170073
H12   H     H_    0.798601 0.273737 0.150926 0.117446
H13   H     H_    0.086563 0.694461 0.226365 -0.512335
H14   H     H_    0.013265 0.789046 0.116835 0.105764
H15   H     H_    0.863437 0.716953 0.067939 0.094680
H16   H     H_    0.062467 0.665781 0.069830 0.038304
H17   H     H_    0.596678 0.375764 0.117864 0.112266
H18   H     H_    0.288269 0.507104 0.320327 0.050080
H19   H     H_    0.889413 0.480275 0.673385 0.083369
H20   H     H_    0.964989 0.478360 0.042630 0.157540
H21   H     H_    0.221250 0.499676 0.948030 0.086562
H22   H     H_    0.832462 0.049476 0.533572 0.070957
H23   H     H_    0.881663 0.154118 0.132075 0.135044
H24   H     H_    0.332006 0.944281 0.425543 0.099642
H25   H     H_    0.235609 0.083669 0.431777 0.117760
H26   H     H_    0.815197 0.305827 0.764652 0.038337
H27   H     H_    0.913489 0.907148 0.511259 0.065648
H28   H     H_    0.901021 0.320445 0.534497 0.043326
H29   H     H_    0.270527 0.677727 0.441884 -0.022241
H30   H     H_    0.672640 0.207830 0.870966 0.016891
H31   H     H_    0.806394 0.142360 0.801167 -0.011069
H32   H     H_    0.858783 0.253394 0.296522 0.013812
H33   H     H_    0.664315 0.785854 0.933735 0.324924
H34   H     H_    0.675426 0.182687 0.115819 0.113454
H35   H     H_    0.389223 0.665777 0.568535 0.310365
H36   H     H_    0.239641 0.978794 0.147245 0.359396
H37   H     H_    0.101947 0.133792 0.767409 0.135524
H38   H     H_    0.143842 0.115114 0.655322 0.000154
H39   H     H_    0.955799 0.159414 0.690473 0.022162
H40   H     H_    0.399627 0.172139 0.987587 0.098577
H41   H     H_    0.516463 0.105958 0.901103 -0.008007
H42   H     H_    0.312382 0.094878 0.890960 0.143355
H43   H     H_    0.838079 0.720230 0.837542 0.303754
H44   H     H_    0.164536 0.735878 0.909368 0.100512
H45   H     H_    0.445754 0.969374 0.779972 0.095998
H46   H     H_    0.998013 0.824078 0.915211 -0.102876
H47   H     H_    0.179394 0.858077 0.954665 0.103653
H48   H     H_    0.992058 0.949310 0.648691 0.063597
H49   H     H_    0.963587 0.025198 0.750764 0.110833
H50   H     H_    0.813484 0.025463 0.664072 0.044387
H51   H     H_    0.815407 0.950373 0.936888 0.076972
H52   H     H_    0.780238 0.053229 0.897711 0.049090
H53   H     H_    0.938245 0.037391 0.975823 0.141915
H54   H     H_    0.121726 0.308962 0.926217 0.400232
H55   H     H_    0.080681 0.866152 0.279886 0.294588
H56   H     H_    0.584101 0.931630 0.709816 0.169635
H57   H     H_    0.504972 0.453735 0.898418 0.124213
H58   H     H_    0.705522 0.413020 0.916411 0.077204
H59   H     H_    0.555640 0.347794 0.921572 0.095713
H60   H     H_    0.599963 0.576530 0.007111 -0.026378
H61   H     H_    0.428593 0.651754 0.988472 0.068661
H62   H     H_    0.608667 0.696101 0.008720 0.054222
H63   H     H_    0.683215 0.159680 0.381833 0.305743
H64   H     H_    0.623943 0.945713 0.826861 0.062690
H65   H     H_    0.349911 0.268478 0.309776 -0.025532
H66   H     H_    0.348013 0.113938 0.756757 -0.086780
O1    O     O_2   0.426270 0.593440 0.713420 -0.338811
O2    O     O_2   0.630472 0.815305 0.457256 -0.370796
O3    O     O_3   0.530071 0.770563 0.293988 -0.504792
O4    O     O_3   0.647730 0.570260 0.604850 -0.457803
O5    O     O_3   0.070240 0.381690 0.454200 -0.491988
O6    O     O_2   0.845720 0.730180 0.545110 -0.395299
O7    O     O_3   0.082119 0.801928 0.674159 -0.560464
O8    O     O_2   0.896501 0.460888 0.192791 -0.451632
O9    O     O_3   0.885362 0.628425 0.182150 -0.625395
O10   O     O_3   0.203920 0.417520 0.657950 -0.461430
O11   O     O_2   0.291076 0.523286 0.812100 -0.395842
O12   O     O_3   0.129658 0.238386 0.313887 -0.649497
O13   O     O_3   0.631126 0.739868 0.731458 -0.647689
O14   O     O_3   0.293865 0.350204 0.805058 -0.591502
O15   O     O_2   0.343970 0.269780 0.454840 -0.466593
O16   O     O_3   0.615710 0.361880 0.613490 -0.484756
O17   O     O_2   0.550171 0.189985 0.535520 -0.437325
O18   O     O_2   0.345031 0.916965 0.887010 -0.285607
O19   O     O_2   0.408281 0.743628 0.858164 -0.291237
O20   O     O_3   0.618045 0.848659 0.929349 -0.554227
O21   O     O_2   0.271959 0.890741 0.659181 -0.383944
O22   O     O_2   0.499080 0.806174 0.588613 -0.383705
O23   O     O_3   0.669846 0.208306 0.691403 -0.657632
O24   O     O_3   0.332521 0.703676 0.619475 -0.519244
O25   O     O_2   0.454412 0.091647 0.170969 -0.252125
O26   O     O_2   0.396715 0.067783 0.304943 -0.247335
O27   O     O_3   0.189269 0.044330 0.171959 -0.492356
O28   O     O_3   0.108290 0.254637 0.736889 -0.688440
O29   O     O_3   0.362824 0.219368 0.880558 -0.664447
O30   O     O_2   0.873837 0.650679 0.658526 -0.335002
O31   O     O_2   0.133968 0.616764 0.713479 -0.234444
O32   O     O_3   0.933131 0.675698 0.826057 -0.680843
O33   O     O_3   0.149991 0.808944 0.817492 -0.557978
O34   O     O_2   0.763420 0.406520 0.286530 -0.483630
O35   O     O_3   0.833814 0.910667 0.707488 -0.688422
O36   O     O_3   0.965699 0.955100 0.849435 -0.648163
O37   O     O_2   0.850558 0.309166 0.006328 -0.346908
O38   O     O_2   0.021070 0.167343 0.935894 -0.321126
O39   O     O_3   0.020557 0.316555 0.893046 -0.545168
O40   O     O_2   0.719350 0.836748 0.213258 -0.207621
O41   O     O_2   0.836092 0.790383 0.342168 -0.287922
O42   O     O_3   0.974151 0.896906 0.289389 -0.429482
O43   O     O_3   0.590840 0.345769 0.796211 -0.645417
O44   O     O_3   0.558481 0.602162 0.884994 -0.597435
O45   O     O_3   0.541980 0.429670 0.395140 -0.496696
O46   O     O_2   0.759693 0.026561 0.181591 -0.167084
O47   O     O_2   0.973534 0.076985 0.289234 -0.262906
O48   O     O_3   0.708052 0.093695 0.344843 -0.390805
O49   O     O_3   0.985790 0.582400 0.342040 -0.471020
O50   O     O_3   0.622719 0.259156 0.279825 -0.666298
O51   O     O_3   0.119470 0.618230 0.545790 -0.400979
O52   O     O_3   0.574000 0.638040 0.386500 -0.485744
P1    P     P_3+3 0.589930 0.617420 0.700180 1.214275
P2    P     P_3+3 0.161520 0.277720 0.428790 1.017184
P3    P     P_3+3 0.678714 0.240877 0.597370 0.968095
P4    P     P_3+3 0.599780 0.382500 0.299810 0.930561
P5    P     P_3+3 0.510271 0.757033 0.394198 1.126964
P6    P     P_3+3 0.192976 0.442538 0.768231 1.111413
P7    P     P_3+3 0.025303 0.736503 0.563191 1.194106
P8    P     P_3+3 0.992113 0.543452 0.228443 1.012384
S1    S     S_3+6 0.461653 0.830954 0.857251 -0.081397
S2    S     S_3+6 0.394627 0.807251 0.653422 -0.116017
S3    S     S_3+6 0.331690 0.104668 0.229858 0.001719
S4    S     S_3+6 0.988036 0.681350 0.733901 -0.123838
S5    S     S_3+6 0.917280 0.252187 0.922165 -0.163292
S6    S     S_3+6 0.867855 0.808780 0.261749 0.016427
S7    S     S_3+6 0.804870 0.099282 0.265662 0.048524

loop_
_geom_bond_atom_site_label_1
_geom_bond_atom_site_label_2
_ccdc_geom_bond_type
O42   S6    S    
O34   P4    D    
C44   H61   S    
Ba1   O15   S    
Ba2   O45   S    
C2    H19   S    
O6    P7    D    
C42   H53   S    
O38   S5    D    
O45   P4    S    
Ba2   O6    S    
H43   O32   S    
C13   C17   A    
C47   O9    S    
C12   O28   S    
O37   S5    D    
C38   O28   S    
O47   S7    D    
C42   O36   S    
C33   C35   S    
O16   P3    S    
C41   H48   S    
C28   O50   S    
C35   H56   S    
C40   H47   S    
Ba2   P4    S    
C36   C37   S    
C43   H58   S    
C37   H3    S    
C16   S5    S    
H55   O42   S    
C27   C31   A    
Ba1   P1    S    
C16   H30   S    
O9    P8    S    
Ba1   Ba2   S    
C28   H32   S    
C47   C48   S    
Ba1   O5    S    
C1    H66   S    
C47   S6    S    
C2    C17   A    
C6    P8    S    
C26   P3    S    
O25   S3    D    
C39   O29   S    
O27   S3    S    
C14   C15   A    
C44   O44   S    
O52   P5    S    
O15   P2    D    
C38   H38   S    
C7    C8    S    
Ba2   O49   S    
C43   H57   S    
O50   P4    S    
O30   S4    D    
C33   S1    S    
O4    P1    S    
O46   S7    D    
O23   P3    S    
C47   H13   S    
O17   P3    D    
C44   H60   S    
O32   S4    S    
C43   O43   S    
C20   H24   S    
C3    H17   S    
Ba1   O16   S    
O21   S2    D    
C23   O7    S    
C42   H52   S    
C23   S4    S    
C34   O36   S    
C46   H9    S    
C17   P6    S    
C12   O14   S    
Ba2   O5    S    
O10   P6    S    
C4    C16   S    
C37   H4    S    
C36   S3    S    
C18   H29   S    
C40   H44   S    
C36   O12   S    
C41   H49   S    
C10   H21   S    
C40   H46   S    
C3    C5    D    
C28   C32   S    
C15   P1    S    
C6    C7    S    
C4    H26   S    
C34   O35   S    
Ba2   O52   S    
Ba1   O51   S    
Ba1   P2    S    
O20   S1    S    
C35   H45   S    
C23   O33   S    
C32   H34   S    
C41   H50   S    
C12   H1    S    
C34   H5    S    
C36   H65   S    
C39   H41   S    
C46   H11   S    
C45   C46   S    
C33   O13   S    
C10   C13   S    
C24   P7    S    
C21   C22   A    
C43   H59   S    
O31   S4    D    
O49   P8    S    
O26   S3    D    
C27   P2    S    
C7    C9    S    
C6    C49   D    
C1    C12   S    
C32   H23   S    
O7    P7    S    
C2    C15   A    
C1    H6    S    
O3    P5    S    
C45   O3    S    
C39   H40   S    
C26   C31   A    
O5    P2    S    
C11   C13   A    
O8    P8    D    
H36   O27   S    
Ba2   O51   S    
H63   O48   S    
O41   S6    D    
Ba2   O4    S    
C22   H27   S    
Ba2   O34   S    
O51   P7    S    
O11   P6    D    
C42   H51   S    
C44   H62   S    
O39   S5    S    
C25   C30   A    
O24   S2    S    
O48   S7    S    
C28   S7    S    
O12   P2    S    
C29   C30   A    
C31   H28   S    
Ba1   O10   S    
O18   S1    D    
C22   C24   A    
H33   O20   S    
C4    O43   S    
C9    C10   D    
C48   H15   S    
C35   H64   S    
C14   O44   S    
C49   H18   S    
C48   H16   S    
C39   H42   S    
C21   C30   S    
C38   H37   S    
C5    C49   S    
C3    C8    S    
O2    P5    D    
C25   H22   S    
O19   S1    D    
C33   S2    S    
C29   H25   S    
C37   H2    S    
C18   C24   A    
O13   P1    S    
C5    P4    S    
O14   P6    S    
C32   H12   S    
C16   H31   S    
C9    H20   S    
Ba1   O1    S    
C4    O23   S    
C40   O33   S    
C48   H14   S    
Ba1   O4    S    
O22   S2    D    
Ba1   O45   S    
C23   C34   S    
C45   H8    S    
H54   O39   S    
C18   C19   A    
C1    O29   S    
C27   C29   A    
C19   P5    S    
C11   C14   A    
C46   H10   S    
C25   C26   A    
O1    P1    D    
C20   C21   A    
O40   S6    D    
C38   H39   S    
C19   C20   A    
C41   O35   S    
H35   O24   S    
C45   H7    S    
