data_mof_unit_11986.cif
_audit_creation_date              2013-03-05T15:45:11-0500
_audit_creation_method            fapswitch 2.2
_symmetry_space_group_name_H-M    P1
_symmetry_Int_Tables_number       1
_space_group_crystal_system       triclinic
_cell_length_a                    10.790802
_cell_length_b                    10.977588
_cell_length_c                    9.914029
_cell_angle_alpha                 110.896927
_cell_angle_beta                  98.500896
_cell_angle_gamma                 92.567365
_cell_volume                      1079.02442666

loop_
_atom_site_label
_atom_site_type_symbol
_atom_site_description
_atom_site_fract_x
_atom_site_fract_y
_atom_site_fract_z
_atom_type_partial_charge
O1    O     O_R   0.511700 0.332330 0.577400 -0.540076
O2    O     O_R   0.474680 0.295500 0.332650 -0.589911
C1    C     C_R   0.487970 0.253615 0.440708 0.876194
O3    O     O_R   0.338160 0.518420 0.622400 -0.539001
O4    O     O_R   0.301140 0.481590 0.377650 -0.613756
C2    C     C_R   0.263447 0.504990 0.501740 0.818703
Cu1   Cu    Cu3+1 0.521920 0.521810 0.644910 1.041479
Cu2   Cu    Cu3+1 0.478080 0.478190 0.355090 1.076406
O5    O     O_R   0.525320 0.704500 0.667350 -0.587847
O6    O     O_R   0.488300 0.667670 0.422600 -0.532319
O7    O     O_R   0.698860 0.518410 0.622350 -0.590482
O8    O     O_R   0.661840 0.481580 0.377600 -0.515317
C3    C     C_R   0.502743 0.745754 0.559258 0.794017
C4    C     C_R   0.737605 0.504298 0.500649 0.862121
H1    H     H_    0.084057 0.338593 0.311018 0.174815
C5    C     C_R   0.168729 0.720513 0.720940 -0.141899
H2    H     H_    0.268884 0.729628 0.721851 0.147600
C6    C     C_R   0.123586 0.817320 0.830978 -0.185848
H3    H     H_    0.190205 0.893060 0.914327 0.172350
C7    C     C_R   0.994385 0.817425 0.832619 0.388130
C8    C     C_R   0.910867 0.719785 0.719934 -0.194443
H4    H     H_    0.811415 0.727387 0.718092 0.190971
C9    C     C_R   0.955244 0.615264 0.612218 -0.008203
C10   C     C_R   0.086252 0.616051 0.613336 0.137534
C11   C     C_R   0.130738 0.513984 0.504194 -0.094070
C12   C     C_R   0.047841 0.416379 0.393502 -0.232015
C13   C     C_R   0.919443 0.412086 0.392274 0.360275
C14   C     C_R   0.872428 0.510981 0.502105 -0.176943
H5    H     H_    0.465660 0.137993 0.627243 0.215352
C15   C     C_2   0.470259 0.112765 0.408017 -0.244837
C16   C     C_2   0.455718 0.069011 0.515212 -0.148456
C17   C     C_2   0.496180 0.886209 0.592282 0.174264
C18   C     C_2   0.434609 0.929157 0.491009 0.261194
H6    H     H_    0.467163 0.046140 0.296065 0.202987
N1    N     N_2   0.445130 0.445430 0.137370 -0.061499
C19   C     C_2   0.507525 0.517134 0.082662 0.442550
H7    H     H_    0.642196 0.596232 0.923998 0.233630
N2    N     N_2   0.554930 0.554500 0.862630 -0.339119
C20   C     C_2   0.477614 0.503274 0.923119 0.354100
N3    N     N_R   0.354541 0.445753 0.843460 0.168731
O9    O     O_R   0.256442 0.502282 0.886719 -0.356010
O10   O     O_R   0.338923 0.327705 0.745170 -0.371006
N4    N     N_R   0.599190 0.622311 0.178217 0.089895
O11   O     O_R   0.573672 0.742304 0.203263 -0.336543
O12   O     O_R   0.716607 0.600040 0.197556 -0.345336
O13   O     O_3   0.383899 0.331200 0.038421 -0.535840
C21   C     C_3   0.266194 0.312075 0.077065 0.230157
H8    H     H_    0.219509 0.404259 0.108865 0.193774
H9    H     H_    0.276976 0.273091 0.166409 0.162220
C22   C     C_3   0.179315 0.210817 0.946313 -0.719340
H10   H     H_    0.221189 0.116477 0.910907 0.215862
H11   H     H_    0.086974 0.194933 0.977363 0.254144
H12   H     H_    0.162832 0.245452 0.853569 0.296349
N5    N     N_R   0.947949 0.915814 0.948633 0.149509
O14   O     O_R   0.025695 0.997763 0.060919 -0.326739
O15   O     O_R   0.827495 0.918197 0.948423 -0.314737
N6    N     N_R   0.838982 0.302845 0.282876 0.142301
O16   O     O_R   0.757783 0.235907 0.321273 -0.364654
O17   O     O_R   0.861363 0.256788 0.149380 -0.320628
N7    N     N_R   0.338169 0.844824 0.372581 0.149565
O18   O     O_R   0.315138 0.861819 0.248348 -0.311428
O19   O     O_R   0.258994 0.765872 0.397772 -0.373227
O20   O     O_3   0.566990 0.974022 0.721914 -0.559447
C23   C     C_3   0.491046 0.002298 0.831730 -0.015422
H13   H     H_    0.465716 0.913270 0.855091 0.169876
H14   H     H_    0.402967 0.041626 0.798829 0.147368
C24   C     C_3   0.563292 0.105309 0.972652 -0.464602
H15   H     H_    0.588611 0.196658 0.954168 0.251852
H16   H     H_    0.504159 0.127227 0.059316 0.201848
H17   H     H_    0.650472 0.068523 0.010698 0.302880

loop_
_geom_bond_atom_site_label_1
_geom_bond_atom_site_label_2
_geom_bond_distance
_ccdc_geom_bond_type
O1    C1    1.300361 A    
O4    Cu2   1.955407 S    
C22   H11   1.109702 S    
N4    O11   1.300761 A    
C16   C18   1.468395 S    
H7    N2    1.029522 S    
C1    C15   1.459455 S    
N5    O14   1.301616 A    
C3    C17   1.464932 S    
C21   H8    1.114569 S    
C21   C22   1.521272 S    
Cu2   O8    1.959538 S    
C24   H17   1.108218 S    
C23   H13   1.113436 S    
N3    O10   1.299353 A    
O2    C1    1.300579 A    
N6    O16   1.301175 A    
C17   C18   1.356582 D    
Cu1   Cu2   2.702812 S    
C21   H9    1.107096 S    
C5    C6    1.390394 A    
O1    Cu1   1.936789 S    
C9    C14   1.424521 A    
C7    C8    1.403817 A    
N7    O19   1.301778 A    
Cu1   O7    1.955407 S    
N4    O12   1.300478 A    
C12   C13   1.382319 A    
N2    C20   1.310865 D    
O3    Cu1   1.959538 S    
O4    C2    1.294899 A    
C7    N5    1.439869 S    
N3    O9    1.301074 A    
C11   C12   1.391972 A    
Cu1   N2    2.030608 S    
O8    C4    1.299477 A    
O6    C3    1.300676 A    
C22   H10   1.108779 S    
C18   N7    1.447617 S    
C6    C7    1.396728 A    
C8    C9    1.418634 A    
C15   C16   1.338442 D    
O7    C4    1.294661 A    
N5    O15   1.300937 A    
N6    O17   1.301405 A    
O3    C2    1.296563 A    
C15   H6    1.084281 S    
C9    C10   1.411708 A    
C24   H15   1.111379 S    
C2    C11   1.443024 S    
C23   C24   1.519994 S    
C13   C14   1.411018 A    
C10   C11   1.411925 A    
C5    C10   1.414325 A    
C6    H3    1.082404 S    
C13   N6    1.438302 S    
C24   H16   1.109784 S    
C20   N3    1.430109 S    
Cu1   O5    1.935346 S    
O5    C3    1.300668 A    
O13   C21   1.407641 S    
C5    H2    1.079301 S    
H1    C12   1.084814 S    
N1    C19   1.316100 D    
C4    C14   1.451080 S    
C8    H4    1.078108 S    
H5    C16   1.084456 S    
N1    O13   1.352006 S    
C19   C20   1.517280 S    
Cu2   O6    1.936789 S    
O2    Cu2   1.935346 S    
O20   C23   1.413762 S    
C17   O20   1.387329 S    
C22   H12   1.108470 S    
N7    O18   1.300429 A    
C19   N4    1.431528 S    
Cu2   N1    2.030440 S    
C23   H14   1.114308 S    
