data_mof_unit_7319.cif
_audit_creation_date              2012-12-11T15:54:55-0500
_audit_creation_method            fapswitch 2.2
_symmetry_space_group_name_H-M    P1
_symmetry_Int_Tables_number       1
_space_group_crystal_system       triclinic
_cell_length_a                    17.391696
_cell_length_b                    24.484362
_cell_length_c                    14.870373
_cell_angle_alpha                 89.880941
_cell_angle_beta                  124.987347
_cell_angle_gamma                 89.912699
_cell_volume                      5187.77254219

loop_
_atom_site_label
_atom_site_type_symbol
_atom_type_description
_atom_site_fract_x
_atom_site_fract_y
_atom_site_fract_z
_atom_type_partial_charge
Br1   Br    Br    0.285670 0.981317 0.584787 -0.388487
Br2   Br    Br    0.206896 0.175525 0.864478 -0.539786
Br3   Br    Br    0.640895 0.296435 0.803823 -0.512247
Br4   Br    Br    0.707238 0.675451 0.865015 -0.508539
Br5   Br    Br    0.912381 0.213325 0.244730 -0.504947
Br6   Br    Br    0.882406 0.802800 0.252240 -0.508808
Br7   Br    Br    0.412253 0.713268 0.244730 -0.536742
Br8   Br    Br    0.383945 0.302243 0.252237 -0.506177
Br9   Br    Br    0.438946 0.875955 0.389148 -0.430232
Br10  Br    Br    0.435185 0.123242 0.393056 -0.442088
Br11  Br    Br    0.939941 0.375877 0.387961 -0.427183
Br12  Br    Br    0.154683 0.888654 0.543632 -0.386587
Br13  Br    Br    0.934060 0.623094 0.394301 -0.451112
Br14  Br    Br    0.472055 0.933995 0.228473 -0.316053
Br15  Br    Br    0.470290 0.068786 0.230325 -0.342677
Br16  Br    Br    0.972183 0.434932 0.227613 -0.314723
Br17  Br    Br    0.970223 0.569685 0.231466 -0.345681
Br18  Br    Br    0.543491 0.934773 0.656669 -0.415576
Br19  Br    Br    0.541555 0.061514 0.658307 -0.450060
Br20  Br    Br    0.043674 0.433633 0.655784 -0.417933
Br21  Br    Br    0.041199 0.560337 0.659248 -0.447708
Br22  Br    Br    0.783512 0.475701 0.583081 -0.378808
Br23  Br    Br    0.645717 0.386804 0.541176 -0.389257
Br24  Br    Br    0.284775 0.028611 0.790069 -0.328354
Br25  Br    Br    0.224332 0.915639 0.786385 -0.353434
Br26  Br    Br    0.784514 0.528446 0.784097 -0.281654
Br27  Br    Br    0.724412 0.415769 0.786964 -0.355390
Br28  Br    Br    0.140846 0.796387 0.803780 -0.515975
C1    C     C_R   0.900032 0.880870 0.093512 -0.028207
C2    C     C_R   0.139047 0.846044 0.090872 -0.102951
C3    C     C_R   0.314501 0.635769 0.006940 0.041541
C4    C     C_R   0.694682 0.000141 0.636574 0.096108
C5    C     C_R   0.194606 0.500166 0.636668 0.095891
C6    C     C_R   0.072458 0.001178 0.372169 0.117137
C7    C     C_R   0.571763 0.500973 0.371747 0.100254
C8    C     C_R   0.265590 0.954576 0.236352 -0.083721
C9    C     C_R   0.265430 0.045123 0.235867 -0.082046
C10   C     C_R   0.765610 0.454522 0.236569 -0.085234
C11   C     C_R   0.765402 0.545073 0.235669 -0.090332
C12   C     C_R   0.033228 0.045976 0.768989 -0.132773
C13   C     C_R   0.640473 0.653744 0.088518 -0.208542
C14   C     C_R   0.035278 0.955412 0.770268 -0.060389
C15   C     C_R   0.532883 0.546004 0.768506 -0.135945
C16   C     C_R   0.534950 0.455404 0.769745 -0.052998
C17   C     C_2   0.515938 0.194052 0.946062 0.764831
C18   C     C_2   0.498243 0.789533 0.870563 0.751346
C19   C     C_2   0.015824 0.694025 0.945947 0.782063
C20   C     C_2   0.998636 0.289516 0.871839 0.749613
C21   C     C_2   0.769797 0.136042 0.178821 0.472491
C22   C     C_2   0.728809 0.873104 0.142538 0.748356
C23   C     C_2   0.269668 0.635977 0.178738 0.474272
C24   C     C_R   0.639071 0.346054 0.090887 -0.103274
C25   C     C_2   0.230677 0.372743 0.144439 0.739259
C26   C     C_2   0.674993 0.227178 0.188362 0.636783
C27   C     C_2   0.617717 0.782853 0.125100 0.454522
C28   C     C_2   0.174816 0.727117 0.188242 0.633418
C29   C     C_2   0.119128 0.282696 0.126433 0.458627
C30   C     C_2   0.272702 0.830731 0.020040 0.632125
C31   C     C_2   0.310557 0.178775 0.089685 0.680230
C32   C     C_2   0.772748 0.330801 0.020082 0.631523
C33   C     C_2   0.810143 0.678830 0.090196 0.676273
C34   C     C_2   0.957623 0.825293 0.805836 0.588727
C35   C     C_R   0.323286 0.999791 0.262648 0.150155
C36   C     C_2   0.967110 0.172297 0.799775 0.408879
C37   C     C_2   0.457615 0.325283 0.805875 0.591916
C38   C     C_2   0.466801 0.672179 0.799631 0.407425
C39   C     C_2   0.172349 0.096874 0.547245 0.634250
C40   C     C_2   0.938513 0.933987 0.379087 0.501260
C41   C     C_2   0.678623 0.593052 0.549752 0.702710
C42   C     C_2   0.433215 0.437056 0.374741 0.497948
C43   C     C_R   0.823281 0.499729 0.262684 0.154441
C44   C     C_R   0.069605 0.001535 0.748337 0.128127
C45   C     C_R   0.569179 0.501552 0.747759 0.121232
C46   C     C_R   0.101498 0.811522 0.001097 -0.090307
C47   C     C_R   0.107917 0.185992 0.996366 -0.108812
C48   C     C_R   0.601540 0.311535 0.001120 -0.089736
C49   C     C_R   0.901713 0.119984 0.094745 -0.045839
C50   C     C_R   0.607515 0.686045 0.996119 -0.107664
C51   C     C_3   0.088366 0.063037 0.519497 -0.318647
C52   C     C_3   0.987759 0.980959 0.456294 -0.161359
C53   C     C_3   0.591482 0.562594 0.521181 -0.338447
C54   C     C_3   0.485574 0.482683 0.454692 -0.146694
C55   C     C_3   0.076305 0.062630 0.614596 -0.440459
C56   C     C_3   0.001644 0.969076 0.564276 -0.558300
C57   C     C_3   0.577312 0.562628 0.615021 -0.355198
C58   C     C_3   0.499264 0.470266 0.562536 -0.563833
C59   C     C_3   0.170715 0.967467 0.576441 0.399369
C60   C     C_R   0.399924 0.381034 0.093475 -0.026323
C61   C     C_3   0.667632 0.465489 0.574533 0.400981
C62   C     C_3   0.083296 0.002136 0.479749 -0.058846
C63   C     C_3   0.582273 0.501815 0.478983 -0.070948
C64   C     C_3   0.085002 0.002950 0.658841 0.083603
C65   C     C_3   0.584264 0.502962 0.658107 0.050609
C66   C     C_R   0.809780 0.123461 0.911692 -0.131955
C67   C     C_R   0.809106 0.878066 0.910599 -0.141035
C68   C     C_R   0.309760 0.623426 0.911705 -0.131777
C69   C     C_R   0.309093 0.378086 0.910601 -0.141600
C70   C     C_3   0.181503 0.978933 0.689224 0.457983
C71   C     C_R   0.401715 0.619965 0.094764 -0.046906
C72   C     C_3   0.680182 0.478182 0.687630 0.467059
C73   C     C_3   0.651438 0.166479 0.930328 -0.289392
C74   C     C_3   0.649340 0.827121 0.907843 -0.335082
C75   C     C_3   0.151362 0.666439 0.930275 -0.288321
C76   C     C_3   0.149446 0.327269 0.908620 -0.332779
C77   C     C_3   0.088388 0.712887 0.926862 -0.312364
C78   C     C_3   0.093894 0.275437 0.896626 -0.299986
C79   C     C_3   0.588475 0.212918 0.926934 -0.305151
C80   C     C_3   0.593655 0.775349 0.895907 -0.300703
C81   C     C_3   0.281391 0.732364 0.977880 -0.360030
C82   C     C_R   0.042999 0.844484 0.909899 -0.042853
C83   C     C_3   0.295388 0.269008 0.995604 -0.386786
C84   C     C_3   0.781452 0.232410 0.977887 -0.360648
C85   C     C_3   0.795490 0.768950 0.996221 -0.385421
C86   C     C_3   0.781204 0.188934 0.132920 0.088751
C87   C     C_3   0.756876 0.819444 0.117435 0.056869
C88   C     C_3   0.281091 0.688879 0.132876 0.088971
C89   C     C_3   0.258007 0.319162 0.118201 0.055083
C90   C     C_3   0.758002 0.179334 0.013893 0.111964
C91   C     C_3   0.754112 0.822325 0.008489 0.117177
C92   C     C_3   0.257932 0.679287 0.013871 0.113086
C93   C     C_R   0.049793 0.153218 0.905958 0.062689
C94   C     C_3   0.254386 0.322325 0.008721 0.118657
C95   C     C_3   0.152676 0.760801 0.003559 0.078752
C96   C     C_3   0.157087 0.236664 0.998144 0.058858
C97   C     C_3   0.652758 0.260837 0.003607 0.079691
C98   C     C_3   0.656610 0.736717 0.997750 0.058259
C99   C     C_3   0.216120 0.779388 0.962606 0.131763
C100  C     C_3   0.244148 0.217776 0.996267 0.156823
C101  C     C_3   0.716194 0.279438 0.962649 0.130502
C102  C     C_3   0.743996 0.717783 0.996563 0.154997
C103  C     C_3   0.218583 0.737472 0.125260 -0.323034
C104  C     C_R   0.543014 0.344486 0.909906 -0.043708
C105  C     C_3   0.194239 0.270203 0.106332 -0.353856
C106  C     C_3   0.718707 0.237528 0.125318 -0.325834
C107  C     C_3   0.693177 0.770435 0.105530 -0.353875
C108  C     C_3   0.480354 0.946077 0.363513 0.582209
C109  C     C_3   0.478612 0.054556 0.364906 0.565863
C110  C     C_3   0.980692 0.446395 0.362943 0.581962
C111  C     C_3   0.978212 0.554844 0.365652 0.567084
C112  C     C_R   0.743876 0.954492 0.697558 -0.029585
C113  C     C_R   0.743444 0.045753 0.697628 -0.077752
C114  C     C_R   0.243798 0.454504 0.697595 -0.029415
C115  C     C_R   0.549613 0.653204 0.905815 0.060960
C116  C     C_R   0.243436 0.545772 0.697686 -0.078015
C117  C     C_3   0.584253 0.950550 0.461387 -0.511335
C118  C     C_3   0.582571 0.050366 0.462497 -0.488189
C119  C     C_3   0.084602 0.451012 0.460758 -0.510001
C120  C     C_3   0.082116 0.550800 0.463369 -0.488088
C121  C     C_3   0.425490 0.998797 0.463212 -0.501312
C122  C     C_3   0.925426 0.498177 0.463245 -0.505052
C123  C     C_3   0.424945 0.999805 0.358382 -0.149068
C124  C     C_3   0.924914 0.499793 0.358445 -0.148002
C125  C     C_3   0.598582 0.999973 0.534614 -0.022133
C126  C     C_R   0.140729 0.153679 0.088664 -0.207324
C127  C     C_3   0.098516 0.500002 0.534712 -0.022645
C128  C     C_3   0.526657 0.998875 0.567394 0.637104
C129  C     C_3   0.026583 0.498198 0.567445 0.638097
C130  C     C_R   0.052994 0.045845 0.305991 -0.156774
C131  C     C_R   0.057307 0.955530 0.308792 -0.035869
C132  C     C_R   0.552844 0.545795 0.306002 -0.155634
C133  C     C_R   0.556646 0.455379 0.308479 -0.029112
C134  C     C_R   0.811106 0.866861 0.004399 0.118581
C135  C     C_R   0.814531 0.135812 0.006927 0.039308
C136  C     C_R   0.311100 0.366941 0.004417 0.117163
H1    H     H_    0.926634 0.881321 0.178311 0.166140
H2    H     H_    0.934287 0.978853 0.554018 0.205318
H3    H     H_    0.448248 0.394705 0.400178 0.120822
H4    H     H_    0.506089 0.579486 0.581531 0.192644
H5    H     H_    0.432482 0.480952 0.552936 0.205068
H6    H     H_    0.126368 0.090991 0.680853 0.239984
H7    H     H_    0.015579 0.924786 0.584514 0.222875
H8    H     H_    0.626819 0.590591 0.682336 0.258443
H9    H     H_    0.511186 0.425787 0.581205 0.225842
H10   H     H_    0.635280 0.162683 0.846573 0.197549
H11   H     H_    0.643129 0.832135 0.829828 0.198368
H12   H     H_    0.135220 0.662641 0.846527 0.197691
H13   H     H_    0.927838 0.119184 0.179490 0.125274
H14   H     H_    0.142819 0.332554 0.830403 0.198225
H15   H     H_    0.634946 0.125729 0.947520 0.250938
H16   H     H_    0.616524 0.864266 0.914743 0.253698
H17   H     H_    0.134856 0.625691 0.947460 0.250939
H18   H     H_    0.116807 0.364314 0.916142 0.254188
H19   H     H_    0.045420 0.727028 0.840898 0.154342
H20   H     H_    0.078597 0.254630 0.822107 0.229557
H21   H     H_    0.545494 0.227054 0.840969 0.152685
H22   H     H_    0.578592 0.754388 0.821636 0.229440
H23   H     H_    0.275792 0.725822 0.900413 0.190806
H24   H     H_    0.426164 0.381792 0.178175 0.162425
H25   H     H_    0.288747 0.271160 0.916672 0.187454
H26   H     H_    0.775823 0.225865 0.900404 0.191272
H27   H     H_    0.789526 0.770966 0.917678 0.188680
H28   H     H_    0.752523 0.131995 0.827780 0.140857
H29   H     H_    0.753491 0.869808 0.826266 0.136327
H30   H     H_    0.252485 0.631946 0.827796 0.140060
H31   H     H_    0.253492 0.369732 0.826299 0.136400
H32   H     H_    0.267145 0.771356 0.172796 0.188751
H33   H     H_    0.241044 0.242091 0.174794 0.172718
H34   H     H_    0.767273 0.271423 0.172805 0.186973
H35   H     H_    0.427895 0.619158 0.179539 0.126190
H36   H     H_    0.739901 0.742423 0.174218 0.173029
H37   H     H_    0.356839 0.742273 0.036953 0.224306
H38   H     H_    0.372436 0.267134 0.058317 0.236950
H39   H     H_    0.856903 0.242310 0.036932 0.223897
H40   H     H_    0.872437 0.767101 0.059519 0.236454
H41   H     H_    0.630305 0.954669 0.432194 0.213266
H42   H     H_    0.628756 0.047695 0.433257 0.211528
H43   H     H_    0.130457 0.455779 0.431427 0.213192
H44   H     H_    0.128533 0.548790 0.434379 0.211481
H45   H     H_    0.731650 0.912239 0.672871 0.135131
H46   H     H_    0.026116 0.085877 0.451655 0.187289
H47   H     H_    0.730721 0.088123 0.673100 0.119748
H48   H     H_    0.231440 0.412254 0.672869 0.135746
H49   H     H_    0.230845 0.588141 0.673169 0.118895
H50   H     H_    0.607896 0.912111 0.509130 0.225601
H51   H     H_    0.604991 0.088370 0.511041 0.226625
H52   H     H_    0.108775 0.412415 0.507977 0.225941
H53   H     H_    0.103959 0.588608 0.512449 0.226950
H54   H     H_    0.386532 0.962751 0.462549 0.256348
H55   H     H_    0.385075 0.033893 0.463410 0.245707
H56   H     H_    0.886653 0.461918 0.462128 0.255574
H57   H     H_    0.935184 0.014829 0.416813 0.187768
H58   H     H_    0.884813 0.533036 0.463859 0.242205
H59   H     H_    0.066460 0.088149 0.329370 0.159321
H60   H     H_    0.071820 0.913468 0.334182 0.149165
H61   H     H_    0.567380 0.588097 0.330276 0.102316
H62   H     H_    0.571215 0.413330 0.333949 0.150412
H63   H     H_    0.280912 0.912767 0.232690 0.167853
H64   H     H_    0.280565 0.086792 0.231183 0.156400
H65   H     H_    0.781008 0.412650 0.233627 0.167364
H66   H     H_    0.780481 0.586690 0.230399 0.157820
H67   H     H_    0.046133 0.088083 0.762401 0.189036
H68   H     H_    0.532410 0.587563 0.454397 0.159369
H69   H     H_    0.047694 0.913346 0.760641 0.187565
H70   H     H_    0.545490 0.588120 0.761575 0.186089
H71   H     H_    0.547145 0.413349 0.759749 0.187466
H72   H     H_    0.181589 0.165937 0.173620 0.134361
H73   H     H_    0.180584 0.834987 0.176670 0.139944
H74   H     H_    0.681329 0.666038 0.173455 0.130598
H75   H     H_    0.680606 0.335001 0.176685 0.139362
H76   H     H_    0.467819 0.223722 0.942449 -0.007951
H77   H     H_    0.470946 0.767895 0.910284 -0.014957
H78   H     H_    0.967705 0.723698 0.942324 -0.009334
H79   H     H_    0.435339 0.517756 0.417146 0.186370
H80   H     H_    0.971671 0.267822 0.911871 -0.015270
H81   H     H_    0.831056 0.115427 0.247241 0.052294
H82   H     H_    0.728927 0.875851 0.215507 0.067517
H83   H     H_    0.330928 0.615329 0.247090 0.053654
H84   H     H_    0.232383 0.375439 0.218459 0.064001
H85   H     H_    0.718934 0.210798 0.271135 0.067807
H86   H     H_    0.607292 0.754503 0.173404 0.084090
H87   H     H_    0.218703 0.710689 0.270980 0.068934
H88   H     H_    0.108772 0.254329 0.174770 0.088617
H89   H     H_    0.242539 0.870535 0.985497 0.078353
H90   H     H_    0.005101 0.079074 0.582451 0.208502
H91   H     H_    0.288394 0.137152 0.087350 0.049464
H92   H     H_    0.742362 0.370598 0.985785 0.077566
H93   H     H_    0.788326 0.637042 0.087162 0.049866
H94   H     H_    0.934025 0.783643 0.796247 -0.009450
H95   H     H_    0.901620 0.179574 0.791124 0.025318
H96   H     H_    0.434075 0.283621 0.796278 -0.014762
H97   H     H_    0.401276 0.679273 0.790997 0.025567
H98   H     H_    0.243263 0.084036 0.608150 0.118266
H99   H     H_    0.957734 0.892100 0.406469 0.126306
H100  H     H_    0.717333 0.580112 0.516846 0.044883
N1    N     N_R   0.950530 0.896220 0.057200 -0.061253
N2    N     N_R   0.818150 0.028600 0.792440 -0.051620
N3    N     N_R   0.318150 0.471400 0.792440 -0.040327
N4    N     N_R   0.318150 0.528600 0.792440 -0.051359
N5    N     N_R   0.025710 0.028600 0.207560 -0.045403
N6    N     N_R   0.025710 0.971400 0.207560 -0.052954
N7    N     N_R   0.525710 0.528600 0.207560 -0.039213
N8    N     N_R   0.525710 0.471400 0.207560 -0.052163
N9    N     N_R   0.181850 0.971400 0.207560 -0.057261
N10   N     N_R   0.181850 0.028600 0.207560 -0.052340
N11   N     N_R   0.681850 0.471400 0.207560 -0.057310
N12   N     N_R   0.950530 0.103780 0.057200 -0.048978
N13   N     N_R   0.681850 0.528600 0.207560 -0.054413
N14   N     N_R   0.974290 0.028600 0.792440 -0.066120
N15   N     N_R   0.974290 0.971400 0.792440 -0.036196
N16   N     N_R   0.474290 0.528600 0.792440 -0.065052
N17   N     N_R   0.474290 0.471400 0.792440 -0.036638
N18   N     N_R   0.049470 0.896220 0.942800 -0.055537
N19   N     N_R   0.049470 0.103780 0.942800 -0.069236
N20   N     N_R   0.549470 0.396220 0.942800 -0.055787
N21   N     N_R   0.549470 0.603780 0.942800 -0.068300
N22   N     N_R   0.106670 0.103780 0.057200 -0.042393
N23   N     N_R   0.450530 0.396220 0.057200 -0.060888
N24   N     N_R   0.106670 0.896220 0.057200 -0.065512
N25   N     N_R   0.606670 0.603780 0.057200 -0.041890
N26   N     N_R   0.606670 0.396220 0.057200 -0.065091
N27   N     N_R   0.450530 0.603780 0.057200 -0.048915
N28   N     N_R   0.893330 0.103780 0.942800 -0.066026
N29   N     N_R   0.893330 0.896220 0.942800 -0.054258
N30   N     N_R   0.393330 0.603780 0.942800 -0.065389
N31   N     N_R   0.393330 0.396220 0.942800 -0.054195
N32   N     N_R   0.818150 0.971400 0.792440 -0.040418
Ni1   Ni    Ni4+2 0.065600 0.934400 0.131190 0.262099
Ni2   Ni    Ni4+2 0.065600 0.065600 0.131190 0.248038
Ni3   Ni    Ni4+2 0.565600 0.434400 0.131190 0.261860
Ni4   Ni    Ni4+2 0.565600 0.565600 0.131190 0.236143
Ni5   Ni    Ni4+2 0.934400 0.065600 0.868810 0.228383
Ni6   Ni    Ni4+2 0.934400 0.934400 0.868810 0.282884
Ni7   Ni    Ni4+2 0.434400 0.565600 0.868810 0.229133
Ni8   Ni    Ni4+2 0.434400 0.434400 0.868810 0.283168
O1    O     O_2   0.508150 0.146234 0.962943 -0.449800
O2    O     O_2   0.566773 0.822956 0.086117 -0.520273
O3    O     O_2   0.093722 0.739027 0.151661 -0.562497
O4    O     O_2   0.068394 0.322899 0.087852 -0.519217
O5    O     O_2   0.349684 0.828639 0.107501 -0.489765
O6    O     O_2   0.389755 0.191671 0.165362 -0.460295
O7    O     O_2   0.849968 0.328733 0.107243 -0.489597
O8    O     O_2   0.888695 0.692013 0.166999 -0.461015
O9    O     O_2   0.909318 0.856957 0.729954 -0.592404
O10   O     O_2   0.970397 0.178638 0.720642 -0.537923
O11   O     O_2   0.409212 0.356954 0.730042 -0.592354
O12   O     O_2   0.447869 0.823066 0.799444 -0.452495
O13   O     O_2   0.470024 0.678637 0.720478 -0.538271
O14   O     O_2   0.160834 0.141242 0.503420 -0.529208
O15   O     O_2   0.875244 0.943413 0.283748 -0.579128
O16   O     O_2   0.701451 0.635683 0.601380 -0.497549
O17   O     O_2   0.372230 0.448161 0.279309 -0.572819
O18   O     O_2   0.008013 0.646207 0.962798 -0.446566
O19   O     O_2   0.948026 0.323054 0.800867 -0.453071
O20   O     O_2   0.693051 0.115438 0.139965 -0.493425
O21   O     O_2   0.707567 0.913681 0.084826 -0.518068
O22   O     O_2   0.192911 0.615393 0.139900 -0.493511
O23   O     O_2   0.207938 0.413242 0.086222 -0.514104
O24   O     O_2   0.593881 0.239035 0.151783 -0.560703

loop_
_geom_bond_atom_site_label_1
_geom_bond_atom_site_label_2
_ccdc_geom_bond_type
Br1   C59   S    
C73   C79   S    
C58   H5    S    
C17   O1    D    
C56   H7    S    
C89   C105  S    
C96   C105  S    
Br24  C70   S    
Br13  C111  S    
C80   H22   S    
N7    N8    A    
C26   C106  S    
C111  C124  S    
C132  H61   S    
C77   C95   S    
C51   C62   S    
C24   H75   S    
C52   H57   S    
C81   C99   S    
C19   C77   S    
Br23  C61   S    
C45   C65   S    
C84   C101  S    
C119  C127  S    
C120  H53   S    
C34   H94   S    
C20   H80   S    
N19   Ni5   S    
C46   C95   S    
C39   O14   D    
N20   N26   A    
Br3   C101  S    
C48   C97   S    
C29   C105  S    
C9    C35   A    
N11   Ni3   S    
C112  H45   S    
C13   H74   S    
C5    C116  A    
C31   H91   S    
C109  C118  S    
C39   C51   S    
Br4   C102  S    
C38   C115  S    
C54   C63   S    
C23   H83   S    
C21   O20   D    
C43   C124  S    
C69   C136  A    
N27   N30   A    
C14   C44   A    
C125  C128  S    
N8    Ni3   S    
N30   Ni7   S    
C22   O21   D    
C83   H25   S    
Br18  C128  S    
C105  H33   S    
C75   H17   S    
Br16  C110  S    
C15   H70   S    
C46   C82   A    
C23   O22   D    
C19   O18   D    
C23   C88   S    
C69   H31   S    
C42   H3    S    
C75   H12   S    
Br22  C61   S    
N23   N31   A    
C42   C54   S    
C3    C92   S    
C28   C103  S    
N18   Ni6   S    
C117  H50   S    
C97   C101  S    
C78   C96   S    
C11   C43   A    
C18   H77   S    
C80   C98   S    
C22   H82   S    
C66   C135  A    
C74   C91   S    
C131  H60   S    
C81   C92   S    
Br15  C109  S    
C15   C45   A    
C51   H46   S    
C130  H59   S    
C122  C129  S    
C74   H16   S    
C117  H41   S    
C81   H23   S    
N32   Ni6   S    
C7    C133  A    
C130  N5    A    
C73   C90   S    
Br11  C110  S    
N7    Ni4   S    
C121  C123  S    
C2    C46   A    
C76   C94   S    
C3    C68   A    
C28   H87   S    
N21   N25   A    
C32   H92   S    
C94   C136  S    
C121  H55   S    
C57   C65   S    
C26   H85   S    
C9    H64   S    
C18   C80   S    
C120  C127  S    
C61   C63   S    
C38   H97   S    
C113  H47   S    
Br28  C99   S    
C6    C131  A    
N15   Ni6   S    
N19   N22   A    
N4    Ni7   S    
N5    Ni2   S    
Br8   C89   S    
C10   H65   S    
C133  N8    A    
C111  C120  S    
C85   C102  S    
C55   H90   S    
C47   C96   S    
N16   N17   A    
C79   C97   S    
Br17  C111  S    
C13   C50   A    
C74   H11   S    
C60   C136  A    
C49   H13   S    
C88   C92   S    
Br7   C88   S    
C89   C94   S    
C58   C65   S    
C9    N10   A    
C95   C99   S    
N1    N29   A    
C86   C106  S    
N28   Ni5   S    
C75   C77   S    
N27   Ni4   S    
C42   O17   D    
C8    H63   S    
C87   C91   S    
C37   C104  S    
C133  H62   S    
C12   C44   A    
N16   Ni7   S    
C1    C134  A    
C24   C48   A    
C28   O3    D    
C32   C101  S    
C19   H78   S    
N12   Ni2   S    
N3    N4    A    
C5    C127  S    
C82   N18   A    
C113  N2    A    
C48   C104  A    
C87   C107  S    
C34   C82   S    
C54   H79   S    
C126  N22   A    
N9    Ni1   S    
C84   H26   S    
C38   O13   D    
N14   Ni5   S    
C83   C100  S    
N14   N15   A    
C93   N19   A    
C53   C57   S    
C17   C79   S    
C97   C106  S    
C76   H18   S    
C40   C52   S    
C127  C129  S    
C1    N1    A    
C75   C92   S    
C33   H93   S    
C52   C56   S    
C76   C78   S    
N23   Ni3   S    
N21   Ni7   S    
C4    C112  A    
C44   C64   S    
C14   H69   S    
C10   N11   A    
C98   C102  S    
C36   C93   S    
C25   O23   D    
N2    N32   A    
C22   C87   S    
C1    H1    S    
C7    C132  A    
C85   C91   S    
C20   C78   S    
N24   Ni1   S    
C3    C71   A    
C118  H51   S    
Br12  C59   S    
C36   H95   S    
C96   C100  S    
C59   C70   S    
C68   H30   S    
C21   C86   S    
C12   N14   A    
N5    N6    A    
C2    N24   A    
Br19  C128  S    
C122  H58   S    
N3    Ni8   S    
C116  N4    A    
C91   C134  S    
C90   C135  S    
Br27  C72   S    
C61   C72   S    
C26   O24   D    
C11   H66   S    
C60   N23   A    
C107  H36   S    
C33   O8    D    
C110  C124  S    
C54   C58   S    
C29   O4    D    
N13   Ni4   S    
C37   O11   D    
C27   H86   S    
C77   H19   S    
C12   H67   S    
N17   Ni8   S    
C35   C123  S    
C4    C113  A    
N6    Ni1   S    
C104  N20   A    
C98   C107  S    
C115  N21   A    
Br20  C129  S    
C16   H71   S    
C50   C98   S    
C8    N9    A    
C108  C123  S    
C132  N7    A    
C95   C103  S    
C69   N31   A    
C36   O10   D    
C24   N26   A    
C31   O6    D    
N1    Ni1   S    
C58   H9    S    
C81   H37   S    
C25   H84   S    
C51   C55   S    
C118  C125  S    
Br14  C108  S    
C34   O9    D    
C121  H54   S    
C16   C45   A    
C68   N30   A    
Br6   C87   S    
C41   C53   S    
C120  H44   S    
C4    C125  S    
C53   C63   S    
C59   C62   S    
C71   H35   S    
C122  H56   S    
C84   H39   S    
Br26  C72   S    
Br2   C100  S    
C49   C135  A    
N18   N24   A    
Br5   C86   S    
C103  H32   S    
C114  H48   S    
C118  H42   S    
C32   O7    D    
C64   C70   S    
C55   C64   S    
C67   N29   A    
C41   O16   D    
N11   N13   A    
C121  C128  S    
N10   Ni2   S    
C116  H49   S    
C25   C89   S    
C55   H6    S    
C30   H89   S    
C85   H40   S    
C18   O12   D    
C76   H14   S    
C15   N16   A    
C53   H68   S    
C74   C80   S    
Br10  C109  S    
C8    C35   A    
C108  C117  S    
C117  C125  S    
C131  N6    A    
C30   C99   S    
C67   H29   S    
C49   N12   A    
C73   H10   S    
C30   O5    D    
C71   N27   A    
C83   H38   S    
C41   H100  S    
C66   H28   S    
C20   O19   D    
C85   H27   S    
C57   H8    S    
C66   N28   A    
C37   H96   S    
C114  N3    A    
C119  H52   S    
C67   C134  A    
C31   C100  S    
C6    C62   S    
C73   H15   S    
C11   N13   A    
C65   C72   S    
C110  C119  S    
C78   H20   S    
N2    Ni5   S    
N9    N10   A    
C29   H88   S    
C119  H43   S    
C86   C90   S    
C33   C102  S    
C6    C130  A    
C122  C124  S    
C2    H73   S    
C39   H98   S    
C106  H34   S    
C10   C43   A    
N20   Ni8   S    
C40   O15   D    
C47   C93   A    
N25   Ni4   S    
Br21  C129  S    
N22   Ni2   S    
N26   Ni3   S    
C112  N32   A    
C13   N25   A    
C5    C114  A    
C56   C64   S    
C79   H21   S    
C17   H76   S    
C50   C115  A    
C84   C90   S    
C14   N15   A    
C47   C126  A    
C88   C103  S    
C27   C107  S    
C16   N17   A    
C52   C62   S    
C27   O2    D    
C21   H81   S    
C56   H2    S    
N12   N28   A    
Br9   C108  S    
Br25  C70   S    
C60   H24   S    
C57   H4    S    
C126  H72   S    
C109  C123  S    
N29   Ni6   S    
C40   H99   S    
N31   Ni8   S    
C83   C94   S    
C7    C63   S    
