data_mof_unit_19344.cif
_audit_creation_date              2012-10-26T20:16:39-0400
_audit_creation_method            fapswitch 2.2
_symmetry_space_group_name_H-M    P1
_symmetry_Int_Tables_number       1
_space_group_crystal_system       triclinic
_cell_length_a                    10.894094
_cell_length_b                    10.889092
_cell_length_c                    9.828623
_cell_angle_alpha                 98.939647
_cell_angle_beta                  98.483143
_cell_angle_gamma                 92.533303
_cell_volume                      1136.48215565

loop_
_atom_site_label
_atom_site_type_symbol
_atom_type_description
_atom_site_fract_x
_atom_site_fract_y
_atom_site_fract_z
_atom_type_partial_charge
C1    C     C_R   0.502077 0.262073 0.499160 0.547851
C2    C     C_R   0.704071 0.932473 0.826618 0.298773
C3    C     C_R   0.452936 0.076274 0.228757 0.074979
C4    C     C_R   0.577359 0.923316 0.767374 0.072101
C5    C     C_R   0.550540 0.129249 0.173142 -0.087950
C6    C     C_R   0.487267 0.879733 0.840278 -0.083597
C7    C     C_R   0.528532 0.164499 0.041734 -0.113610
C8    C     C_R   0.522558 0.846427 0.971298 -0.123055
C9    C     C_R   0.410017 0.144418 0.962988 -0.175492
C10   C     C_R   0.647590 0.859065 0.032224 -0.180963
C11   C     C_R   0.476838 0.914775 0.376099 -0.125870
C12   C     C_R   0.502082 0.738019 0.500692 0.539601
C13   C     C_R   0.538281 0.085476 0.622721 -0.132701
C14   C     C_R   0.505445 0.872371 0.503273 -0.011144
C15   C     C_R   0.506512 0.127883 0.495881 -0.010051
C16   C     C_R   0.262029 0.501361 0.499764 0.551513
C17   C     C_R   0.737688 0.498254 0.500008 0.538651
C18   C     C_R   0.538705 0.959099 0.628536 0.002089
C19   C     C_R   0.478626 0.041072 0.369814 0.007789
C20   C     C_2   0.509355 0.511383 0.078854 -0.041524
C21   C     C_2   0.488701 0.490493 0.921073 -0.033147
C22   C     C_R   0.172721 0.525919 0.040412 -0.104330
C23   C     C_R   0.871706 0.497741 0.501627 -0.012133
C24   C     C_R   0.808946 0.321165 0.869197 -0.090938
C25   C     C_R   0.133771 0.557954 0.169976 -0.054008
C26   C     C_R   0.864424 0.346742 0.756585 -0.054823
C27   C     C_R   0.078967 0.465647 0.231378 0.057903
C28   C     C_R   0.912347 0.468149 0.754035 0.058872
C29   C     C_R   0.060098 0.342564 0.160346 -0.068078
C30   C     C_R   0.906040 0.563173 0.866368 -0.064390
C31   C     C_R   0.096793 0.311654 0.030052 -0.095549
C32   C     C_R   0.850610 0.536972 0.979188 -0.107214
C33   C     C_R   0.154514 0.402588 0.970917 -0.118011
C34   C     C_R   0.127670 0.503570 0.497569 -0.002722
C35   C     C_R   0.800989 0.416330 0.979770 -0.101381
C36   C     C_R   0.916811 0.498163 0.376401 -0.165157
C37   C     C_R   0.082274 0.507879 0.623959 -0.163607
C38   C     C_3   0.152286 0.920383 0.109731 -0.147825
C39   C     C_3   0.873573 0.885042 0.722128 -0.132484
C40   C     C_R   0.955263 0.496623 0.626044 -0.038761
C41   C     C_R   0.042941 0.494616 0.371283 -0.032875
C42   C     C_R   0.313417 0.087213 0.014299 -0.114978
C43   C     C_R   0.738047 0.902448 0.960851 -0.110717
C44   C     C_R   0.333406 0.051501 0.147985 0.311647
Cu1   Cu    Cu3+1 0.521120 0.521140 0.639640 0.935507
Cu2   Cu    Cu3+1 0.478880 0.478860 0.360360 0.943441
H1    H     H_    0.185580 0.376607 0.871647 0.093429
H2    H     H_    0.578845 0.583229 0.134590 0.140533
H3    H     H_    0.621243 0.617074 0.904796 0.219631
H4    H     H_    0.383345 0.378280 0.095505 0.230034
H5    H     H_    0.217209 0.596379 0.994099 0.094552
H6    H     H_    0.771786 0.227702 0.870338 0.132386
H7    H     H_    0.149044 0.653124 0.224004 0.100081
H8    H     H_    0.867373 0.272855 0.669760 0.114752
H9    H     H_    0.016771 0.270743 0.205921 0.112448
H10   H     H_    0.941569 0.657302 0.865205 0.074162
H11   H     H_    0.079158 0.217416 0.974348 0.109473
H12   H     H_    0.756240 0.396191 0.065639 0.102192
H13   H     H_    0.844501 0.610562 0.065166 0.080960
H14   H     H_    0.853146 0.496235 0.280646 0.124484
H15   H     H_    0.145716 0.512372 0.720321 0.124705
H16   H     H_    0.392929 0.172278 0.861277 0.110314
H17   H     H_    0.674355 0.835043 0.134788 0.107427
H18   H     H_    0.223697 0.071598 0.948849 0.090259
H19   H     H_    0.834340 0.913202 0.010210 0.097291
H20   H     H_    0.198762 0.856269 0.036740 0.093653
H21   H     H_    0.084067 0.974233 0.052259 0.112921
H22   H     H_    0.098905 0.861880 0.166543 0.132297
H23   H     H_    0.643227 0.145180 0.233041 0.109753
H24   H     H_    0.822387 0.794226 0.673378 0.133336
H25   H     H_    0.940399 0.873765 0.815509 0.091337
H26   H     H_    0.928604 0.914566 0.645001 0.140842
H27   H     H_    0.389763 0.871216 0.795085 0.109139
H28   H     H_    0.603372 0.207274 0.000778 0.108243
H29   H     H_    0.452663 0.811760 0.026025 0.109338
H30   H     H_    0.453640 0.849109 0.279751 0.134195
H31   H     H_    0.563319 0.151128 0.718809 0.129011
H32   H     H_    0.417414 0.420598 0.865235 0.141421
N1    N     N_2   0.447120 0.447110 0.150550 -0.348038
N2    N     N_2   0.552880 0.552890 0.849450 -0.345738
O1    O     O_R   0.517830 0.337490 0.617920 -0.507527
O2    O     O_3   0.792153 0.978338 0.755763 -0.594694
O3    O     O_R   0.482170 0.662510 0.382080 -0.511460
O4    O     O_R   0.482150 0.301790 0.382070 -0.485739
O5    O     O_R   0.517850 0.698210 0.617930 -0.494520
O6    O     O_R   0.337480 0.517860 0.617920 -0.512308
O7    O     O_R   0.662520 0.482140 0.382080 -0.514655
O8    O     O_R   0.301810 0.482160 0.382070 -0.477251
O9    O     O_R   0.698190 0.517840 0.617930 -0.485357
O10   O     O_3   0.238659 0.001384 0.208168 -0.568940

loop_
_geom_bond_atom_site_label_1
_geom_bond_atom_site_label_2
_ccdc_geom_bond_type
C24   H6    S    
C27   C29   A    
C34   C37   A    
C14   C18   A    
Cu1   O5    S    
C10   H17   S    
H4    N1    S    
Cu1   Cu2   S    
C1    O4    A    
C15   C19   A    
C11   C19   A    
C9    C42   A    
C17   C23   S    
C12   O5    A    
C35   H12   S    
C24   C26   A    
C37   C40   A    
C11   H30   S    
Cu2   N1    S    
C11   C14   A    
C28   C40   S    
C1    O1    A    
C23   C40   A    
C5    H23   S    
C16   C34   S    
C38   H20   S    
C38   H22   S    
C22   C25   A    
C21   H32   S    
C39   H26   S    
C31   C33   A    
C3    C19   S    
C1    C15   S    
Cu1   O9    S    
C4    C18   S    
C16   O6    A    
C36   C41   A    
C34   C41   A    
C42   C44   A    
C26   H8    S    
C7    H28   S    
Cu2   O8    S    
C13   H31   S    
C3    C44   A    
C24   C35   A    
C9    H16   S    
C32   C35   A    
C17   O9    A    
C4    C6    A    
C5    C7    A    
C6    C8    A    
C29   H9    S    
C36   H14   S    
C30   H10   S    
C8    H29   S    
C12   O3    A    
C2    C4    A    
C27   C41   S    
C2    C43   A    
C43   H19   S    
C38   H21   S    
C20   H2    S    
Cu2   O4    S    
C13   C18   A    
C12   C14   S    
C13   C15   A    
C33   H1    S    
C2    O2    S    
C42   H18   S    
C44   O10   S    
C6    H27   S    
Cu2   O7    S    
C7    C9    A    
C22   C33   A    
C20   N1    D    
C10   C43   A    
C17   O7    A    
Cu1   O1    S    
C39   O2    S    
C25   H7    S    
C3    C5    A    
C37   H15   S    
C25   C27   A    
C38   O10   S    
C26   C28   A    
H3    N2    S    
C31   H11   S    
C28   C30   A    
Cu1   O6    S    
C29   C31   A    
C30   C32   A    
C21   N2    D    
C39   H24   S    
Cu1   N2    S    
Cu2   O3    S    
C20   C21   S    
C8    C10   A    
C23   C36   A    
C16   O8    A    
C39   H25   S    
C32   H13   S    
C22   H5    S    
