data_mof_unit_64205.cif
_audit_creation_date              2012-10-26T17:55:19-0400
_audit_creation_method            fapswitch 2.2
_symmetry_space_group_name_H-M    P1
_symmetry_Int_Tables_number       1
_space_group_crystal_system       triclinic
_cell_length_a                    21.736826
_cell_length_b                    21.743379
_cell_length_c                    29.388034
_cell_angle_alpha                 89.987244
_cell_angle_beta                  90.007393
_cell_angle_gamma                 90.006032
_cell_volume                      13889.7260998

loop_
_atom_site_label
_atom_site_type_symbol
_atom_type_description
_atom_site_fract_x
_atom_site_fract_y
_atom_site_fract_z
_atom_type_partial_charge
C1    C     C_R   0.381254 0.999972 0.000086 0.549651
C2    C     C_R   0.120056 0.998385 0.999995 0.536111
C3    C     C_3   0.148032 0.784420 0.936573 -0.307742
C4    C     C_3   0.782706 0.129909 0.083416 -0.310181
C5    C     C_3   0.163727 0.211611 0.028629 -0.316424
C6    C     C_3   0.215609 0.843410 0.049738 -0.313607
C7    C     C_3   0.836355 0.789070 0.028583 -0.315669
C8    C     C_3   0.715500 0.640352 0.427966 -0.308787
C9    C     C_3   0.359494 0.715529 0.428070 -0.308765
C10   C     C_3   0.284473 0.359675 0.427975 -0.308756
C11   C     C_3   0.640440 0.284527 0.428045 -0.309195
C12   C     C_3   0.286449 0.660564 0.540050 -0.315025
C13   C     C_R   0.000076 0.119981 0.000014 0.532242
C14   C     C_3   0.660651 0.713527 0.539890 -0.315088
C15   C     C_3   0.713529 0.339421 0.540021 -0.314794
C16   C     C_3   0.339370 0.286448 0.539915 -0.315065
C17   C     C_R   0.879901 0.000055 0.000011 0.541364
C18   C     C_R   0.498263 0.379989 0.500014 0.537018
C19   C     C_R   0.620009 0.498252 0.500012 0.537127
C20   C     C_R   0.501733 0.620011 0.500005 0.536984
C21   C     C_R   0.379991 0.501743 0.500007 0.537134
C22   C     C_R   0.500004 0.999994 0.084628 0.541405
C23   C     C_R   0.000003 0.500000 0.084632 0.543328
C24   C     C_R   0.500000 0.000006 0.915372 0.541088
C25   C     C_R   0.999991 0.381175 0.999983 0.550507
C26   C     C_R   0.999997 0.500003 0.915368 0.543024
C27   C     C_R   1.000000 0.499994 0.584628 0.542890
C28   C     C_R   0.500003 0.000000 0.584632 0.542947
C29   C     C_R   0.000000 0.500006 0.415372 0.541674
C30   C     C_R   0.499997 1.000000 0.415368 0.541747
C31   C     C_1   0.500006 0.999985 0.135903 -0.038177
C32   C     C_1   0.000009 0.500004 0.135907 -0.036512
C33   C     C_1   0.500003 0.000015 0.864098 -0.038832
C34   C     C_1   0.999992 0.500002 0.864093 -0.036998
C35   C     C_1   0.999998 0.499985 0.635903 -0.036047
C36   C     C_R   0.618741 0.999999 0.999979 0.549484
C37   C     C_1   0.500009 0.000004 0.635907 -0.036226
C38   C     C_1   0.000002 0.500016 0.364097 -0.039069
C39   C     C_1   0.499992 0.999997 0.364093 -0.039201
C40   C     C_1   0.500006 0.999984 0.178375 -0.037094
C41   C     C_1   0.000010 0.500008 0.178380 -0.035785
C42   C     C_1   0.500006 0.000017 0.821625 -0.037290
C43   C     C_1   0.999991 0.499999 0.821621 -0.035769
C44   C     C_1   0.999997 0.499985 0.678375 -0.034880
C45   C     C_1   0.500011 0.000007 0.678380 -0.035176
C46   C     C_1   0.000004 0.500018 0.321625 -0.037803
C47   C     C_R   0.999980 0.618832 0.000059 0.550218
C48   C     C_1   0.499994 0.999993 0.321621 -0.038028
C49   C     C_1   0.500003 0.999986 0.228761 -0.000826
C50   C     C_1   0.000008 0.500012 0.228766 -0.000050
C51   C     C_1   0.500008 0.000015 0.771239 -0.000020
C52   C     C_1   0.999993 0.499994 0.771234 0.000924
C53   C     C_1   0.999995 0.499989 0.728761 0.001241
C54   C     C_1   0.500010 0.000012 0.728766 0.000692
C55   C     C_1   0.000007 0.500015 0.271239 -0.000714
C56   C     C_1   0.499999 0.999989 0.271234 -0.001149
C57   C     C_R   0.282672 0.044055 0.975481 -0.117817
C58   C     C_R   0.881213 0.499977 0.500056 0.549985
C59   C     C_R   0.950247 0.282682 0.981438 -0.105404
C60   C     C_R   0.716935 0.956807 0.973896 -0.116145
C61   C     C_R   0.047904 0.717680 0.979598 -0.116351
C62   C     C_R   0.716896 0.043065 0.026223 -0.116335
C63   C     C_R   0.049591 0.282749 0.018795 -0.105989
C64   C     C_R   0.283460 0.954231 0.024314 -0.105312
C65   C     C_R   0.950782 0.716911 0.020139 -0.103817
C66   C     C_R   0.782445 0.546065 0.477543 -0.117509
C67   C     C_R   0.453891 0.782442 0.477562 -0.117432
C68   C     C_R   0.217546 0.453943 0.477543 -0.117455
C69   C     C_R   0.500018 0.881206 0.500054 0.549995
C70   C     C_R   0.546103 0.217574 0.477576 -0.117446
C71   C     C_R   0.216693 0.547499 0.522379 -0.104533
C72   C     C_R   0.547522 0.783304 0.522360 -0.104511
C73   C     C_R   0.783317 0.452500 0.522400 -0.104463
C74   C     C_R   0.452493 0.216679 0.522380 -0.104421
C75   C     C_R   0.218323 0.043981 0.974716 0.110761
C76   C     C_R   0.948672 0.218527 0.981876 0.111835
C77   C     C_R   0.781300 0.956209 0.973233 0.109050
C78   C     C_R   0.048274 0.782063 0.979223 0.112516
C79   C     C_R   0.781253 0.043595 0.027033 0.108312
C80   C     C_R   0.118787 0.500023 0.500054 0.549982
C81   C     C_R   0.051128 0.218585 0.018568 0.111954
C82   C     C_R   0.219251 0.951948 0.024276 0.110441
C83   C     C_R   0.948692 0.781017 0.019869 0.108655
C84   C     C_R   0.718069 0.546196 0.477042 0.111612
C85   C     C_R   0.453762 0.718075 0.477052 0.111678
C86   C     C_R   0.281923 0.453813 0.477038 0.111630
C87   C     C_R   0.546232 0.281940 0.477071 0.111716
C88   C     C_R   0.280856 0.549691 0.522310 0.109246
C89   C     C_R   0.549711 0.719155 0.522290 0.109285
C90   C     C_R   0.719155 0.450310 0.522335 0.109225
C91   C     C_R   0.499982 0.118794 0.500057 0.550002
C92   C     C_R   0.450305 0.280829 0.522317 0.109312
C93   C     C_R   0.186810 0.998195 0.999974 0.034480
C94   C     C_R   0.999992 0.186520 0.000096 0.035500
C95   C     C_R   0.813098 0.999987 0.000068 0.036326
C96   C     C_R   0.998557 0.813428 0.000036 0.037109
C97   C     C_R   0.686685 0.498319 0.500100 0.035937
C98   C     C_R   0.501672 0.686687 0.500081 0.035929
C99   C     C_R   0.313316 0.501686 0.500084 0.035973
C100  C     C_R   0.498334 0.313312 0.500105 0.035927
C101  C     C_R   0.314642 0.999655 0.000122 -0.041329
C102  C     C_R   0.998397 0.880027 0.999997 0.536164
C103  C     C_R   0.999965 0.314436 0.000027 -0.046801
C104  C     C_R   0.685347 0.999987 0.000000 -0.038093
C105  C     C_R   0.999713 0.685588 0.000050 -0.044064
C106  C     C_R   0.814527 0.499687 0.500104 -0.042725
C107  C     C_R   0.500301 0.814520 0.500099 -0.042761
C108  C     C_R   0.185474 0.500315 0.500097 -0.042684
C109  C     C_R   0.499701 0.185479 0.500110 -0.042720
C110  C     C_3   0.216055 0.132723 0.920364 -0.309107
C111  C     C_3   0.835921 0.210662 0.974602 -0.316152
C112  C     C_3   0.782932 0.869231 0.917435 -0.309676
Cu1   Cu    Cu3+1 0.500000 0.938190 0.000000 0.929156
Cu2   Cu    Cu3+1 0.000000 1.000000 0.042460 0.946373
Cu3   Cu    Cu3+1 0.500000 0.500000 0.457540 0.974774
Cu4   Cu    Cu3+1 0.500000 0.500000 0.542460 0.937762
Cu5   Cu    Cu3+1 0.061810 0.500000 0.000000 0.929364
Cu6   Cu    Cu3+1 0.500000 0.061810 0.000000 0.930013
Cu7   Cu    Cu3+1 0.938190 0.500000 0.000000 0.930254
Cu8   Cu    Cu3+1 0.000000 0.438190 0.500000 0.929216
Cu9   Cu    Cu3+1 0.561810 0.000000 0.500000 0.929024
Cu10  Cu    Cu3+1 0.000000 0.561810 0.500000 0.929142
Cu11  Cu    Cu3+1 0.438190 0.000000 0.500000 0.929220
Cu12  Cu    Cu3+1 0.000000 1.000000 0.957540 0.965526
H1    H     H_    0.308647 0.078274 0.956922 0.131331
H2    H     H_    0.418208 0.808312 0.460497 0.132694
H3    H     H_    0.191665 0.418289 0.460465 0.132718
H4    H     H_    0.581778 0.191717 0.460506 0.132584
H5    H     H_    0.190527 0.582159 0.540330 0.138824
H6    H     H_    0.582216 0.809462 0.540300 0.138829
H7    H     H_    0.809489 0.417836 0.540359 0.138973
H8    H     H_    0.417807 0.190509 0.540320 0.138847
H9    H     H_    0.145575 0.106287 0.964857 0.262912
H10   H     H_    0.181746 0.160532 0.901369 0.148976
H11   H     H_    0.245059 0.108133 0.895128 0.160091
H12   H     H_    0.912954 0.308320 0.966139 0.141754
H13   H     H_    0.244615 0.164326 0.941229 0.129151
H14   H     H_    0.897623 0.139494 0.963266 0.267349
H15   H     H_    0.800075 0.176637 0.964928 0.149669
H16   H     H_    0.826554 0.253460 0.955273 0.154846
H17   H     H_    0.832306 0.219597 0.011724 0.146591
H18   H     H_    0.853483 0.893826 0.962328 0.260448
H19   H     H_    0.816986 0.841701 0.897990 0.148568
H20   H     H_    0.753962 0.894590 0.892586 0.160446
H21   H     H_    0.754306 0.837280 0.937972 0.129751
H22   H     H_    0.109879 0.856396 0.974378 0.258973
H23   H     H_    0.690630 0.924104 0.954134 0.130069
H24   H     H_    0.179859 0.818621 0.921275 0.148907
H25   H     H_    0.130651 0.754500 0.908776 0.158647
H26   H     H_    0.174003 0.756820 0.961923 0.130851
H27   H     H_    0.853696 0.105501 0.038851 0.262297
H28   H     H_    0.816693 0.157136 0.103169 0.148125
H29   H     H_    0.753497 0.104340 0.107992 0.159814
H30   H     H_    0.754302 0.162159 0.062967 0.129604
H31   H     H_    0.102102 0.139561 0.037593 0.268007
H32   H     H_    0.199370 0.177267 0.038092 0.149546
H33   H     H_    0.171980 0.253351 0.049442 0.154654
H34   H     H_    0.084801 0.691813 0.964038 0.134082
H35   H     H_    0.168815 0.222609 0.991906 0.146898
H36   H     H_    0.140687 0.902004 0.045535 0.267935
H37   H     H_    0.181767 0.809202 0.062512 0.147086
H38   H     H_    0.255415 0.842897 0.073359 0.154917
H39   H     H_    0.230334 0.829388 0.015065 0.144731
H40   H     H_    0.898544 0.859530 0.040592 0.268018
H41   H     H_    0.800795 0.822493 0.039829 0.149126
H42   H     H_    0.827396 0.745129 0.046559 0.154525
H43   H     H_    0.831836 0.782370 0.991258 0.146480
H44   H     H_    0.645025 0.608898 0.470591 0.259925
H45   H     H_    0.690557 0.075698 0.046013 0.129912
H46   H     H_    0.681125 0.670166 0.410788 0.148815
H47   H     H_    0.744481 0.618740 0.401268 0.159412
H48   H     H_    0.744070 0.669513 0.450690 0.129570
H49   H     H_    0.391077 0.645011 0.470595 0.259895
H50   H     H_    0.329643 0.681175 0.410909 0.148788
H51   H     H_    0.381045 0.744551 0.401359 0.159392
H52   H     H_    0.330365 0.744041 0.450846 0.129596
H53   H     H_    0.354954 0.391100 0.470611 0.259894
H54   H     H_    0.318842 0.329867 0.410800 0.148813
H55   H     H_    0.255488 0.381303 0.401273 0.159461
H56   H     H_    0.086796 0.308482 0.034117 0.141200
H57   H     H_    0.255906 0.330504 0.450697 0.129561
H58   H     H_    0.608940 0.354987 0.470631 0.259899
H59   H     H_    0.670270 0.318897 0.410877 0.148475
H60   H     H_    0.618840 0.255543 0.401338 0.158980
H61   H     H_    0.669598 0.255979 0.450790 0.129559
H62   H     H_    0.359463 0.599405 0.543749 0.268541
H63   H     H_    0.320380 0.695350 0.551794 0.148347
H64   H     H_    0.244793 0.665494 0.561534 0.154978
H65   H     H_    0.275038 0.670160 0.503895 0.146003
H66   H     H_    0.599421 0.640586 0.543776 0.268581
H67   H     H_    0.309806 0.921062 0.043619 0.136109
H68   H     H_    0.695454 0.679616 0.551640 0.148381
H69   H     H_    0.665683 0.755228 0.561301 0.154924
H70   H     H_    0.670152 0.724833 0.503705 0.146018
H71   H     H_    0.640561 0.400618 0.543828 0.268596
H72   H     H_    0.679609 0.304636 0.551790 0.148574
H73   H     H_    0.755240 0.334432 0.561448 0.155306
H74   H     H_    0.724840 0.329875 0.503847 0.145821
H75   H     H_    0.400608 0.359383 0.543812 0.268569
H76   H     H_    0.304574 0.320349 0.551675 0.148368
H77   H     H_    0.334343 0.244725 0.561313 0.154958
H78   H     H_    0.914575 0.690986 0.036576 0.141252
H79   H     H_    0.329855 0.275186 0.503726 0.146011
H80   H     H_    0.808320 0.581721 0.460455 0.132711
N1    N     N_2   0.184407 0.089103 0.949310 -0.500491
N2    N     N_2   0.406361 0.683985 0.454161 -0.500462
N3    N     N_2   0.316021 0.406444 0.454144 -0.500446
N4    N     N_2   0.593622 0.316047 0.454181 -0.500379
N5    N     N_2   0.312181 0.599378 0.544742 -0.513682
N6    N     N_2   0.599440 0.687856 0.544707 -0.513740
N7    N     N_2   0.687845 0.400614 0.544778 -0.513554
N8    N     N_2   0.400585 0.312112 0.544737 -0.513707
N9    N     N_2   0.896331 0.186777 0.963449 -0.514029
N10   N     N_2   0.814976 0.911955 0.946861 -0.500608
N11   N     N_2   0.097437 0.816128 0.958383 -0.500534
N12   N     N_2   0.814840 0.087440 0.053853 -0.500768
N13   N     N_2   0.103026 0.186849 0.037700 -0.514484
N14   N     N_2   0.187751 0.903975 0.048630 -0.511262
N15   N     N_2   0.897050 0.812264 0.039713 -0.515071
N16   N     N_2   0.683962 0.593567 0.454135 -0.500454
O1    O     O_R   0.409820 0.947800 0.000000 -0.506970
O2    O     O_R   0.552200 0.909820 0.500000 -0.507483
O3    O     O_R   0.090180 0.552200 0.500000 -0.507469
O4    O     O_R   0.447800 0.090180 0.500000 -0.507473
O5    O     O_R   0.090180 0.447800 0.500000 -0.506313
O6    O     O_R   0.447800 0.909820 0.500000 -0.506313
O7    O     O_R   0.909820 0.552200 0.500000 -0.506302
O8    O     O_R   0.552200 0.090180 0.500000 -0.506308
O9    O     O_R   0.499990 0.947800 0.061980 -0.489737
O10   O     O_R   0.052200 0.499990 0.061980 -0.489334
O11   O     O_R   0.500010 0.052200 0.061980 -0.490414
O12   O     O_R   0.052200 0.409820 0.000000 -0.507788
O13   O     O_R   0.947800 0.500010 0.061980 -0.489756
O14   O     O_R   0.500010 0.947800 0.938020 -0.490384
O15   O     O_R   0.947800 0.499990 0.938020 -0.488982
O16   O     O_R   0.499990 0.052200 0.938020 -0.489713
O17   O     O_R   0.052200 0.500010 0.938020 -0.490162
O18   O     O_R   0.999990 0.447800 0.561980 -0.489396
O19   O     O_R   0.552200 0.999990 0.561980 -0.489485
O20   O     O_R   0.000010 0.552200 0.561980 -0.489637
O21   O     O_R   0.447800 0.000010 0.561980 -0.489634
O22   O     O_R   0.000010 0.447800 0.438020 -0.490223
O23   O     O_R   0.590180 0.052200 0.000000 -0.505720
O24   O     O_R   0.447800 0.999990 0.438020 -0.490017
O25   O     O_R   0.999990 0.552200 0.438020 -0.490053
O26   O     O_R   0.552200 0.000010 0.438020 -0.490313
O27   O     O_R   0.000010 0.909720 0.964150 -0.493868
O28   O     O_R   0.090280 0.000010 0.964150 -0.489988
O29   O     O_R   0.999990 0.090280 0.964150 -0.510707
O30   O     O_R   0.909720 0.999990 0.964150 -0.500456
O31   O     O_R   0.999990 0.909720 0.035850 -0.520694
O32   O     O_R   0.909720 0.000010 0.035850 -0.499972
O33   O     O_R   0.000010 0.090280 0.035850 -0.509563
O34   O     O_R   0.947800 0.590180 0.000000 -0.507848
O35   O     O_R   0.090280 0.999990 0.035850 -0.517026
O36   O     O_R   0.500010 0.409720 0.464150 -0.491877
O37   O     O_R   0.590280 0.500010 0.464150 -0.491871
O38   O     O_R   0.499990 0.590280 0.464150 -0.491858
O39   O     O_R   0.409720 0.499990 0.464150 -0.491826
O40   O     O_R   0.499990 0.409720 0.535850 -0.518680
O41   O     O_R   0.409720 0.500010 0.535850 -0.518687
O42   O     O_R   0.500010 0.590280 0.535850 -0.518733
O43   O     O_R   0.590280 0.499990 0.535850 -0.518642
O44   O     O_R   0.590180 0.947800 0.000000 -0.505804
O45   O     O_R   0.947800 0.409820 0.000000 -0.507764
O46   O     O_R   0.409820 0.052200 0.000000 -0.505691
O47   O     O_R   0.052200 0.590180 0.000000 -0.507119
O48   O     O_R   0.909820 0.447800 0.500000 -0.507481

loop_
_geom_bond_atom_site_label_1
_geom_bond_atom_site_label_2
_ccdc_geom_bond_type
C26   O15   A    
C4    H30   S    
C73   H7    S    
C25   O12   A    
Cu8   O48   S    
C96   C102  S    
C91   O8    A    
C68   C86   A    
Cu5   O10   S    
Cu11  O21   S    
C2    O35   A    
C74   C109  A    
C69   C107  S    
C111  H15   S    
H14   N9    S    
Cu11  O6    S    
C31   C40   T    
H71   N7    S    
C12   H65   S    
C88   C99   A    
C75   C93   A    
Cu9   O8    S    
C63   C81   A    
C24   O16   A    
C10   H55   S    
C36   O44   A    
C112  H19   S    
H62   N5    S    
C73   C90   A    
C69   O2    A    
C74   H8    S    
C9    N2    S    
Cu5   Cu7   S    
C28   O19   A    
C57   H1    S    
C90   N7    S    
C15   H73   S    
C43   C52   S    
C65   C83   A    
Cu10  O7    S    
H9    N1    S    
C40   C49   S    
Cu7   O45   S    
C17   O30   A    
C11   H60   S    
C112  H21   S    
Cu9   Cu11  S    
C9    H52   S    
C1    O1    A    
H75   N8    S    
C74   C92   A    
C62   H45   S    
C2    O28   A    
C57   C75   A    
C15   N7    S    
C85   C98   A    
C84   N16   S    
C20   O42   A    
Cu6   O46   S    
C89   N6    S    
C7    H43   S    
C76   N9    S    
Cu7   O13   S    
Cu10  O20   S    
C1    O46   A    
C6    H38   S    
C78   C96   A    
C47   C105  S    
C46   C55   S    
C85   N2    S    
Cu12  O30   S    
C29   O22   A    
C72   C107  A    
H31   N13   S    
H49   N2    S    
Cu4   O41   S    
C60   H23   S    
C112  N10   S    
C80   O5    A    
C16   H79   S    
C61   C105  A    
C61   C78   A    
C90   C97   A    
C18   O40   A    
H22   N11   S    
C16   H76   S    
C8    H47   S    
C42   C51   S    
C66   H80   S    
Cu1   Cu6   S    
C86   N3    S    
C4    H29   S    
C7    H41   S    
Cu5   O17   S    
C3    H24   S    
C82   C93   A    
C6    N14   S    
C71   C108  A    
C69   O6    A    
C110  H11   S    
C64   C101  A    
C18   C100  S    
C66   C106  A    
C110  H10   S    
C70   C87   A    
C44   C53   S    
C65   C105  A    
Cu11  O24   S    
Cu8   Cu10  S    
C111  H16   S    
C62   C104  A    
C2    C93   S    
C19   C97   S    
Cu1   O14   S    
C4    H28   S    
C5    N13   S    
C77   N10   S    
C3    H25   S    
C67   C85   A    
C22   C31   S    
C22   O11   A    
C102  O31   A    
C10   H54   S    
C62   C79   A    
C16   N8    S    
C29   C38   S    
C11   H59   S    
H18   N10   S    
C47   O34   A    
C63   C103  A    
Cu3   O37   S    
C67   H2    S    
C60   C77   A    
C8    N16   S    
C15   H74   S    
C14   N6    S    
C59   H12   S    
C25   C103  S    
C30   O24   A    
C27   C35   S    
Cu9   O19   S    
C12   H63   S    
C66   C84   A    
C77   C95   A    
C63   H56   S    
H53   N3    S    
C91   C109  S    
C58   C106  S    
Cu1   O44   S    
Cu12  O28   S    
H58   N4    S    
C10   N3    S    
C79   C95   A    
Cu12  O29   S    
C86   C99   A    
C70   C109  A    
C27   O20   A    
C71   H5    S    
C83   N15   S    
C82   N14   S    
C6    H37   S    
Cu6   O11   S    
Cu9   O2    S    
Cu2   O32   S    
C60   C104  A    
C9    H50   S    
Cu8   O22   S    
H44   N16   S    
C72   H6    S    
C35   C44   T    
C68   H3    S    
C64   C82   A    
C83   C96   A    
Cu5   O47   S    
Cu10  O25   S    
C17   C95   S    
C15   H72   S    
H40   N15   S    
Cu7   O15   S    
Cu9   O26   S    
C59   C76   A    
C7    H42   S    
C45   C54   S    
C5    H33   S    
Cu10  O3    S    
C92   N8    S    
C28   O21   A    
C84   C97   A    
C32   C41   T    
C37   C45   T    
C16   H77   S    
C5    H32   S    
Cu7   O34   S    
C1    C101  S    
C41   C50   S    
Cu2   O35   S    
C64   H67   S    
C57   C101  A    
C52   C53   T    
C92   C100  A    
C87   C100  A    
C70   H4    S    
C48   C56   S    
Cu2   O33   S    
C33   C42   T    
C13   O33   A    
C79   N12   S    
C3    H26   S    
C30   O26   A    
C26   C34   S    
C11   H61   S    
C36   O23   A    
C29   O25   A    
C14   H69   S    
C110  H13   S    
C21   O39   A    
C102  O27   A    
C111  N9    S    
Cu3   O38   S    
Cu4   O40   S    
C78   N11   S    
C19   O37   A    
C25   O45   A    
C8    H48   S    
Cu4   O42   S    
Cu1   O9    S    
C81   N13   S    
C76   C94   A    
C59   C103  A    
C8    H46   S    
C49   C56   T    
C13   O29   A    
Cu11  O4    S    
C80   C108  S    
Cu5   O12   S    
C50   C55   T    
C36   C104  S    
C13   C94   S    
C88   N5    S    
C51   C54   T    
C18   O36   A    
C23   C32   S    
C112  H20   S    
Cu12  O27   S    
H66   N6    S    
Cu2   Cu12  S    
Cu4   O43   S    
Cu3   O39   S    
C61   H34   S    
C80   O3    A    
C47   O47   A    
C81   C94   A    
C75   N1    S    
C26   O17   A    
C67   C107  A    
C73   C106  A    
C22   O9    A    
C89   C98   A    
C28   C37   S    
H36   N14   S    
C21   C99   S    
Cu2   O31   S    
Cu3   O36   S    
Cu8   O18   S    
C30   C39   S    
C9    H51   S    
C110  N1    S    
Cu6   O23   S    
C14   H68   S    
C14   H70   S    
C87   N4    S    
C38   C46   T    
C23   O10   A    
C24   O14   A    
Cu1   O1    S    
C7    N15   S    
C19   O43   A    
C71   C88   A    
C23   O13   A    
Cu6   O16   S    
C12   N5    S    
C20   C98   S    
C6    H39   S    
C27   O18   A    
C5    H35   S    
C11   N4    S    
C111  H17   S    
C58   O48   A    
C4    N12   S    
C10   H57   S    
H27   N12   S    
C21   O41   A    
C72   C89   A    
C68   C108  A    
C17   O32   A    
Cu3   Cu4   S    
C91   O4    A    
C34   C43   T    
C3    N11   S    
Cu8   O5    S    
C58   O7    A    
C65   H78   S    
C24   C33   S    
C20   O38   A    
C39   C48   T    
C12   H64   S    
