data_mof_unit_64727.cif
_audit_creation_date              2012-12-10T17:57:07-0500
_audit_creation_method            fapswitch 2.2
_symmetry_space_group_name_H-M    P1
_symmetry_Int_Tables_number       1
_space_group_crystal_system       triclinic
_cell_length_a                    18.748392
_cell_length_b                    18.646844
_cell_length_c                    18.750188
_cell_angle_alpha                 109.289063
_cell_angle_beta                  109.659803
_cell_angle_gamma                 109.445769
_cell_volume                      5047.21260596

loop_
_atom_site_label
_atom_site_type_symbol
_atom_type_description
_atom_site_fract_x
_atom_site_fract_y
_atom_site_fract_z
_atom_type_partial_charge
C1    C     C_R   0.380388 0.379738 0.500282 0.932224
C2    C     C_3   0.809813 0.499296 0.806455 -0.098453
C3    C     C_3   0.833643 0.497024 0.731864 0.477866
C4    C     C_3   0.807890 0.585709 0.850112 0.356476
C5    C     C_R   0.236215 0.312496 0.482974 -0.276214
C6    C     C_R   0.171284 0.247681 0.480953 -0.174227
C7    C     C_R   0.186579 0.185553 0.498891 -0.082628
C8    C     C_R   0.265893 0.186845 0.517266 -0.291146
C9    C     C_R   0.330101 0.249555 0.515462 0.530552
C10   C     C_R   0.314918 0.313176 0.500208 -0.116777
C11   C     C_R   0.310539 0.577047 0.326157 -0.187717
C12   C     C_R   0.623343 0.503020 0.620804 0.971020
C13   C     C_R   0.247170 0.576721 0.261214 -0.228724
C14   C     C_R   0.184202 0.498283 0.183074 -0.014796
C15   C     C_R   0.184750 0.419520 0.168031 0.107636
C16   C     C_R   0.249907 0.420841 0.233148 -0.218917
C17   C     C_R   0.312077 0.499272 0.311902 -0.038806
C18   C     C_R   0.760241 0.757514 0.582414 0.008385
C19   C     C_R   0.826177 0.820099 0.581868 0.393572
C20   C     C_R   0.814444 0.813542 0.501165 -0.290266
C21   C     C_R   0.740222 0.743768 0.421616 0.483716
C22   C     C_R   0.678711 0.678555 0.422950 -0.351222
C23   C     C_R   0.620665 0.620272 0.500818 0.955118
C24   C     C_R   0.687781 0.686781 0.502472 -0.167408
C25   C     C_R   0.996631 0.379503 0.876656 0.927390
C26   C     C_R   0.876656 0.498657 0.875095 0.895605
C27   C     C_R   0.997446 0.620637 0.117732 0.919853
C28   C     C_R   0.118027 0.499561 0.117780 0.866602
C29   C     C_R   0.001334 0.880924 0.380869 0.947047
C30   C     C_R   0.120226 0.119958 0.499649 0.872536
C31   C     C_R   0.998448 0.119170 0.619506 0.921579
C32   C     C_R   0.880014 0.879574 0.499966 0.982868
C33   C     C_R   0.074130 0.316390 0.822143 -0.274048
C34   C     C_R   0.378980 0.499883 0.378938 0.861015
C35   C     C_R   0.074173 0.251265 0.760021 -0.252066
C36   C     C_R   0.995156 0.182130 0.685769 -0.200223
C37   C     C_R   0.914402 0.175250 0.674682 0.449742
C38   C     C_R   0.914699 0.242201 0.736991 0.431054
C39   C     C_R   0.995076 0.312198 0.810200 -0.192679
C40   C     C_R   0.074889 0.771165 0.241710 0.064461
C41   C     C_R   0.075780 0.835578 0.306448 0.007209
C42   C     C_R   0.001431 0.815393 0.315383 -0.144644
C43   C     C_R   0.926255 0.732835 0.261186 -0.046583
C44   C     C_R   0.923423 0.669044 0.194053 0.456493
C45   C     C_3   0.648633 0.419989 0.692721 -0.561032
C46   C     C_R   0.998448 0.687899 0.185030 -0.237848
C47   C     C_3   0.716747 0.417828 0.764625 -0.196483
C48   C     C_3   0.762860 0.502250 0.662776 0.297751
C49   C     C_3   0.737794 0.588641 0.780150 -0.094410
C50   C     C_3   0.692004 0.504169 0.688730 -0.097922
H1    H     H_    0.620454 0.360896 0.628906 0.201888
H2    H     H_    0.224965 0.361490 0.470211 0.162439
H3    H     H_    0.110113 0.247134 0.467365 0.163395
H4    H     H_    0.277686 0.139364 0.532742 0.160282
H5    H     H_    0.358978 0.637998 0.386834 0.152285
H6    H     H_    0.246272 0.637185 0.272229 0.146673
H7    H     H_    0.592625 0.415689 0.703075 0.231109
H8    H     H_    0.251732 0.360922 0.222970 0.144693
H9    H     H_    0.622984 0.622146 0.361976 0.179035
H10   H     H_    0.135644 0.370092 0.879551 0.173699
H11   H     H_    0.136027 0.255925 0.768753 0.180922
H12   H     H_    0.718901 0.356925 0.734220 0.188790
H13   H     H_    0.729108 0.441155 0.598403 0.066197
H14   H     H_    0.770548 0.646529 0.774098 0.223667
H15   H     H_    0.789155 0.583062 0.899855 0.033128
O1    O     O_R   0.408680 0.356690 0.448540 -0.610295
O2    O     O_R   0.049540 0.460010 0.906120 -0.642289
O3    O     O_R   0.853500 0.448290 0.905220 -0.618652
O4    O     O_R   0.956960 0.551660 0.905160 -0.550421
O5    O     O_R   0.945110 0.539900 0.088450 -0.574216
O6    O     O_R   0.048570 0.643270 0.088390 -0.606978
O7    O     O_R   0.037700 0.448250 0.089410 -0.604427
O8    O     O_R   0.141150 0.551620 0.089350 -0.634113
O9    O     O_R   0.948590 0.908340 0.356800 -0.612957
O10   O     O_R   0.052580 0.908350 0.460820 -0.641775
O11   O     O_R   0.039640 0.091520 0.447910 -0.632980
O12   O     O_R   0.408060 0.460070 0.551440 -0.627090
O13   O     O_R   0.143620 0.091540 0.551930 -0.632533
O14   O     O_R   0.947420 0.091470 0.539000 -0.586076
O15   O     O_R   0.051410 0.091490 0.643030 -0.628054
O16   O     O_R   0.856380 0.908290 0.447890 -0.597685
O17   O     O_R   0.960370 0.908300 0.551910 -0.611136
O18   O     O_R   0.592410 0.448290 0.540650 -0.652393
O19   O     O_R   0.591790 0.551670 0.643550 -0.593556
O20   O     O_R   0.591940 0.539930 0.448560 -0.650275
O21   O     O_R   0.591320 0.643310 0.551460 -0.606200
O22   O     O_R   0.408210 0.448330 0.356450 -0.630253
O23   O     O_R   0.407590 0.551710 0.459350 -0.630354
O24   O     O_R   0.946090 0.356640 0.906180 -0.613782
Zn1   Zn    Zn3+2 0.500420 0.430970 0.431290 0.933612
Zn2   Zn    Zn3+2 0.499580 0.569030 0.568710 0.966668
Zn3   Zn    Zn3+2 0.928250 0.430930 0.997320 0.986183
Zn4   Zn    Zn3+2 0.066410 0.568980 0.997240 0.976318
Zn5   Zn    Zn3+2 0.930570 0.999900 0.430450 0.981148
Zn6   Zn    Zn3+2 0.069430 0.999920 0.569370 0.937718
O25   O     O_3   0.890938 0.660737 0.888764 -0.530886
C51   C     C_3   0.912389 0.726518 0.969432 -0.290648
H16   H     H_    0.921225 0.704223 0.018299 0.140817
H17   H     H_    0.862290 0.747029 0.961796 0.133005
H18   H     H_    0.975435 0.784831 0.994807 0.198251
O26   O     O_3   0.802404 0.579422 0.658382 -0.580443
C52   C     C_3   0.793468 0.559123 0.575246 -0.319165
H19   H     H_    0.723928 0.525520 0.524486 0.194766
H20   H     H_    0.822168 0.517630 0.557025 0.149698
H21   H     H_    0.828526 0.621134 0.576714 0.184479
O27   O     O_3   0.917251 0.572826 0.770801 -0.485526
C53   C     C_3   0.969016 0.559978 0.733187 -0.136368
H22   H     H_    0.930859 0.522004 0.660828 0.140409
H23   H     H_    0.001844 0.527017 0.758747 0.149394
H24   H     H_    0.020678 0.625041 0.752697 0.156641
O28   O     O_3   0.411053 0.255520 0.537846 -0.625387
C54   C     C_3   0.401528 0.181924 0.472718 -0.316321
H25   H     H_    0.366016 0.172490 0.406382 0.166738
H26   H     H_    0.368278 0.121510 0.474718 0.159473
H27   H     H_    0.467606 0.193112 0.485512 0.188616
N1    N     N_3   0.120160 0.339592 0.086626 -0.443134
H28   H     H_    0.131282 0.346829 0.037736 0.167156
H29   H     H_    0.128205 0.287046 0.087780 0.178774
N2    N     N_3   0.766480 0.764262 0.663055 -0.422671
H30   H     H_    0.780917 0.827304 0.703668 0.211111
H31   H     H_    0.816966 0.753907 0.693418 0.211073
O29   O     O_3   0.897105 0.892760 0.659669 -0.620897
C55   C     C_3   0.961591 0.871502 0.694234 -0.242605
H32   H     H_    0.960522 0.817528 0.644067 0.145940
H33   H     H_    0.955684 0.854799 0.744245 0.158637
H34   H     H_    0.026811 0.930488 0.727736 0.187460
O30   O     O_3   0.733073 0.735523 0.342988 -0.593817
C56   C     C_3   0.661966 0.744724 0.299137 -0.277354
H35   H     H_    0.664247 0.749917 0.242601 0.180772
H36   H     H_    0.665726 0.805561 0.341857 0.161889
H37   H     H_    0.598548 0.686307 0.273155 0.149796
O31   O     O_3   0.835760 0.107114 0.601094 -0.579959
C57   C     C_3   0.812653 0.031553 0.609947 -0.281614
H38   H     H_    0.856794 0.005068 0.605636 0.177284
H39   H     H_    0.745547 0.980020 0.555582 0.181469
H40   H     H_    0.812756 0.044260 0.672292 0.135646
O32   O     O_3   0.838749 0.246041 0.721644 -0.613915
C58   C     C_3   0.787467 0.188938 0.740836 -0.250793
H41   H     H_    0.751845 0.218009 0.765188 0.177632
H42   H     H_    0.826209 0.178389 0.792270 0.136954
H43   H     H_    0.737629 0.125220 0.680265 0.185618
N3    N     N_3   0.152481 0.789436 0.235228 -0.417984
H44   H     H_    0.203382 0.807175 0.294697 0.189338
H45   H     H_    0.169150 0.842622 0.224330 0.201134
N4    N     N_3   0.690539 0.411740 0.829108 -0.418470
H46   H     H_    0.636155 0.349632 0.799094 0.202366
H47   H     H_    0.671065 0.457111 0.849840 0.171954
N5    N     N_3   0.152384 0.921246 0.361936 -0.480451
H48   H     H_    0.134494 0.967733 0.357472 0.173421
H49   H     H_    0.177682 0.934195 0.426463 0.203285
N6    N     N_3   0.853459 0.713840 0.275953 -0.391220
H50   H     H_    0.840458 0.660006 0.285898 0.228475
H51   H     H_    0.798628 0.696856 0.220194 0.220306
O33   O     O_3   0.849288 0.586708 0.142314 -0.581223
C59   C     C_3   0.795121 0.581239 0.064970 -0.313151
H52   H     H_    0.730759 0.520743 0.029754 0.196323
H53   H     H_    0.823452 0.575859 0.021670 0.163902
H54   H     H_    0.783402 0.637793 0.077816 0.126319
N7    N     N_3   0.834454 0.414811 0.688737 -0.518444
H55   H     H_    0.771673 0.360067 0.648472 0.160645
H56   H     H_    0.871561 0.403639 0.735034 0.202207
N8    N     N_3   0.675582 0.601413 0.806885 -0.443671
H57   H     H_    0.709227 0.661421 0.864631 0.165507
H58   H     H_    0.645731 0.552482 0.819171 0.177550

loop_
_geom_bond_atom_site_label_1
_geom_bond_atom_site_label_2
_ccdc_geom_bond_type
C9    O28   S    
C47   N4    S    
C19   O29   S    
O26   C52   S    
C40   N3    S    
C29   C42   S    
C59   H53   S    
C1    O12   A    
C41   C42   A    
O9    Zn5   S    
C35   C36   A    
C25   O2    A    
O8    Zn4   S    
C56   H35   S    
C47   H12   S    
C54   H26   S    
N4    H46   S    
O10   Zn6   S    
C7    C8    A    
O1    Zn1   S    
C40   C46   A    
C32   O16   A    
C45   H7    S    
O3    Zn3   S    
C33   C39   A    
C18   C24   A    
C36   C37   A    
N5    H49   S    
O4    Zn4   S    
O21   Zn2   S    
C31   C36   S    
C5    C6    A    
O7    Zn3   S    
C55   H33   S    
O27   C53   S    
C45   H1    S    
C15   C16   A    
C3    C48   S    
N1    H28   S    
C12   O19   A    
C52   H21   S    
C18   C19   A    
C45   C47   S    
C57   H39   S    
C51   H17   S    
C4    O25   S    
C11   C17   A    
O28   C54   S    
C8    C9    A    
C23   O21   A    
C57   H40   S    
C53   H22   S    
N7    H56   S    
C5    H2    S    
O19   Zn2   S    
C21   O30   S    
C9    C10   A    
C13   H6    S    
O11   Zn5   S    
C48   C50   S    
C7    C30   S    
C21   C22   A    
C59   H54   S    
C3    N7    S    
C53   H23   S    
C28   O7    A    
C28   O8    A    
C54   H25   S    
N4    H47   S    
C44   C46   A    
C51   H16   S    
N8    H58   S    
N2    H31   S    
C3    O27   S    
C38   C39   A    
O20   Zn1   S    
N3    H44   S    
C55   H32   S    
N5    H48   S    
O14   Zn5   S    
C35   H11   S    
C8    H4    S    
C22   H9    S    
C16   C17   A    
C55   H34   S    
C34   O23   A    
C29   O9    A    
C12   O18   A    
O24   Zn3   S    
C2    C4    S    
C43   C44   A    
C37   C38   A    
C30   O11   A    
N7    H55   S    
O23   Zn2   S    
O13   Zn6   S    
N6    H50   S    
O25   C51   S    
C1    O1    A    
C49   N8    S    
C2    C26   S    
C16   H8    S    
O15   Zn6   S    
C52   H20   S    
O33   C59   S    
C27   O5    A    
C58   H42   S    
C29   O10   A    
C27   C46   S    
C40   C41   A    
C33   H10   S    
C23   O20   A    
C57   H38   S    
C53   H24   S    
N3    H45   S    
C42   C43   A    
C6    H3    S    
O30   C56   S    
C56   H37   S    
C51   H18   S    
C43   N6    S    
O2    Zn4   S    
N8    H57   S    
C20   C32   S    
O18   Zn1   S    
O12   Zn2   S    
O17   Zn6   S    
C15   N1    S    
O5    Zn3   S    
C1    C10   S    
C48   H13   S    
C58   H43   S    
C56   H36   S    
C12   C50   S    
N2    H30   S    
C31   O14   A    
C6    C7    A    
O6    Zn4   S    
C2    C47   S    
C32   O17   A    
O32   C58   S    
C31   O15   A    
C25   O24   A    
C37   O31   S    
C4    C49   S    
C11   H5    S    
C44   O33   S    
C19   C20   A    
C2    C3    S    
C26   O3    A    
C5    C10   A    
C25   C39   S    
O16   Zn5   S    
C11   C13   A    
C4    H15   S    
C41   N5    S    
C45   C50   S    
C27   O6    A    
C48   O26   S    
C33   C35   A    
C38   O32   S    
N1    H29   S    
O31   C57   S    
C22   C24   A    
C34   O22   A    
N6    H51   S    
C52   H19   S    
C58   H41   S    
C23   C24   S    
C30   O13   A    
C20   C21   A    
C49   C50   S    
C17   C34   S    
O22   Zn1   S    
C59   H52   S    
C49   H14   S    
C26   O4    A    
C14   C15   A    
C14   C28   S    
O29   C55   S    
C13   C14   A    
C18   N2    S    
C54   H27   S    
