data_mof_unit_11487.cif
_audit_creation_date              2013-03-05T15:50:08-0500
_audit_creation_method            fapswitch 2.2
_symmetry_space_group_name_H-M    P1
_symmetry_Int_Tables_number       1
_space_group_crystal_system       triclinic
_cell_length_a                    12.057615
_cell_length_b                    12.878968
_cell_length_c                    15.509432
_cell_angle_alpha                 86.059139
_cell_angle_beta                  115.330691
_cell_angle_gamma                 92.951842
_cell_volume                      2171.09052758

loop_
_atom_site_label
_atom_site_type_symbol
_atom_site_description
_atom_site_fract_x
_atom_site_fract_y
_atom_site_fract_z
_atom_type_partial_charge
O1    O     O_R   0.580150 0.341050 0.504560 -0.594550
O2    O     O_R   0.419850 0.658950 0.495440 -0.604783
O3    O     O_R   0.388090 0.353760 0.493600 -0.603367
O4    O     O_R   0.611910 0.646240 0.506400 -0.623925
C1    C     C_R   0.476612 0.299870 0.496621 0.964170
C2    C     C_R   0.522522 0.700256 0.501578 0.923623
O5    O     O_R   0.650890 0.490020 0.640860 -0.544894
O6    O     O_R   0.349110 0.509980 0.359140 -0.544978
O7    O     O_R   0.458830 0.502730 0.629890 -0.621408
O8    O     O_R   0.541170 0.497270 0.370110 -0.576374
C3    C     C_R   0.575521 0.490004 0.680235 0.969166
C4    C     C_R   0.423584 0.496023 0.319793 0.923663
Zn1   Zn    Zn3+2 0.628240 0.491510 0.507320 1.100513
Zn2   Zn    Zn3+2 0.371760 0.508490 0.492680 1.077042
C5    C     C_R   0.617881 0.459034 0.782099 -0.271784
C6    C     C_R   0.377508 0.474465 0.216755 -0.290216
C7    C     C_R   0.775204 0.423833 0.942983 -0.121941
C8    C     C_R   0.220124 0.491009 0.054581 -0.132484
C9    C     C_R   0.742411 0.465337 0.849355 0.282316
C10   C     C_R   0.252697 0.485625 0.152471 0.266769
C11   C     C_R   0.530722 0.413258 0.811970 0.204187
C12   C     C_R   0.461793 0.444130 0.181124 0.256026
C13   C     C_R   0.559973 0.409742 0.909287 -0.016310
C14   C     C_R   0.423702 0.437043 0.081421 -0.025420
C15   C     C_R   0.683401 0.395058 0.973737 -0.059203
C16   C     C_R   0.306068 0.474933 0.018494 -0.065727
C17   C     C_R   0.472226 0.425943 0.944332 0.060405
C18   C     C_R   0.503137 0.404110 0.042046 0.032997
C19   C     C_R   0.613678 0.350833 0.095915 -0.139438
C20   C     C_R   0.361105 0.474229 0.885873 -0.157846
C21   C     C_R   0.708777 0.354873 0.066589 0.318615
C22   C     C_R   0.276750 0.496431 0.920763 0.337765
C23   C     C_R   0.535383 0.811484 0.499966 -0.125374
C24   C     C_R   0.461375 0.188870 0.494369 -0.136841
C25   C     C_R   0.373693 0.030506 0.533100 0.319015
C26   C     C_R   0.618882 0.969621 0.456318 0.329355
C27   C     C_R   0.375161 0.138060 0.521255 -0.134319
C28   C     C_R   0.618067 0.861931 0.469021 -0.194275
C29   C     C_R   0.539218 0.133738 0.470416 -0.124636
C30   C     C_R   0.457167 0.866908 0.523206 -0.116294
C31   C     C_R   0.537773 0.026242 0.478389 0.006126
C32   C     C_R   0.456355 0.974148 0.512675 0.004662
H1    H     H_    0.395224 0.825126 0.547821 0.222300
H2    H     H_    0.603034 0.175798 0.447924 0.240102
N1    N     N_R   0.799120 0.480200 0.517090 -0.170914
N2    N     N_R   0.200880 0.519800 0.482910 -0.176517
C33   C     C_R   0.011896 0.616000 0.427054 0.194884
C34   C     C_R   0.987647 0.383407 0.572624 0.201665
C35   C     C_R   0.130770 0.603326 0.432287 0.360510
C36   C     C_R   0.868967 0.396605 0.567672 0.382243
C37   C     C_R   0.155480 0.448170 0.529325 0.004091
C38   C     C_R   0.844463 0.551614 0.470573 0.070930
C39   C     C_R   0.036043 0.456992 0.525516 -0.102626
C40   C     C_R   0.963740 0.542496 0.474265 -0.103392
H3    H     H_    0.786118 0.614820 0.429524 0.187397
H4    H     H_    0.213756 0.384967 0.570242 0.213949
N3    N     N_R   0.826931 0.314888 0.130163 0.237531
O9    O     O_R   0.864619 0.317257 0.222190 -0.265455
O10   O     O_R   0.890205 0.264397 0.097324 -0.303155
N4    N     N_R   0.168110 0.551014 0.857828 0.242616
O11   O     O_R   0.113502 0.529990 0.768051 -0.331658
O12   O     O_R   0.138230 0.634502 0.884921 -0.287878
N5    N     N_R   0.820054 0.317938 0.612337 0.237258
O13   O     O_R   0.809151 0.337360 0.689345 -0.294111
O14   O     O_R   0.813846 0.221655 0.589831 -0.320814
N6    N     N_R   0.179576 0.682652 0.388085 0.236244
O15   O     O_R   0.193560 0.663325 0.312339 -0.284589
O16   O     O_R   0.182846 0.779030 0.409474 -0.329100
N7    N     N_R   0.941065 0.703635 0.373113 0.234592
O17   O     O_R   0.910289 0.772707 0.415812 -0.300172
O18   O     O_R   0.917744 0.719886 0.283337 -0.238551
N8    N     N_R   0.057893 0.295289 0.626176 0.243339
O19   O     O_R   0.090753 0.227632 0.583521 -0.275445
O20   O     O_R   0.076997 0.276308 0.714859 -0.227476
N9    N     N_R   0.588861 0.431459 0.245291 0.200174
O21   O     O_R   0.622581 0.351825 0.306593 -0.365149
O22   O     O_R   0.670150 0.501974 0.245221 -0.354264
N10   N     N_R   0.433108 0.345751 0.750411 0.217689
O23   O     O_R   0.449987 0.297068 0.686464 -0.394827
O24   O     O_R   0.347684 0.308793 0.774982 -0.313387
N11   N     N_R   0.157411 0.490319 0.184273 0.248454
O25   O     O_R   0.146130 0.416136 0.241548 -0.304867
O26   O     O_R   0.065908 0.552068 0.138838 -0.306763
N12   N     N_R   0.836406 0.508778 0.823583 0.252749
O27   O     O_R   0.825149 0.601183 0.781609 -0.310457
O28   O     O_R   0.939961 0.461640 0.852908 -0.311909
H5    H     H_    0.871129 0.423195 0.992906 0.225605
H6    H     H_    0.125683 0.506031 0.006638 0.239514
H7    H     H_    0.628348 0.306277 0.160886 0.233583
H8    H     H_    0.340904 0.499014 0.812610 0.182056
H9    H     H_    0.677481 0.817470 0.449962 0.210683
H10   H     H_    0.313731 0.181970 0.538543 0.234166
N13   N     N_R   0.290821 0.980763 0.568438 0.228578
O29   O     O_R   0.333722 0.923638 0.647785 -0.321540
O30   O     O_R   0.177256 0.009412 0.532827 -0.220120
N14   N     N_R   0.699324 0.019225 0.418473 0.225172
O31   O     O_R   0.654585 0.079397 0.341073 -0.320858
O32   O     O_R   0.811813 0.988819 0.449976 -0.222112

loop_
_geom_bond_atom_site_label_1
_geom_bond_atom_site_label_2
_geom_bond_distance
_ccdc_geom_bond_type
C15   C21   1.404325 A    
N6    O16   1.301021 A    
N5    O14   1.301034 A    
C16   C22   1.411740 A    
N13   O29   1.301274 A    
C24   C27   1.395008 A    
C31   C32   1.423541 A    
C8    C16   1.401535 A    
Zn2   N2    2.012505 S    
C20   H8    1.083354 S    
C19   H7    1.074445 S    
N11   O25   1.301429 A    
C33   C35   1.417889 A    
C39   C40   1.410711 A    
C5    C9    1.417076 A    
N2    C35   1.377640 A    
O1    C1    1.290058 A    
C18   C19   1.416991 A    
C25   C27   1.384950 A    
C14   C16   1.422594 A    
N10   O24   1.301213 A    
N3    O10   1.301326 A    
N4    O12   1.301554 A    
C37   H4    1.079519 S    
O4    Zn1   2.011015 S    
N7    O18   1.300989 A    
C25   C32   1.413115 A    
C33   N7    1.435703 S    
C3    C5    1.469629 S    
C30   H1    1.080502 S    
C4    C6    1.491611 S    
N14   O32   1.301189 A    
C11   N10   1.449103 S    
O6    Zn2   1.968655 S    
C13   C17   1.410235 A    
C38   H3    1.080452 S    
C6    C10   1.413568 A    
C34   C36   1.418361 A    
N6    O15   1.297900 A    
N13   O30   1.301192 A    
C10   N11   1.436347 S    
N14   O31   1.301408 A    
C17   C20   1.404563 A    
C36   N5    1.430302 S    
C26   C31   1.414069 A    
O2    C2    1.289554 A    
C12   N9    1.436382 S    
C34   N8    1.436187 S    
N11   O26   1.301681 A    
C38   C40   1.425301 A    
C25   N13   1.436562 S    
C34   C39   1.408954 A    
C23   C30   1.387254 A    
C35   N6    1.430753 S    
C24   C29   1.387961 A    
N12   O27   1.301179 A    
N8    O20   1.301189 A    
O7    Zn2   1.926367 S    
N10   O23   1.299803 A    
N1    C38   1.363763 A    
N2    C37   1.364852 A    
C8    H6    1.079548 S    
N4    O11   1.301755 A    
C37   C39   1.426010 A    
O5    C3    1.293690 A    
N9    O21   1.303565 A    
O7    C3    1.297047 A    
C26   N14   1.437089 S    
C5    C11   1.407797 A    
O6    C4    1.308319 A    
C1    C24   1.432805 S    
N9    O22   1.301751 A    
O3    Zn2   2.011014 S    
O8    C4    1.293080 A    
C33   C40   1.407603 A    
O4    C2    1.285422 A    
C11   C13   1.393300 A    
C12   C14   1.420495 A    
O1    Zn1   1.991845 S    
C22   N4    1.438511 S    
C9    N12   1.431381 S    
Zn1   N1    2.012504 S    
C6    C12   1.428974 A    
C27   H10   1.083636 S    
C7    H5    1.082193 S    
C14   C18   1.431130 A    
N12   O28   1.299485 A    
N8    O19   1.301150 A    
O3    C1    1.285378 A    
O8    Zn1   1.926368 S    
C29   H2    1.080728 S    
C23   C28   1.395086 A    
C2    C23   1.432568 S    
C7    C15   1.405479 A    
C21   N3    1.439030 S    
C26   C28   1.387510 A    
C19   C21   1.400458 A    
C20   C22   1.389708 A    
N3    O9    1.301603 A    
N1    C36   1.376868 A    
C28   H9    1.084068 S    
C30   C32   1.379615 A    
C7    C9    1.405165 A    
C8    C10   1.393620 A    
C13   C15   1.407079 A    
N7    O17   1.301103 A    
O2    Zn2   1.991845 S    
N5    O13   1.298128 A    
O5    Zn1   1.968655 S    
C29   C31   1.381334 A    
C17   C18   1.408403 A    
