data_mof_unit_63676.cif
_audit_creation_date              2013-03-05T15:57:34-0500
_audit_creation_method            fapswitch 2.2
_symmetry_space_group_name_H-M    P1
_symmetry_Int_Tables_number       1
_space_group_crystal_system       triclinic
_cell_length_a                    21.759528
_cell_length_b                    21.759512
_cell_length_c                    30.358534
_cell_angle_alpha                 90.00006
_cell_angle_beta                  90.000019
_cell_angle_gamma                 90.000083
_cell_volume                      14374.0588179

loop_
_atom_site_label
_atom_site_type_symbol
_atom_site_description
_atom_site_fract_x
_atom_site_fract_y
_atom_site_fract_z
_atom_type_partial_charge
O1    O     O_R   0.090160 0.447820 0.500030 -0.557816
O2    O     O_R   0.447820 0.909840 0.500030 -0.557822
O3    O     O_R   0.909840 0.552180 0.500030 -0.557816
O4    O     O_R   0.552180 0.090160 0.500030 -0.557826
O5    O     O_R   0.090160 0.552180 0.499970 -0.554813
O6    O     O_R   0.447820 0.090160 0.499970 -0.554826
O7    O     O_R   0.909840 0.447820 0.499970 -0.554813
O8    O     O_R   0.552180 0.909840 0.499970 -0.554822
O9    O     O_R   0.590160 0.947820 0.000030 -0.554810
O10   O     O_R   0.947820 0.409840 0.000030 -0.554821
O11   O     O_R   0.409840 0.052180 0.000030 -0.554811
O12   O     O_R   0.052180 0.590160 0.000030 -0.554824
O13   O     O_R   0.590160 0.052180 0.999970 -0.557813
O14   O     O_R   0.947820 0.590160 0.999970 -0.557822
O15   O     O_R   0.409840 0.947820 0.999970 -0.557814
O16   O     O_R   0.052180 0.409840 0.999970 -0.557826
C1    C     C_R   0.118702 0.500010 0.500009 0.924349
C2    C     C_R   0.500010 0.881298 0.500009 0.924380
C3    C     C_R   0.881298 0.499990 0.500009 0.924349
C4    C     C_R   0.499990 0.118701 0.500009 0.924400
C5    C     C_R   0.618702 0.999990 0.999990 0.924341
C6    C     C_R   0.999990 0.381298 0.999991 0.924389
C7    C     C_R   0.381298 0.000010 0.999990 0.924344
C8    C     C_R   0.000010 0.618702 0.999990 0.924385
O17   O     O_R   0.999980 0.447820 0.435750 -0.576267
O18   O     O_R   0.447820 0.000020 0.435750 -0.576270
O19   O     O_R   0.000020 0.552180 0.435750 -0.576266
O20   O     O_R   0.552180 0.999980 0.435750 -0.576272
O21   O     O_R   0.999980 0.552180 0.564250 -0.565837
O22   O     O_R   0.447820 0.999980 0.564250 -0.565861
O23   O     O_R   0.000020 0.447820 0.564250 -0.565837
O24   O     O_R   0.552180 0.000020 0.564250 -0.565860
O25   O     O_R   0.499980 0.947820 0.935750 -0.565835
O26   O     O_R   0.947820 0.500020 0.935750 -0.565859
O27   O     O_R   0.500020 0.052180 0.935750 -0.565835
O28   O     O_R   0.052180 0.499980 0.935750 -0.565860
O29   O     O_R   0.499980 0.052180 0.064250 -0.576267
O30   O     O_R   0.947820 0.499980 0.064250 -0.576270
O31   O     O_R   0.500020 0.947820 0.064250 -0.576267
O32   O     O_R   0.052180 0.500020 0.064250 -0.576271
C9    C     C_R   0.281838 0.537473 0.530180 0.235629
C10   C     C_R   0.537464 0.718163 0.530185 0.235643
C11   C     C_R   0.718162 0.462527 0.530179 0.235622
C12   C     C_R   0.462540 0.281837 0.530187 0.235651
C13   C     C_R   0.281803 0.462622 0.469728 0.235724
C14   C     C_R   0.537366 0.281802 0.469721 0.235750
C15   C     C_R   0.718197 0.537377 0.469728 0.235730
C16   C     C_R   0.462630 0.718197 0.469724 0.235740
C17   C     C_R   0.781804 0.037381 0.030270 0.235722
C18   C     C_R   0.037366 0.218197 0.030279 0.235749
C19   C     C_R   0.218196 0.962620 0.030271 0.235725
C20   C     C_R   0.962633 0.781802 0.030278 0.235747
C21   C     C_R   0.781838 0.962525 0.969822 0.235621
C22   C     C_R   0.037462 0.781837 0.969814 0.235644
C23   C     C_R   0.218162 0.037475 0.969822 0.235623
C24   C     C_R   0.962538 0.218163 0.969813 0.235648
C25   C     C_R   0.000000 0.500000 0.414957 0.838257
C26   C     C_R   0.500000 1.000000 0.414957 0.838289
C27   C     C_R   1.000000 0.500000 0.584857 0.826188
C28   C     C_R   0.500000 1.000000 0.584857 0.826250
C29   C     C_R   0.500000 1.000000 0.915143 0.826181
C30   C     C_R   0.000000 0.500000 0.915143 0.826244
C31   C     C_R   0.500000 0.000000 0.085043 0.838248
C32   C     C_R   1.000000 0.500000 0.085043 0.838293
Cu1   Cu    Cu3+1 1.000000 0.438210 0.500000 1.126224
Cu2   Cu    Cu3+1 0.438210 0.000000 0.500000 1.126204
Cu3   Cu    Cu3+1 0.000000 0.561790 0.500000 1.126224
Cu4   Cu    Cu3+1 0.561790 0.000000 0.500000 1.126205
Cu5   Cu    Cu3+1 0.500000 0.938210 0.000000 1.126227
Cu6   Cu    Cu3+1 0.938210 0.500000 0.000000 1.126210
Cu7   Cu    Cu3+1 0.500000 0.061790 0.000000 1.126228
Cu8   Cu    Cu3+1 0.061790 0.500000 0.000000 1.126205
C33   C     C_R   0.185566 0.500054 0.499975 -0.339341
C34   C     C_R   0.500053 0.814435 0.499975 -0.339333
C35   C     C_R   0.814434 0.499946 0.499975 -0.339341
C36   C     C_R   0.499947 0.185565 0.499975 -0.339327
C37   C     C_R   0.685566 0.999946 0.000025 -0.339343
C38   C     C_R   0.999946 0.314435 0.000025 -0.339332
C39   C     C_R   0.314434 0.000053 0.000025 -0.339343
C40   C     C_R   0.000053 0.685565 0.000025 -0.339332
C41   C     C_R   0.217511 0.537180 0.530329 0.221324
C42   C     C_R   0.537171 0.782490 0.530335 0.221329
C43   C     C_R   0.782489 0.462819 0.530329 0.221327
C44   C     C_R   0.462833 0.217509 0.530338 0.221322
C45   C     C_R   0.217467 0.463031 0.469539 0.224142
C46   C     C_R   0.536957 0.217466 0.469531 0.224135
C47   C     C_R   0.782533 0.536968 0.469538 0.224142
C48   C     C_R   0.463038 0.782533 0.469534 0.224138
C49   C     C_R   0.717467 0.036972 0.030460 0.224141
C50   C     C_R   0.036958 0.282534 0.030468 0.224139
C51   C     C_R   0.282533 0.963029 0.030460 0.224141
C52   C     C_R   0.963041 0.717466 0.030467 0.224142
C53   C     C_R   0.717511 0.962817 0.969672 0.221328
C54   C     C_R   0.037169 0.717510 0.969664 0.221325
C55   C     C_R   0.282489 0.037182 0.969672 0.221326
C56   C     C_R   0.962831 0.282490 0.969664 0.221328
C57   C     C_R   0.019020 0.552372 0.297403 -0.123730
C58   C     C_R   0.552372 0.980981 0.297403 -0.123730
C59   C     C_R   0.980980 0.447627 0.297403 -0.123730
C60   C     C_R   0.447628 0.019019 0.297403 -0.123730
C61   C     C_R   0.048134 0.471944 0.701798 -0.118472
C62   C     C_R   0.528117 0.048099 0.701799 -0.118477
C63   C     C_R   0.951866 0.528057 0.701798 -0.118472
C64   C     C_R   0.471884 0.951900 0.701799 -0.118475
C65   C     C_R   0.548135 0.028055 0.798202 -0.118472
C66   C     C_R   0.028116 0.451900 0.798201 -0.118476
C67   C     C_R   0.451865 0.971944 0.798202 -0.118472
C68   C     C_R   0.971884 0.548100 0.798201 -0.118475
C69   C     C_R   0.519018 0.947627 0.202597 -0.123731
C70   C     C_R   0.052372 0.519022 0.202597 -0.123729
C71   C     C_R   0.480983 0.052373 0.202597 -0.123729
C72   C     C_R   0.947628 0.480978 0.202597 -0.123729
H1    H     H_    0.033495 0.593328 0.279968 0.158746
H2    H     H_    0.593328 0.966505 0.279968 0.158745
H3    H     H_    0.966505 0.406672 0.279968 0.158746
H4    H     H_    0.406672 0.033495 0.279968 0.158745
H5    H     H_    0.086902 0.451342 0.718500 0.151289
H6    H     H_    0.548767 0.086841 0.718501 0.151282
H7    H     H_    0.913098 0.548659 0.718500 0.151289
H8    H     H_    0.451234 0.913158 0.718501 0.151281
H9    H     H_    0.586904 0.048656 0.781500 0.151289
H10   H     H_    0.048766 0.413158 0.781499 0.151281
H11   H     H_    0.413097 0.951343 0.781500 0.151289
H12   H     H_    0.951234 0.586842 0.781499 0.151281
H13   H     H_    0.533491 0.906671 0.220032 0.158747
H14   H     H_    0.093327 0.533499 0.220032 0.158744
H15   H     H_    0.466509 0.093329 0.220032 0.158748
H16   H     H_    0.906673 0.466501 0.220032 0.158744
C73   C     C_R   0.018572 0.552553 0.343304 -0.109820
C74   C     C_R   0.552553 0.981429 0.343304 -0.109813
C75   C     C_R   0.981429 0.447447 0.343304 -0.109818
C76   C     C_R   0.447447 0.018571 0.343304 -0.109805
C77   C     C_R   0.047438 0.470953 0.655881 -0.103139
C78   C     C_R   0.529107 0.047401 0.655882 -0.103120
C79   C     C_R   0.952562 0.529047 0.655881 -0.103138
C80   C     C_R   0.470894 0.952598 0.655882 -0.103134
C81   C     C_R   0.547439 0.029046 0.844119 -0.103142
C82   C     C_R   0.029106 0.452598 0.844118 -0.103127
C83   C     C_R   0.452562 0.970953 0.844119 -0.103141
C84   C     C_R   0.970894 0.547402 0.844118 -0.103126
C85   C     C_R   0.518569 0.947446 0.156696 -0.109823
C86   C     C_R   0.052552 0.518574 0.156696 -0.109809
C87   C     C_R   0.481431 0.052554 0.156696 -0.109822
C88   C     C_R   0.947448 0.481426 0.156696 -0.109806
H17   H     H_    0.033306 0.593565 0.360543 0.171578
H18   H     H_    0.593565 0.966694 0.360543 0.171577
H19   H     H_    0.966694 0.406434 0.360543 0.171578
H20   H     H_    0.406434 0.033305 0.360543 0.171577
H21   H     H_    0.084655 0.448783 0.638278 0.169563
H22   H     H_    0.551322 0.084592 0.638280 0.169544
H23   H     H_    0.915345 0.551217 0.638278 0.169563
H24   H     H_    0.448679 0.915407 0.638279 0.169537
H25   H     H_    0.584656 0.051215 0.861722 0.169561
H26   H     H_    0.051321 0.415408 0.861720 0.169540
H27   H     H_    0.415344 0.948784 0.861722 0.169561
H28   H     H_    0.948679 0.584592 0.861721 0.169540
H29   H     H_    0.533302 0.906433 0.139457 0.171580
H30   H     H_    0.093564 0.533310 0.139457 0.171576
H31   H     H_    0.466698 0.093567 0.139457 0.171580
H32   H     H_    0.906436 0.466690 0.139457 0.171577
C89   C     C_R   1.000000 0.500000 0.366595 0.000638
C90   C     C_R   0.500000 1.000000 0.366595 0.000654
C91   C     C_R   0.000000 0.500000 0.632863 -0.003242
C92   C     C_R   0.500000 1.000000 0.632863 -0.003206
C93   C     C_R   0.500000 1.000000 0.867137 -0.003243
C94   C     C_R   0.000000 0.500000 0.867137 -0.003206
C95   C     C_R   0.500000 0.000000 0.133405 0.000633
C96   C     C_R   0.000000 0.500000 0.133405 0.000656
C97   C     C_R   0.000000 0.500000 0.274201 0.082702
C98   C     C_R   0.500000 0.000000 0.274201 0.082699
C99   C     C_R   0.000000 0.500000 0.725489 0.086333
C100  C     C_R   0.500000 0.999999 0.725490 0.086347
C101  C     C_R   0.500000 0.999999 0.774510 0.086333
C102  C     C_R   0.000000 0.500000 0.774510 0.086348
C103  C     C_R   0.500000 0.000000 0.225799 0.082699
C104  C     C_R   0.000000 0.500000 0.225799 0.082701
O33   O     O_R   0.499980 0.409740 0.537200 -0.550076
O34   O     O_R   0.409740 0.500020 0.537200 -0.550092
O35   O     O_R   0.500020 0.590260 0.537200 -0.550083
O36   O     O_R   0.590260 0.499980 0.537200 -0.550089
O37   O     O_R   0.499980 0.590260 0.462800 -0.549894
O38   O     O_R   0.409740 0.499980 0.462800 -0.549895
O39   O     O_R   0.500020 0.409740 0.462800 -0.549892
O40   O     O_R   0.590260 0.500020 0.462800 -0.549901
O41   O     O_R   0.999980 0.909740 0.037200 -0.549894
O42   O     O_R   0.909740 0.000020 0.037200 -0.549900
O43   O     O_R   0.000020 0.090260 0.037200 -0.549889
O44   O     O_R   0.090260 0.999980 0.037200 -0.549902
O45   O     O_R   0.999980 0.090260 0.962800 -0.550085
O46   O     O_R   0.909740 0.999980 0.962800 -0.550092
O47   O     O_R   0.000020 0.909740 0.962800 -0.550081
O48   O     O_R   0.090260 0.000020 0.962800 -0.550088
C105  C     C_R   0.500026 0.380990 0.499997 0.936850
C106  C     C_R   0.380990 0.499974 0.499997 0.936864
C107  C     C_R   0.499974 0.619010 0.499997 0.936869
C108  C     C_R   0.619009 0.500026 0.499997 0.936863
C109  C     C_R   0.999974 0.880990 0.000003 0.936873
C110  C     C_R   0.880991 0.000026 0.000003 0.936873
C111  C     C_R   0.000026 0.119010 0.000003 0.936865
C112  C     C_R   0.119009 0.999974 0.000003 0.936870
C113  C     C_R   0.313936 0.499996 0.499983 -0.308364
C114  C     C_R   0.499995 0.686064 0.499983 -0.308357
C115  C     C_R   0.686064 0.500004 0.499982 -0.308364
C116  C     C_R   0.500004 0.313935 0.499982 -0.308355
C117  C     C_R   0.813936 0.000004 0.000017 -0.308363
C118  C     C_R   0.000004 0.186065 0.000017 -0.308357
C119  C     C_R   0.186064 0.999996 0.000017 -0.308365
C120  C     C_R   0.999996 0.813935 0.000017 -0.308356
Cu9   Cu    Cu3+1 0.500000 0.500000 0.544060 1.213194
Cu10  Cu    Cu3+1 0.500000 0.500000 0.455940 1.213866
Cu11  Cu    Cu3+1 0.000000 0.000000 0.044060 1.213864
Cu12  Cu    Cu3+1 0.000000 0.000000 0.955940 1.213186
N1    N     N_R   0.184741 0.574623 0.561459 0.174478
O49   O     O_R   0.195685 0.633303 0.563998 -0.243556
O50   O     O_R   0.145585 0.549742 0.588486 -0.365292
N2    N     N_R   0.574602 0.815261 0.561472 0.174465
O51   O     O_R   0.633281 0.804316 0.564023 -0.243559
O52   O     O_R   0.549711 0.854419 0.588493 -0.365278
N3    N     N_R   0.815259 0.425377 0.561459 0.174478
O53   O     O_R   0.804317 0.366697 0.563997 -0.243557
O54   O     O_R   0.854414 0.450258 0.588487 -0.365290
N4    N     N_R   0.425408 0.184739 0.561478 0.174457
O55   O     O_R   0.366731 0.195691 0.564039 -0.243557
O56   O     O_R   0.450303 0.145578 0.588495 -0.365296
N5    N     N_R   0.184629 0.425988 0.438194 0.172918
O57   O     O_R   0.195415 0.367306 0.435354 -0.247021
O58   O     O_R   0.145514 0.451248 0.411303 -0.353431
N6    N     N_R   0.573987 0.184628 0.438178 0.172902
O59   O     O_R   0.632667 0.195420 0.435321 -0.247016
O60   O     O_R   0.548716 0.145509 0.411296 -0.353463
N7    N     N_R   0.815371 0.574010 0.438193 0.172917
O61   O     O_R   0.804585 0.632693 0.435352 -0.247020
O62   O     O_R   0.854487 0.548750 0.411303 -0.353433
N8    N     N_R   0.426003 0.815372 0.438185 0.172910
O63   O     O_R   0.367322 0.804584 0.435336 -0.247018
O64   O     O_R   0.451269 0.854488 0.411298 -0.353450
N9    N     N_R   0.684629 0.074017 0.061803 0.172921
O65   O     O_R   0.695414 0.132701 0.064639 -0.247020
O66   O     O_R   0.645516 0.048760 0.088695 -0.353422
N10   N     N_R   0.073988 0.315372 0.061821 0.172903
O67   O     O_R   0.132667 0.304580 0.064677 -0.247017
O68   O     O_R   0.048718 0.354491 0.088703 -0.353461
N11   N     N_R   0.315371 0.925984 0.061803 0.172920
O69   O     O_R   0.304586 0.867300 0.064640 -0.247020
O70   O     O_R   0.354485 0.951241 0.088695 -0.353425
N12   N     N_R   0.926010 0.684627 0.061819 0.172908
O71   O     O_R   0.867329 0.695415 0.064670 -0.247018
O72   O     O_R   0.951278 0.645510 0.088703 -0.353459
N13   N     N_R   0.684741 0.925373 0.938544 0.174480
O73   O     O_R   0.695684 0.866692 0.936008 -0.243556
O74   O     O_R   0.645585 0.950252 0.911515 -0.365286
N14   N     N_R   0.074598 0.684739 0.938526 0.174467
O75   O     O_R   0.133277 0.695684 0.935973 -0.243558
O76   O     O_R   0.049705 0.645581 0.911505 -0.365281
N15   N     N_R   0.315259 0.074626 0.938543 0.174479
O77   O     O_R   0.304316 0.133307 0.936006 -0.243556
O78   O     O_R   0.354415 0.049747 0.911515 -0.365287
N16   N     N_R   0.925402 0.315261 0.938526 0.174467
O79   O     O_R   0.866723 0.304319 0.935975 -0.243559
O80   O     O_R   0.950295 0.354419 0.911505 -0.365282
N17   N     N_R   0.314322 0.575891 0.560849 0.176716
O81   O     O_R   0.303873 0.571119 0.602912 -0.250186
O82   O     O_R   0.352310 0.617626 0.546694 -0.306697
N18   N     N_R   0.575873 0.685679 0.560859 0.176722
O83   O     O_R   0.571079 0.696114 0.602920 -0.250192
O84   O     O_R   0.617623 0.647706 0.546711 -0.306663
N19   N     N_R   0.685678 0.424108 0.560848 0.176713
O85   O     O_R   0.696129 0.428877 0.602912 -0.250180
O86   O     O_R   0.647688 0.382374 0.546692 -0.306708
N20   N     N_R   0.424136 0.314320 0.560865 0.176727
O87   O     O_R   0.428950 0.303898 0.602927 -0.250197
O88   O     O_R   0.382377 0.352287 0.546720 -0.306650
N21   N     N_R   0.314262 0.424237 0.439026 0.176761
O89   O     O_R   0.303937 0.429197 0.396959 -0.248589
O90   O     O_R   0.352194 0.382427 0.453145 -0.306224
N22   N     N_R   0.575738 0.314261 0.439011 0.176769
O91   O     O_R   0.570744 0.303952 0.396944 -0.248605
O92   O     O_R   0.617568 0.352175 0.453119 -0.306164
N23   N     N_R   0.685738 0.575761 0.439024 0.176762
O93   O     O_R   0.696063 0.570799 0.396958 -0.248594
O94   O     O_R   0.647807 0.617572 0.453142 -0.306213
N24   N     N_R   0.424253 0.685739 0.439016 0.176766
O95   O     O_R   0.429229 0.696060 0.396949 -0.248597
O96   O     O_R   0.382435 0.647813 0.453127 -0.306185
N25   N     N_R   0.814262 0.075768 0.060971 0.176759
O97   O     O_R   0.803931 0.070816 0.103039 -0.248586
O98   O     O_R   0.852200 0.117572 0.046851 -0.306227
N26   N     N_R   0.075737 0.185739 0.060989 0.176771
O99   O     O_R   0.070744 0.196048 0.103054 -0.248609
O100  O     O_R   0.117566 0.147824 0.046881 -0.306164
N27   N     N_R   0.185738 0.924233 0.060972 0.176760
O101  O     O_R   0.196067 0.929187 0.103039 -0.248589
O102  O     O_R   0.147803 0.882427 0.046853 -0.306222
N28   N     N_R   0.924260 0.814261 0.060988 0.176771
O103  O     O_R   0.929243 0.803946 0.103051 -0.248608
O104  O     O_R   0.882434 0.852178 0.046878 -0.306166
N29   N     N_R   0.814322 0.924104 0.939154 0.176714
O105  O     O_R   0.803872 0.928870 0.897091 -0.250186
O106  O     O_R   0.852311 0.882371 0.953311 -0.306708
N30   N     N_R   0.075870 0.814320 0.939137 0.176720
O107  O     O_R   0.071077 0.803878 0.897076 -0.250186
O108  O     O_R   0.117616 0.852300 0.953285 -0.306667
N31   N     N_R   0.185678 0.075895 0.939153 0.176715
O109  O     O_R   0.196126 0.071127 0.897091 -0.250186
O110  O     O_R   0.147690 0.117629 0.953310 -0.306709
N32   N     N_R   0.924131 0.185679 0.939137 0.176724
O111  O     O_R   0.928922 0.196120 0.897078 -0.250192
O112  O     O_R   0.882381 0.147705 0.953283 -0.306656

loop_
_geom_bond_atom_site_label_1
_geom_bond_atom_site_label_2
_geom_bond_distance
_ccdc_geom_bond_type
C63   C99   1.409621 A    
N15   O78   1.300876 A    
C74   H18   1.083098 S    
N27   O101  1.301207 A    
O5    Cu3   1.972950 S    
N31   O110  1.301015 A    
O35   C107  1.291108 A    
C37   C49   1.408762 A    
N24   O95   1.301184 A    
O33   C105  1.291111 A    
C58   H2    1.083308 S    
O23   C27   1.296358 A    
O46   Cu12  1.975026 S    
C18   C50   1.399962 A    
C38   C56   1.408898 A    
C60   H4    1.083308 S    
O3    C3    1.294356 A    
O38   C106  1.290944 A    
C88   H32   1.083098 S    
C73   H17   1.083099 S    
O36   C108  1.291109 A    
O25   Cu5   1.961713 S    
C18   N26   1.437079 S    
C82   H26   1.083564 S    
O27   Cu7   1.961712 S    
O42   Cu11  1.975026 S    
N8    O64   1.301132 A    
C86   H30   1.083099 S    
O28   C30   1.296361 A    
C77   C91   1.397604 A    
C33   C41   1.408910 A    
N6    O59   1.301159 A    
C80   H24   1.083563 S    
C15   N23   1.437094 S    
O30   C32   1.299096 A    
N1    O50   1.300877 A    
C62   C100  1.409619 A    
C60   C98   1.402191 A    
C6    C38   1.454916 S    
O19   C25   1.299097 A    
C52   N12   1.437286 S    
C106  C113  1.459074 S    
C21   C53   1.399760 A    
O10   C6    1.293982 A    
C40   C52   1.408752 A    
C19   N27   1.437097 S    
N31   O109  1.301183 A    
C60   C76   1.393512 A    
N32   O111  1.301083 A    
C81   H25   1.083562 S    
C87   H31   1.083099 S    
C84   H28   1.083564 S    
C85   H29   1.083098 S    
O43   Cu11  1.975022 S    
O7    C3    1.293982 A    
O29   Cu7   1.961713 S    
C81   C93   1.397607 A    
N20   O88   1.300990 A    
C26   C90   1.468196 S    
C22   N30   1.437122 S    
O6    C4    1.293981 A    
N30   O107  1.301172 A    
C68   C84   1.394216 A    
C80   C92   1.397610 A    
O23   Cu1   1.961712 S    
C79   C91   1.397607 A    
O9    Cu5   1.972949 S    
C54   N14   1.437137 S    
C69   C103  1.402189 A    
C61   C77   1.394216 A    
N25   O98   1.301011 A    
O9    C5    1.293983 A    
O11   C7    1.293983 A    
C97   C104  1.469393 S    
N23   O94   1.301006 A    
C86   C96   1.403893 A    
O4    C4    1.294351 A    
C25   C89   1.468196 S    
O25   C29   1.296358 A    
C109  C120  1.459082 S    
O41   C109  1.290946 A    
C15   C47   1.399965 A    
N14   O75   1.301151 A    
C11   C43   1.399760 A    
C13   C45   1.399965 A    
C23   N31   1.437136 S    
O20   C26   1.299098 A    
N13   O73   1.301155 A    
O20   Cu4   1.961712 S    
N2    O52   1.300880 A    
N17   O81   1.301186 A    
C19   C119  1.412026 A    
O44   C112  1.290941 A    
C16   C114  1.412023 A    
O38   Cu10  1.975026 S    
O14   C8    1.294352 A    
C83   C93   1.397606 A    
O48   Cu12  1.975024 S    
O29   C31   1.299094 A    
C41   N1    1.437134 S    
N18   O83   1.301121 A    
O1    Cu1   1.972949 S    
O41   Cu11  1.975024 S    
C75   H19   1.083100 S    
C39   C51   1.408760 A    
C71   C87   1.393512 A    
O45   C111  1.291108 A    
C31   C95   1.468196 S    
C65   C101  1.409620 A    
N9    O65   1.301157 A    
C1    C33   1.454928 S    
N29   O106  1.301016 A    
O17   C25   1.299096 A    
N5    O57   1.301154 A    
N5    O58   1.301128 A    
O18   Cu2   1.961713 S    
O4    Cu4   1.972949 S    
O48   C112  1.291108 A    
O37   Cu10  1.975022 S    
N26   O100  1.300969 A    
C11   N19   1.437136 S    
C43   N3    1.437130 S    
C83   H27   1.083564 S    
C87   C95   1.403893 A    
C66   H10   1.081513 S    
Cu9   Cu10  2.675191 S    
O31   Cu5   1.961712 S    
C73   C89   1.403893 A    
O27   C29   1.296359 A    
N4    O56   1.300885 A    
C33   C45   1.408760 A    
C70   H14   1.083311 S    
C18   C118  1.412019 A    
C35   C47   1.408763 A    
C30   C94   1.457392 S    
C22   C120  1.411816 A    
C10   C114  1.411813 A    
C45   N5    1.437289 S    
N12   O71   1.301140 A    
O32   Cu8   1.961713 S    
C72   C104  1.402194 A    
C51   N11   1.437288 S    
O2    Cu2   1.972951 S    
O45   Cu12  1.975022 S    
N19   O85   1.301215 A    
C23   C119  1.411816 A    
O12   C8    1.293982 A    
N24   O96   1.300981 A    
C82   C94   1.397608 A    
N16   O79   1.301141 A    
C44   N4    1.437141 S    
C11   C115  1.411817 A    
C13   N21   1.437093 S    
N10   O67   1.301148 A    
N21   O90   1.301007 A    
C29   C93   1.457377 S    
C67   C83   1.394216 A    
C76   C90   1.403891 A    
C27   C91   1.457377 S    
C65   C81   1.394216 A    
C58   C98   1.402190 A    
C24   C118  1.411813 A    
N22   O91   1.301165 A    
C56   N16   1.437133 S    
C12   C116  1.411812 A    
C69   C85   1.393515 A    
O28   Cu8   1.961712 S    
O30   Cu6   1.961712 S    
O16   Cu8   1.972950 S    
C67   H11   1.081514 S    
C36   C44   1.408902 A    
N6    O60   1.301134 A    
N1    O49   1.301155 A    
C38   C50   1.408751 A    
O39   Cu10  1.975025 S    
O34   C106  1.291106 A    
C68   H12   1.081513 S    
C59   H3    1.083310 S    
N28   O103  1.301087 A    
O11   Cu7   1.972952 S    
O5    C1    1.293982 A    
N11   O69   1.301159 A    
O26   C30   1.296364 A    
C19   C51   1.399968 A    
O21   Cu3   1.961713 S    
Cu1   Cu3   2.689038 S    
C68   C102  1.409619 A    
N32   O112  1.300967 A    
N23   O93   1.301182 A    
C16   C48   1.399964 A    
C64   C80   1.394216 A    
O26   Cu6   1.961713 S    
C64   C100  1.409621 A    
C14   C116  1.412020 A    
O12   Cu8   1.972949 S    
C110  C117  1.459070 S    
O14   Cu6   1.972948 S    
C34   C42   1.408903 A    
N30   O108  1.301003 A    
C98   C103  1.469389 S    
C84   C94   1.397609 A    
C99   C102  1.488181 S    
O3    Cu3   1.972952 S    
C85   C95   1.403891 A    
C49   N9    1.437287 S    
C10   N18   1.437120 S    
N3    O53   1.301154 A    
O13   Cu7   1.972950 S    
O40   C108  1.290941 A    
C111  C118  1.459082 S    
O8    C2    1.293982 A    
O43   C111  1.290947 A    
C39   C55   1.408911 A    
N25   O97   1.301228 A    
O7    Cu1   1.972952 S    
Cu11  Cu12  2.675191 S    
C9    C41   1.399760 A    
C58   C74   1.393512 A    
C66   C102  1.409619 A    
C15   C115  1.412027 A    
N7    O62   1.301126 A    
O19   Cu3   1.961712 S    
C108  C115  1.459074 S    
O18   C26   1.299096 A    
C42   N2    1.437135 S    
O10   Cu6   1.972951 S    
C17   C117  1.412028 A    
C112  C119  1.459072 S    
C20   C52   1.399964 A    
N8    O63   1.301156 A    
O24   C28   1.296360 A    
C40   C54   1.408899 A    
C36   C46   1.408758 A    
O46   C110  1.291106 A    
N14   O76   1.300880 A    
C24   C56   1.399761 A    
O16   C6    1.294352 A    
N27   O102  1.300998 A    
O1    C1    1.294356 A    
C12   C44   1.399759 A    
O40   Cu10  1.975024 S    
C59   C75   1.393512 A    
C48   N8    1.437289 S    
C61   H5    1.081515 S    
C9    N17   1.437134 S    
C32   C96   1.468193 S    
C24   N32   1.437121 S    
N19   O86   1.301031 A    
C35   C43   1.408909 A    
C79   H23   1.083565 S    
C37   C53   1.408912 A    
O39   C105  1.290944 A    
C78   C92   1.397611 A    
C61   C99   1.409619 A    
O36   Cu9   1.975024 S    
O37   C107  1.290945 A    
C72   H16   1.083310 S    
N18   O84   1.300984 A    
O17   Cu1   1.961713 S    
N20   O87   1.301152 A    
O42   C110  1.290943 A    
C34   C48   1.408756 A    
C64   H8    1.081515 S    
Cu2   Cu4   2.689040 S    
O2    C2    1.294352 A    
C46   N6    1.437291 S    
N29   O105  1.301188 A    
C10   C42   1.399759 A    
C21   N29   1.437139 S    
C107  C114  1.459080 S    
C17   N25   1.437100 S    
C105  C116  1.459082 S    
C88   C96   1.403895 A    
C71   C103  1.402192 A    
O44   Cu11  1.975024 S    
C66   C82   1.394216 A    
C75   C89   1.403892 A    
C78   H22   1.083565 S    
C57   C97   1.402194 A    
C4    C36   1.454916 S    
C70   C86   1.393512 A    
O33   Cu9   1.975024 S    
Cu5   Cu7   2.689038 S    
C63   C79   1.394213 A    
C28   C92   1.457392 S    
C8    C40   1.454916 S    
O21   C27   1.296357 A    
N11   O70   1.301126 A    
O22   C28   1.296362 A    
C21   C117  1.411817 A    
C62   H6    1.081513 S    
O47   Cu12  1.975025 S    
O24   Cu4   1.961713 S    
C70   C104  1.402195 A    
O15   C7    1.294357 A    
C2    C34   1.454918 S    
C53   N13   1.437131 S    
O15   Cu5   1.972952 S    
N12   O72   1.301128 A    
N13   O74   1.300877 A    
O13   C5    1.294357 A    
C76   H20   1.083098 S    
C77   H21   1.083562 S    
N2    O51   1.301151 A    
C23   C55   1.399760 A    
N17   O82   1.301011 A    
C16   N24   1.437089 S    
C67   C101  1.409619 A    
C14   N22   1.437078 S    
O34   Cu9   1.975026 S    
N16   O80   1.300879 A    
C62   C78   1.394216 A    
N3    O54   1.300874 A    
N10   O68   1.301132 A    
N21   O89   1.301191 A    
C65   H9    1.081513 S    
O22   Cu2   1.961712 S    
C69   H13   1.083307 S    
N22   O92   1.300974 A    
O8    Cu4   1.972950 S    
N9    O66   1.301126 A    
C71   H15   1.083308 S    
C57   H1    1.083310 S    
N15   O77   1.301157 A    
C55   N15   1.437133 S    
C100  C101  1.488178 S    
C12   N20   1.437115 S    
C20   C120  1.412021 A    
C63   H7    1.081515 S    
O47   C109  1.291109 A    
C17   C49   1.399965 A    
C59   C97   1.402192 A    
O31   C31   1.299095 A    
O35   Cu9   1.975022 S    
O32   C32   1.299095 A    
C50   N10   1.437286 S    
C20   N28   1.437082 S    
N26   O99   1.301131 A    
C72   C88   1.393512 A    
C3    C35   1.454928 S    
C57   C73   1.393512 A    
N28   O104  1.300962 A    
C74   C90   1.403893 A    
C47   N7    1.437289 S    
N4    O55   1.301159 A    
C22   C54   1.399759 A    
O6    Cu2   1.972948 S    
C13   C113  1.412024 A    
C5    C37   1.454928 S    
N7    O61   1.301153 A    
Cu6   Cu8   2.689040 S    
C7    C39   1.454928 S    
C9    C113  1.411815 A    
C14   C46   1.399962 A    
