data_mof_unit_24279.cif
_audit_creation_date              2013-03-05T15:46:20-0500
_audit_creation_method            fapswitch 2.2
_symmetry_space_group_name_H-M    P1
_symmetry_Int_Tables_number       1
_space_group_crystal_system       triclinic
_cell_length_a                    10.142017
_cell_length_b                    10.673616
_cell_length_c                    10.54817
_cell_angle_alpha                 90.573174
_cell_angle_beta                  94.731074
_cell_angle_gamma                 82.00841
_cell_volume                      1126.91725097

loop_
_atom_site_label
_atom_site_type_symbol
_atom_site_description
_atom_site_fract_x
_atom_site_fract_y
_atom_site_fract_z
_atom_type_partial_charge
O1    O     O_R   0.568950 0.489660 0.307530 -0.596873
O2    O     O_R   0.348880 0.522640 0.340350 -0.558690
C1    C     C_R   0.445072 0.502437 0.265384 0.891070
O3    O     O_R   0.610060 0.300270 0.483590 -0.599540
O4    O     O_R   0.389990 0.333260 0.516410 -0.671861
C2    C     C_R   0.502894 0.259734 0.516309 0.877031
Zn1   Zn    Zn3+2 0.646940 0.477980 0.478090 0.932677
Zn2   Zn    Zn3+2 0.353060 0.522020 0.521910 1.017451
O5    O     O_R   0.651120 0.477360 0.659650 -0.657894
O6    O     O_R   0.431050 0.510340 0.692470 -0.573948
O7    O     O_R   0.610010 0.666740 0.483590 -0.609519
O8    O     O_R   0.389940 0.699730 0.516410 -0.530995
C3    C     C_R   0.554313 0.486146 0.734270 0.878069
C4    C     C_R   0.504745 0.738487 0.519576 0.914955
C5    C     C_R   0.758044 0.095045 0.628148 0.105083
C6    C     C_R   0.877053 0.011714 0.638362 -0.099445
H1    H     H_    0.970936 0.047322 0.662444 0.195134
C7    C     C_R   0.874086 0.883166 0.646233 -0.094241
H2    H     H_    0.965373 0.821685 0.676045 0.195203
C8    C     C_R   0.752076 0.837287 0.640813 0.115022
C9    C     C_R   0.633317 0.916189 0.594691 0.017829
C10   C     C_R   0.634099 0.048989 0.590865 0.036049
C11   C     C_R   0.509427 0.128122 0.559164 -0.230889
C12   C     C_R   0.388594 0.077925 0.572018 -0.005928
C13   C     C_R   0.390582 0.948940 0.577907 0.354193
C14   C     C_R   0.511050 0.868583 0.564447 -0.303143
C15   C     C_2   0.418139 0.487180 0.128302 0.103361
C16   C     C_2   0.503683 0.401292 0.067835 -0.012545
H3    H     H_    0.658191 0.503875 0.922473 0.147353
C17   C     C_2   0.579886 0.460452 0.869537 -0.351722
C18   C     C_2   0.498155 0.395833 0.930298 0.170297
H4    H     H_    0.926319 0.487892 0.626111 0.145691
N1    N     N_2   0.157290 0.551390 0.551110 -0.173381
C19   C     C_2   0.075515 0.489239 0.482302 0.178228
H5    H     H_    0.854981 0.449857 0.353376 0.203365
N2    N     N_2   0.842740 0.448550 0.448960 -0.201587
C20   C     C_2   0.940977 0.474791 0.526204 -0.225726
H6    H     H_    0.125820 0.586842 0.636483 0.180715
N3    N     N_3   0.260761 0.153792 0.578960 -0.407139
H7    H     H_    0.226663 0.192565 0.489978 0.209620
H8    H     H_    0.265269 0.222234 0.650003 0.202744
N4    N     N_R   0.307881 0.567659 0.062061 0.196718
O9    O     O_R   0.202846 0.609544 0.121099 -0.348102
O10   O     O_R   0.318025 0.612559 0.949566 -0.359676
N5    N     N_3   0.114155 0.435993 0.362315 -0.354125
H9    H     H_    0.048270 0.376464 0.323912 0.145606
H10   H     H_    0.201170 0.373353 0.379018 0.216391
N6    N     N_3   0.764740 0.212952 0.691852 -0.449564
H11   H     H_    0.672365 0.249061 0.722928 0.183068
H12   H     H_    0.802418 0.274778 0.632772 0.244843
N7    N     N_3   0.748906 0.725587 0.713496 -0.448102
H13   H     H_    0.653198 0.720012 0.740638 0.190234
H14   H     H_    0.781104 0.648859 0.657869 0.230654
N8    N     N_R   0.267980 0.901026 0.596655 0.227015
O11   O     O_R   0.256974 0.839252 0.700133 -0.372850
O12   O     O_R   0.166517 0.921696 0.512033 -0.396927
N9    N     N_3   0.404046 0.322492 0.866479 -0.432751
H15   H     H_    0.451633 0.264790 0.798610 0.161196
H16   H     H_    0.323280 0.382319 0.822759 0.235889
N10   N     N_3   0.601288 0.311594 0.137708 -0.439015
H17   H     H_    0.583775 0.220670 0.109893 0.205452
H18   H     H_    0.695825 0.323988 0.111448 0.197976

loop_
_geom_bond_atom_site_label_1
_geom_bond_atom_site_label_2
_geom_bond_distance
_ccdc_geom_bond_type
O4    Zn2   1.998573 S    
C9    C14   1.415752 A    
C16   C18   1.448120 S    
H3    C17   1.086886 S    
C19   C20   1.504739 S    
Zn1   N2    2.015389 S    
H5    N2    1.026432 S    
Zn2   O8    1.986002 S    
C18   N9    1.438113 S    
N6    H12   1.042834 S    
N1    C19   1.303356 D    
C13   C14   1.408319 A    
N7    H13   1.044010 S    
N3    H8    1.044030 S    
C19   N5    1.443582 S    
O1    Zn1   1.902697 S    
N5    H9    1.040462 S    
C12   C13   1.376035 A    
N10   H18   1.045625 S    
Zn1   O7    1.998574 S    
C15   N4    1.446573 S    
N9    H15   1.044167 S    
C17   C18   1.352420 D    
N4    O10   1.301367 A    
C5    N6    1.428033 S    
N10   H17   1.045522 S    
O3    Zn1   1.986003 S    
C2    C11   1.471050 S    
C1    C15   1.460980 S    
N2    C20   1.293866 D    
O8    C4    1.286547 A    
O2    C1    1.299572 A    
C8    N7    1.429428 S    
C7    C8    1.389438 A    
Zn2   N1    2.015252 S    
C16   N10   1.438753 S    
O4    C2    1.295147 A    
Zn2   O6    1.902697 S    
O7    C4    1.305377 A    
N8    O12   1.301400 A    
N9    H16   1.043812 S    
O3    C2    1.297399 A    
H4    C20   1.081354 S    
N4    O9    1.301498 A    
C11   C12   1.420811 A    
C5    C6    1.393373 A    
C3    C17   1.450967 S    
N3    H7    1.042236 S    
C12   N3    1.436842 S    
C13   N8    1.437420 S    
C6    C7    1.380064 A    
C7    H2    1.083448 S    
N5    H10   1.034183 S    
O2    Zn2   1.912152 S    
C15   C16   1.363210 D    
Zn1   O5    1.912152 S    
O5    C3    1.301036 A    
N8    O11   1.301365 A    
N6    H11   1.039930 S    
N7    H14   1.034047 S    
C8    C9    1.423430 A    
C9    C10   1.419576 A    
C5    C10   1.436274 A    
C4    C14   1.470664 S    
C10   C11   1.436301 A    
N1    H6    1.031034 S    
C6    H1    1.083692 S    
O1    C1    1.286916 A    
O6    C3    1.282777 A    
