data_mof_unit_11776.cif
_audit_creation_date              2012-12-11T14:49:44-0500
_audit_creation_method            fapswitch 2.2
_symmetry_space_group_name_H-M    P1
_symmetry_Int_Tables_number       1
_space_group_crystal_system       triclinic
_cell_length_a                    11.042055
_cell_length_b                    11.065966
_cell_length_c                    18.996447
_cell_angle_alpha                 90.094868
_cell_angle_beta                  90.016132
_cell_angle_gamma                 120.070958
_cell_volume                      2008.77050387

loop_
_atom_site_label
_atom_site_type_symbol
_atom_type_description
_atom_site_fract_x
_atom_site_fract_y
_atom_site_fract_z
_atom_type_partial_charge
C1    C     C_R   0.531017 0.461967 0.644761 0.564944
C2    C     C_R   0.436037 0.547111 0.360942 0.606070
C3    C     C_R   0.470065 0.931333 0.144819 0.641478
C4    C     C_R   0.068116 0.538322 0.355082 0.623428
C5    C     C_R   0.429688 0.053838 0.529055 0.352698
C6    C     C_R   0.633968 0.564433 0.971556 0.356934
C7    C     C_R   0.929001 0.365901 0.528382 0.366556
C8    C     C_R   0.436265 0.070107 0.971738 0.344701
C9    C     C_R   0.622926 0.565609 0.528322 0.365240
C10   C     C_R   0.931049 0.366919 0.971125 0.348415
C11   C     C_R   0.955797 0.384509 0.042878 0.368727
C12   C     C_R   0.928978 0.467657 0.855590 0.564904
C13   C     C_R   0.599827 0.576594 0.457551 0.408195
C14   C     C_R   0.429427 0.045621 0.043594 0.367629
C15   C     C_R   0.952545 0.383412 0.456492 0.388996
C16   C     C_R   0.616223 0.571295 0.043377 0.373991
C17   C     C_R   0.417543 0.019125 0.458352 0.402249
C18   C     C_R   0.475894 0.941063 0.432857 -0.015356
C19   C     C_R   0.481994 0.513223 0.070937 -0.002748
C20   C     C_R   0.027789 0.517162 0.428681 -0.002293
C21   C     C_R   0.489729 0.971947 0.071417 -0.004281
C22   C     C_R   0.463514 0.525062 0.432956 -0.017159
C23   C     C_R   0.537529 0.068805 0.644878 0.566239
C24   C     C_R   0.031422 0.518321 0.070845 0.005958
C25   C     C_R   0.979280 0.484559 0.927156 -0.050194
C26   C     C_R   0.508602 0.496647 0.574305 -0.053722
C27   C     C_R   0.506050 0.022224 0.927541 -0.052614
C28   C     C_R   0.978203 0.483667 0.572639 -0.050438
C29   C     C_R   0.516049 0.495349 0.927256 -0.053750
C30   C     C_R   0.501717 0.011339 0.574579 -0.059318
C31   C     C_R   0.557961 0.908663 0.477077 0.188298
C32   C     C_R   0.362969 0.441952 0.026883 0.211012
C33   C     C_R   0.073296 0.635772 0.472660 0.199268
C34   C     C_R   0.532598 0.461401 0.855701 0.565377
C35   C     C_R   0.564520 0.927962 0.027482 0.217544
C36   C     C_R   0.348516 0.446367 0.477408 0.181960
C37   C     C_R   0.078629 0.637201 0.027102 0.213019
C38   C     C_R   0.056031 0.620194 0.955153 0.242301
C39   C     C_R   0.370221 0.437650 0.548681 0.238981
C40   C     C_R   0.566821 0.947408 0.955537 0.248897
C41   C     C_R   0.053797 0.619185 0.544708 0.239251
C42   C     C_R   0.380126 0.436852 0.954930 0.241134
C43   C     C_R   0.561913 0.933734 0.548722 0.243056
C44   C     C_3   0.770892 0.943754 0.443329 0.010413
C45   C     C_R   0.928494 0.467275 0.644297 0.562465
C46   C     C_3   0.157791 0.238561 0.050755 0.004840
C47   C     C_3   0.063167 0.833981 0.448395 0.021004
C48   C     C_3   0.769900 0.943447 0.061354 -0.002345
C49   C     C_3   0.166680 0.236108 0.442868 0.002380
C50   C     C_3   0.080436 0.842096 0.051303 0.009371
C51   C     C_3   0.212373 0.763290 0.873117 -0.090726
C52   C     C_3   0.230960 0.442892 0.635788 -0.080125
C53   C     C_3   0.551370 0.788972 0.874105 -0.084901
C54   C     C_3   0.209171 0.761536 0.627931 -0.088088
C55   C     C_3   0.238932 0.452021 0.872269 -0.092330
C56   C     C_R   0.538766 0.071414 0.855745 0.564837
C57   C     C_3   0.548701 0.786543 0.636219 -0.083066
C58   C     C_R   0.461213 0.530459 0.144676 0.646726
C59   C     C_R   0.453578 0.890678 0.360940 0.603095
C60   C     C_R   0.069521 0.538960 0.144618 0.640459
Cr1   Cr    Cr6+3 0.776430 0.541680 0.750000 1.126403
Cr2   Cr    Cr6+3 0.765250 0.223570 0.750000 1.125298
Cr3   Cr    Cr6+3 0.458320 0.234750 0.750000 1.126012
Cr4   Cr    Cr6+3 0.541680 0.776430 0.250000 1.106821
Cr5   Cr    Cr6+3 0.223570 0.765250 0.250000 1.117130
Cr6   Cr    Cr6+3 0.234750 0.458320 0.250000 1.102058
F1    F     F_    0.376661 0.134187 0.552005 -0.588752
F2    F     F_    0.898600 0.270720 0.413443 -0.636280
F3    F     F_    0.728872 0.627930 0.086810 -0.630797
F4    F     F_    0.354123 0.066629 0.414276 -0.615219
F5    F     F_    0.765870 0.617970 0.946225 -0.587635
F6    F     F_    0.851656 0.234265 0.553832 -0.590219
F7    F     F_    0.380560 0.146105 0.946177 -0.595426
F8    F     F_    0.756259 0.614844 0.550811 -0.591150
F9    F     F_    0.853608 0.235187 0.945548 -0.593921
F10   F     F_    0.902547 0.271651 0.085632 -0.645361
F11   F     F_    0.709477 0.632210 0.412365 -0.612472
F12   F     F_    0.368153 0.097156 0.086667 -0.634436
H1    H     H_    0.827070 0.891088 0.423834 0.143063
H2    H     H_    0.821739 0.994217 0.011116 0.202678
H3    H     H_    0.818194 0.882408 0.079574 0.154397
H4    H     H_    0.792272 0.023345 0.102310 0.194510
H5    H     H_    0.131756 0.180524 0.493942 0.192629
H6    H     H_    0.247227 0.216968 0.418622 0.200474
H7    H     H_    0.075512 0.189817 0.406784 0.151593
H8    H     H_    0.965793 0.772837 0.044544 0.208607
H9    H     H_    0.120481 0.919016 0.007716 0.192995
H10   H     H_    0.096890 0.900588 0.101193 0.153978
H11   H     H_    0.296986 0.769347 0.906727 0.070380
H12   H     H_    0.820488 0.995048 0.494016 0.211355
H13   H     H_    0.250822 0.864250 0.845859 0.170628
H14   H     H_    0.184979 0.683000 0.831605 0.070589
H15   H     H_    0.223996 0.524245 0.605537 0.064179
H16   H     H_    0.312931 0.492581 0.676888 0.072707
H17   H     H_    0.130709 0.377803 0.663497 0.172114
H18   H     H_    0.497796 0.815368 0.832580 0.066830
H19   H     H_    0.473098 0.705713 0.908320 0.071156
H20   H     H_    0.613162 0.749385 0.846889 0.169860
H21   H     H_    0.292533 0.761711 0.595652 0.060896
H22   H     H_    0.179183 0.684168 0.670971 0.077500
H23   H     H_    0.786008 0.022804 0.403343 0.203224
H24   H     H_    0.250468 0.864690 0.653477 0.170403
H25   H     H_    0.320365 0.504818 0.831293 0.069390
H26   H     H_    0.233398 0.530755 0.905846 0.071344
H27   H     H_    0.138120 0.390389 0.844328 0.167827
H28   H     H_    0.464883 0.699768 0.605842 0.056856
H29   H     H_    0.501146 0.821567 0.677017 0.073566
H30   H     H_    0.610196 0.747786 0.664397 0.167720
H31   H     H_    0.227594 0.193650 0.045915 0.205146
H32   H     H_    0.083014 0.201324 0.006034 0.191121
H33   H     H_    0.096587 0.196482 0.099857 0.151091
H34   H     H_    0.097622 0.908778 0.493058 0.193857
H35   H     H_    0.949141 0.759527 0.453087 0.209850
H36   H     H_    0.079250 0.894180 0.399256 0.149743
O1    O     O_R   0.916700 0.566820 0.669930 -0.438358
O2    O     O_R   0.566820 0.916700 0.330070 -0.493107
O3    O     O_R   0.083300 0.650120 0.169930 -0.479244
O4    O     O_R   0.349880 0.433180 0.330070 -0.486862
O5    O     O_R   0.649840 0.534790 0.674920 -0.477829
O6    O     O_R   0.884950 0.350160 0.825080 -0.481135
O7    O     O_R   0.465210 0.115050 0.674920 -0.479276
O8    O     O_R   0.649840 0.534790 0.825080 -0.481987
O9    O     O_R   0.884950 0.350160 0.674920 -0.482034
O10   O     O_R   0.465210 0.115050 0.825080 -0.481360
O11   O     O_R   0.534790 0.649840 0.174920 -0.448482
O12   O     O_R   0.650120 0.083300 0.830070 -0.434939
O13   O     O_R   0.350160 0.884950 0.325080 -0.427483
O14   O     O_R   0.115050 0.465210 0.174920 -0.451530
O15   O     O_R   0.534790 0.649840 0.325080 -0.437192
O16   O     O_R   0.350160 0.884950 0.174920 -0.442650
O17   O     O_R   0.115050 0.465210 0.325080 -0.466125
O18   O     O_3   0.666667 0.333333 0.750000 -0.316571
O19   O     O_3   0.333333 0.666667 0.250000 -0.370776
O20   O     O_3   0.627596 0.843670 0.450933 -0.553789
O21   O     O_3   0.228885 0.386264 0.053867 -0.548664
O22   O     O_3   0.146146 0.769630 0.445438 -0.545371
O23   O     O_R   0.433180 0.349880 0.669930 -0.439593
O24   O     O_3   0.624230 0.852809 0.053457 -0.542168
O25   O     O_3   0.213588 0.380008 0.451026 -0.556303
O26   O     O_3   0.157115 0.771042 0.054302 -0.549885
O27   O     O_3   0.096237 0.737965 0.914282 -0.486562
O28   O     O_3   0.254688 0.356149 0.590529 -0.480773
O29   O     O_3   0.643493 0.905974 0.914483 -0.478400
O30   O     O_3   0.094568 0.737372 0.585640 -0.486274
O31   O     O_3   0.262084 0.360293 0.913652 -0.487808
O32   O     O_3   0.639406 0.895368 0.591102 -0.478116
O33   O     O_R   0.916700 0.566820 0.830070 -0.433701
O34   O     O_R   0.650120 0.083300 0.669930 -0.434676
O35   O     O_R   0.433180 0.349880 0.830070 -0.434048
O36   O     O_R   0.566820 0.916700 0.169930 -0.495295
O37   O     O_R   0.083300 0.650120 0.330070 -0.482775
O38   O     O_R   0.349880 0.433180 0.169930 -0.474762

loop_
_geom_bond_atom_site_label_1
_geom_bond_atom_site_label_2
_ccdc_geom_bond_type
C47   H36   S    
C54   O30   S    
Cr4   O2    S    
C47   O22   S    
Cr1   O5    S    
C3    O16   A    
C28   C41   A    
C5    F1    S    
Cr3   O10   S    
C2    O4    A    
C44   H12   S    
C23   O7    A    
C45   O9    A    
C31   C43   A    
C55   H27   S    
Cr5   O13   S    
C14   C21   A    
C5    C30   A    
C11   F10   S    
C35   O24   S    
C29   C42   A    
C50   O26   S    
C26   C39   A    
C55   O31   S    
C5    C17   A    
C59   O13   A    
C47   H34   S    
C55   H25   S    
C11   C24   A    
C2    O15   A    
C48   H3    S    
C52   H17   S    
C1    O5    A    
C9    C13   A    
Cr3   O35   S    
Cr1   O18   S    
C51   H13   S    
C46   O21   S    
C12   O6    A    
C48   H4    S    
C59   O2    A    
C37   O26   S    
Cr1   O1    S    
C52   H16   S    
C56   O12   A    
Cr2   O6    S    
C50   H10   S    
C7    C15   A    
C57   H28   S    
C17   F4    S    
C34   O8    A    
Cr2   O34   S    
C57   O32   S    
C53   H18   S    
Cr3   O23   S    
C54   H22   S    
C15   C20   A    
C31   O20   S    
C19   C32   A    
Cr2   O9    S    
Cr3   O7    S    
C34   O35   A    
C58   O38   A    
C9    C26   A    
Cr5   O16   S    
C4    O17   A    
C51   O27   S    
C19   C58   S    
C44   O20   S    
C6    F5    S    
C13   F11   S    
C28   C45   S    
C23   C30   S    
Cr2   O18   S    
C60   O14   A    
C41   O30   S    
C24   C37   A    
C7    F6    S    
Cr2   O12   S    
C27   C56   S    
C53   H19   S    
C55   H26   S    
C52   O28   S    
C7    C28   A    
Cr4   O36   S    
Cr1   O8    S    
C53   O29   S    
Cr5   O37   S    
Cr6   O38   S    
C37   C38   A    
C49   H7    S    
C25   C38   A    
Cr6   O19   S    
C10   F9    S    
C45   O1    A    
C39   O28   S    
C27   C40   A    
C24   C60   S    
C57   H30   S    
C17   C18   A    
C60   O3    A    
Cr3   O18   S    
C50   H9    S    
C51   H14   S    
C20   C33   A    
C10   C25   A    
C57   H29   S    
C49   O25   S    
C1    C26   S    
C38   O27   S    
C30   C43   A    
C3    C21   S    
C9    F8    S    
C44   H1    S    
C56   O10   A    
C1    O23   A    
C12   O33   A    
Cr6   O17   S    
C49   H6    S    
C47   H35   S    
C4    O37   A    
Cr4   O19   S    
C3    O36   A    
C8    C14   A    
C40   O29   S    
C54   H24   S    
C36   C39   A    
C16   F3    S    
C32   O21   S    
C44   H23   S    
C21   C35   A    
C53   H20   S    
C22   C36   A    
C23   O34   A    
C48   O24   S    
C12   C25   S    
C33   C41   A    
C49   H5    S    
C52   H15   S    
C46   H32   S    
C35   C40   A    
Cr1   O33   S    
C43   O32   S    
C2    C22   S    
C51   H11   S    
C33   O22   S    
C48   H2    S    
C32   C42   A    
C16   C19   A    
C15   F2    S    
C29   C34   S    
C8    F7    S    
Cr6   O14   S    
C13   C22   A    
C14   F12   S    
C54   H21   S    
C36   O25   S    
C10   C11   A    
C50   H8    S    
C6    C16   A    
C4    C20   S    
C18   C59   S    
C6    C29   A    
Cr4   O15   S    
C58   O11   A    
Cr4   O11   S    
Cr6   O4    S    
C46   H31   S    
C8    C27   A    
Cr5   O3    S    
C18   C31   A    
C46   H33   S    
C42   O31   S    
Cr5   O19   S    
