data_mof_unit_33916.cif
_audit_creation_date              2012-10-26T20:58:24-0400
_audit_creation_method            fapswitch 2.2
_symmetry_space_group_name_H-M    P1
_symmetry_Int_Tables_number       1
_space_group_crystal_system       triclinic
_cell_length_a                    10.699159
_cell_length_b                    14.771364
_cell_length_c                    14.628266
_cell_angle_alpha                 64.807887
_cell_angle_beta                  103.437245
_cell_angle_gamma                 102.176519
_cell_volume                      2018.16313265

loop_
_atom_site_label
_atom_site_type_symbol
_atom_type_description
_atom_site_fract_x
_atom_site_fract_y
_atom_site_fract_z
_atom_type_partial_charge
C1    C     C_R   0.480045 0.119701 0.311873 0.607943
C2    C     C_R   0.510101 0.536337 0.951135 0.021990
C3    C     C_R   0.520748 0.501362 0.877757 -0.087569
C4    C     C_R   0.472666 0.499777 0.121304 -0.085862
C5    C     C_R   0.529939 0.400131 0.903641 0.068470
C6    C     C_R   0.458646 0.600405 0.094000 0.066069
C7    C     C_R   0.756585 0.310464 0.623329 0.024953
C8    C     C_R   0.240085 0.689346 0.379857 0.025108
C9    C     C_R   0.702539 0.215253 0.621374 0.185534
C10   C     C_R   0.295043 0.784299 0.381601 0.189200
C11   C     C_R   0.511351 0.281550 0.516292 0.043600
C12   C     C_R   0.519971 0.880359 0.688077 0.608787
C13   C     C_R   0.490693 0.719662 0.478712 0.057240
C14   C     C_R   0.551612 0.373473 0.530996 -0.034001
C15   C     C_R   0.447687 0.627585 0.464394 -0.013037
C16   C     C_R   0.259804 0.001300 0.499218 0.626696
C17   C     C_R   0.740035 0.998353 0.501378 0.611585
C18   C     C_R   0.682125 0.391033 0.573222 -0.007912
C19   C     C_R   0.315650 0.609574 0.425999 -0.002824
C20   C     C_R   0.470336 0.450696 0.500670 0.021155
C21   C     C_R   0.528496 0.550710 0.491955 0.031977
C22   C     C_R   0.665416 0.570428 0.508144 0.051818
C23   C     C_R   0.438147 0.282987 0.163203 0.005335
C24   C     C_R   0.333349 0.431787 0.481346 0.011638
C25   C     C_R   0.738408 0.490019 0.558500 -0.037728
C26   C     C_R   0.259808 0.511428 0.437581 -0.057152
C27   C     C_3   0.019219 0.037760 0.403795 0.024938
C28   C     C_3   0.979917 0.961633 0.597684 0.008777
C29   C     C_3   0.967447 0.093110 0.452755 0.032559
C30   C     C_3   0.031689 0.906176 0.548801 0.014564
C31   C     C_3   0.876341 0.997097 0.502053 -0.047212
C32   C     C_3   0.123252 0.002203 0.499417 -0.029149
C33   C     C_3   0.926770 0.941118 0.452600 -0.135679
C34   C     C_R   0.559184 0.717530 0.837510 0.006420
C35   C     C_3   0.072669 0.058350 0.549055 -0.107403
C36   C     C_R   0.482834 0.187504 0.203226 -0.032794
C37   C     C_R   0.514642 0.813002 0.796333 -0.017830
C38   C     C_R   0.547480 0.230639 0.039409 -0.077751
C39   C     C_R   0.442174 0.769713 0.957293 -0.080211
C40   C     C_R   0.539764 0.162180 0.140124 0.030408
C41   C     C_R   0.454093 0.838392 0.857404 0.028802
C42   C     C_2   0.926344 0.197054 0.400166 0.659560
C43   C     C_2   0.068268 0.800821 0.601663 0.646044
C44   C     C_2   0.226380 0.871754 0.312794 0.651961
C45   C     C_R   0.479518 0.359390 0.072630 0.005553
C46   C     C_2   0.770550 0.127534 0.690541 0.651386
C47   C     C_2   0.886670 0.324677 0.682930 0.572613
C48   C     C_2   0.107752 0.675116 0.323368 0.573162
C49   C     C_2   0.735967 0.671496 0.457233 0.562069
C50   C     C_2   0.260221 0.329757 0.513681 0.573551
C51   C     C_2   0.037120 0.080165 0.293988 0.636327
C52   C     C_2   0.960087 0.918013 0.707142 0.633480
C53   C     C_2   0.547237 0.371302 0.821975 0.585835
C54   C     C_2   0.431614 0.628167 0.173368 0.586612
C55   C     C_2   0.673290 0.704110 0.803718 0.608818
C56   C     C_R   0.515120 0.641260 0.927043 -0.005751
C57   C     C_2   0.326311 0.296421 0.199555 0.569697
C58   C     C_2   0.399327 0.934508 0.820504 0.633624
C59   C     C_2   0.595184 0.066496 0.175845 0.634562
C60   C     C_R   0.518092 0.329461 0.004283 -0.006955
C61   C     C_R   0.472711 0.671069 0.993756 -0.005675
C62   C     C_R   0.484634 0.464420 0.048529 0.031971
Cu1   Cu    Cu3+1 0.465750 0.918270 0.475680 1.110713
Cu2   Cu    Cu3+1 0.534250 0.081730 0.524320 1.121480
H1    H     H_    0.894342 0.319103 0.268811 0.338216
H2    H     H_    0.174552 0.350264 0.369207 0.334005
H3    H     H_    0.158438 0.119207 0.192979 0.356446
H4    H     H_    0.041524 0.866272 0.855895 0.360457
H5    H     H_    0.865733 0.894914 0.412114 0.195638
H6    H     H_    0.133006 0.105112 0.589605 0.242926
H7    H     H_    0.502534 0.270485 0.756313 0.362904
H8    H     H_    0.457953 0.730913 0.235099 0.369220
H9    H     H_    0.763131 0.722134 0.688947 0.366194
H10   H     H_    0.157757 0.354696 0.160405 0.370351
H11   H     H_    0.375991 0.049801 0.851887 0.375631
H12   H     H_    0.083417 0.674458 0.730878 0.351558
H13   H     H_    0.616408 0.951086 0.143769 0.367760
H14   H     H_    0.588846 0.208981 0.992003 0.206542
H15   H     H_    0.397118 0.791356 0.002633 0.204348
H16   H     H_    0.520079 0.552509 0.798454 0.149403
H17   H     H_    0.473992 0.449376 0.200839 0.146069
H18   H     H_    0.842529 0.506525 0.576686 0.182326
H19   H     H_    0.155764 0.494500 0.419003 0.160259
H20   H     H_    0.583530 0.730356 0.523523 0.174005
H21   H     H_    0.423910 0.272125 0.465600 0.193801
H22   H     H_    0.051785 0.921291 0.259622 0.348721
H23   H     H_    0.943670 0.075716 0.743274 0.357198
H24   H     H_    0.991153 0.360784 0.799223 0.359820
H25   H     H_    0.997849 0.644658 0.205266 0.355595
H26   H     H_    0.744595 0.798847 0.328288 0.358043
N1    N     N_R   0.585750 0.204560 0.560800 -0.281457
N2    N     N_R   0.414250 0.795440 0.439200 -0.277844
O1    O     O_R   0.454850 0.022100 0.338110 -0.446091
O2    O     O_R   0.923244 0.250090 0.294775 -0.657757
O3    O     O_2   0.107627 0.764670 0.554141 -0.428571
O4    O     O_R   0.056056 0.744056 0.704383 -0.651860
O5    O     O_2   0.272579 0.935761 0.238728 -0.481335
O6    O     O_R   0.100790 0.873153 0.323961 -0.632101
O7    O     O_2   0.723871 0.063801 0.764513 -0.464502
O8    O     O_R   0.895614 0.124979 0.679259 -0.623281
O9    O     O_2   0.983444 0.316540 0.657489 -0.424580
O10   O     O_R   0.897913 0.351568 0.765537 -0.648925
O11   O     O_2   0.013122 0.678130 0.354947 -0.429624
O12   O     O_R   0.545150 0.977900 0.661890 -0.450233
O13   O     O_R   0.092209 0.654424 0.236343 -0.661762
O14   O     O_2   0.841534 0.697352 0.498929 -0.479731
O15   O     O_R   0.684500 0.734809 0.358750 -0.674806
O16   O     O_2   0.274549 0.272317 0.603805 -0.437472
O17   O     O_R   0.175771 0.297868 0.441910 -0.652727
O18   O     O_2   0.943210 0.100630 0.226256 -0.444525
O19   O     O_R   0.159914 0.093504 0.269429 -0.658024
O20   O     O_2   0.851494 0.903741 0.727724 -0.483549
O21   O     O_R   0.066702 0.894998 0.785278 -0.626495
O22   O     O_2   0.615165 0.428472 0.758307 -0.493616
O23   O     O_R   0.512700 0.160150 0.379180 -0.487876
O24   O     O_R   0.482485 0.281087 0.815226 -0.663836
O25   O     O_2   0.361774 0.569068 0.234683 -0.507269
O26   O     O_R   0.487957 0.719987 0.180144 -0.660099
O27   O     O_2   0.760682 0.661415 0.868435 -0.457188
O28   O     O_R   0.681325 0.737545 0.700245 -0.677235
O29   O     O_2   0.319193 0.262558 0.290480 -0.493169
O30   O     O_R   0.228361 0.349785 0.127552 -0.662150
O31   O     O_2   0.332658 0.966604 0.736140 -0.485362
O32   O     O_R   0.419124 0.985943 0.884831 -0.625983
O33   O     O_2   0.664426 0.035033 0.259144 -0.495572
O34   O     O_R   0.487300 0.839850 0.620820 -0.480223
O35   O     O_R   0.572793 0.014685 0.111628 -0.625077
O36   O     O_R   0.287930 0.931000 0.479440 -0.473007
O37   O     O_R   0.712070 0.069000 0.520560 -0.474894
O38   O     O_R   0.345780 0.069050 0.520520 -0.466441
O39   O     O_R   0.654220 0.930950 0.479480 -0.483207
O40   O     O_2   0.896871 0.235372 0.450285 -0.440070

loop_
_geom_bond_atom_site_label_1
_geom_bond_atom_site_label_2
_ccdc_geom_bond_type
C38   C40   A    
C46   O7    D    
C45   C60   A    
C34   C56   A    
C26   H19   S    
C23   C45   A    
C29   C42   S    
C17   O39   A    
C34   C37   A    
C14   C18   A    
C9    N1    A    
C39   C41   A    
C55   O27   D    
C52   O21   S    
C27   C33   S    
C15   C19   A    
C13   H20   S    
C1    O1    A    
C58   O31   D    
C47   O9    D    
C6    C61   A    
C5    C53   S    
C24   C26   A    
H26   O15   S    
C12   O12   A    
C9    C46   S    
C11   C14   A    
C27   C29   S    
C52   O20   D    
C59   O35   S    
C4    C62   A    
C45   C62   A    
Cu2   O12   S    
C12   C37   S    
C19   C26   A    
C57   O30   S    
C44   O6    S    
C4    H17   S    
C20   C24   A    
C35   H6    S    
C22   C25   A    
Cu1   N2    S    
C43   O3    D    
C31   C33   S    
Cu1   O39   S    
C16   O38   A    
Cu1   O36   S    
C30   C33   S    
C53   O24   S    
C33   H5    S    
H4    O21   S    
C10   N2    A    
C34   C55   S    
C40   C59   S    
C21   C22   A    
C50   O16   D    
C18   C25   A    
C6    C54   S    
C3    H16   S    
C27   C51   S    
C55   O28   S    
C24   C50   S    
C39   C61   A    
C8    C19   A    
C10   C44   S    
H11   O32   S    
C32   C35   S    
C14   C20   A    
C36   C40   A    
C28   C35   S    
C49   O15   S    
C38   H14   S    
C48   O11   D    
C17   O37   A    
C50   O17   S    
C39   H15   S    
C8    C48   S    
C44   O5    D    
C48   O13   S    
C7    C18   A    
C23   C57   S    
C43   O4    S    
H9    O28   S    
Cu2   O37   S    
C16   O36   A    
C22   C49   S    
C38   C60   A    
H3    O19   S    
H1    O2    S    
H10   O30   S    
Cu2   O38   S    
C51   O18   D    
C13   C15   A    
C13   N2    A    
C25   H18   S    
C17   C31   S    
C30   C43   S    
C4    C6    A    
C59   O33   D    
H25   O13   S    
C53   O22   D    
H23   O8    S    
C7    C9    A    
C46   O8    S    
C51   O19   S    
C5    C60   A    
C27   C32   S    
C42   O2    S    
C28   C31   S    
C3    C5    A    
H13   O35   S    
C41   C58   S    
H24   O10   S    
C49   O14   D    
C16   C32   S    
C29   C35   S    
C58   O32   S    
C54   O26   S    
C2    C3    A    
C29   C31   S    
C2    C56   A    
H12   O4    S    
C30   C32   S    
Cu2   O23   S    
C28   C52   S    
C11   H21   S    
C28   C30   S    
H7    O24   S    
H2    O17   S    
C37   C41   A    
H22   O6    S    
Cu1   O34   S    
C57   O29   D    
Cu1   Cu2   S    
C11   N1    A    
C15   C21   A    
C12   O34   A    
C20   C21   A    
C8    C10   A    
C23   C36   A    
C54   O25   D    
H8    O26   S    
C47   O10   S    
C56   C61   A    
C42   O40   D    
C1    O23   A    
Cu2   N1    S    
Cu1   O1    S    
C2    C62   A    
C1    C36   S    
C7    C47   S    
