data_mof_unit_59037.cif
_audit_creation_date              2012-12-11T15:00:42-0500
_audit_creation_method            fapswitch 2.2
_symmetry_space_group_name_H-M    P1
_symmetry_Int_Tables_number       1
_space_group_crystal_system       triclinic
_cell_length_a                    13.367448
_cell_length_b                    13.32758
_cell_length_c                    26.724347
_cell_angle_alpha                 97.087847
_cell_angle_beta                  97.227147
_cell_angle_gamma                 61.839588
_cell_volume                      4153.00494621

loop_
_atom_site_label
_atom_site_type_symbol
_atom_type_description
_atom_site_fract_x
_atom_site_fract_y
_atom_site_fract_z
_atom_type_partial_charge
C1    C     C_R   0.380311 0.721520 0.434786 0.557496
C2    C     C_1   0.314059 0.337729 0.269645 0.163407
C3    C     C_1   0.329277 0.343848 0.322878 0.088319
C4    C     C_1   0.353795 0.352646 0.367558 0.077280
C5    C     C_3   0.718770 0.301651 0.259920 0.338852
C6    C     C_3   0.929017 0.256378 0.279099 0.227267
C7    C     C_3   0.933294 0.242355 0.221189 -0.191093
C8    C     C_1   0.880640 0.301282 0.099222 0.117019
C9    C     C_3   0.806238 0.340077 0.292212 -0.105472
C10   C     C_3   0.718564 0.323261 0.202958 0.243484
C11   C     C_3   0.826427 0.335721 0.194509 -0.111894
C12   C     C_R   0.393422 0.372303 0.418301 0.549680
C13   C     C_3   0.812637 0.453929 0.219549 0.471512
C14   C     C_3   0.780066 0.461862 0.275408 0.060699
C15   C     C_1   0.845996 0.320231 0.140492 0.153717
C16   C     C_1   0.796421 0.346048 0.346856 0.151100
C17   C     C_1   0.773445 0.364040 0.390136 0.107600
C18   C     C_3   0.484656 0.741321 0.271234 0.308655
C19   C     C_3   0.307599 0.931275 0.280502 -0.272345
C20   C     C_3   0.329742 0.938049 0.225987 0.107469
C21   C     C_1   0.315564 0.874351 0.097021 0.124027
C22   C     C_3   0.363131 0.803657 0.291143 -0.101587
C23   C     C_R   0.725030 0.398851 0.437670 0.553212
C24   C     C_3   0.477376 0.738417 0.211978 0.262261
C25   C     C_3   0.353598 0.823168 0.193018 -0.058097
C26   C     C_3   0.276956 0.768130 0.203957 0.491414
C27   C     C_3   0.291140 0.749554 0.261418 0.236169
C28   C     C_1   0.341689 0.840744 0.138826 0.164612
C29   C     C_1   0.365834 0.790070 0.345105 0.065060
C30   C     C_1   0.368061 0.767016 0.387460 0.080462
C31   C     C_3   0.404450 0.384927 0.729843 0.326570
C32   C     C_3   0.376178 0.200045 0.705607 0.506911
C33   C     C_3   0.373562 0.195117 0.764560 0.163347
C34   C     C_R   0.381698 0.725165 0.575195 0.561027
C35   C     C_1   0.292955 0.304076 0.886191 0.068687
C36   C     C_3   0.329293 0.332914 0.694104 -0.059559
C37   C     C_3   0.373045 0.392764 0.785074 -0.195632
C38   C     C_3   0.311985 0.319929 0.790142 -0.155298
C39   C     C_3   0.190573 0.378101 0.763019 -0.257829
C40   C     C_3   0.193153 0.400101 0.706787 0.359574
C41   C     C_1   0.300984 0.317027 0.843667 0.008916
C42   C     C_1   0.341238 0.342851 0.641690 0.169971
C43   C     C_1   0.360433 0.355656 0.601048 0.167131
C44   C     C_1   0.895336 0.290578 0.863467 0.025209
C45   C     C_R   0.395718 0.375472 0.557095 0.564353
C46   C     C_1   0.872518 0.300651 0.818745 -0.001579
C47   C     C_1   0.853269 0.313867 0.766347 0.074282
C48   C     C_1   0.835328 0.328154 0.721849 0.131247
C49   C     C_1   0.808018 0.349286 0.670281 0.101619
C50   C     C_1   0.776183 0.371688 0.627025 0.067238
C51   C     C_1   0.289858 0.898179 0.862043 0.033124
C52   C     C_1   0.308362 0.874337 0.818085 0.038033
C53   C     C_1   0.325707 0.854593 0.766109 0.111391
C54   C     C_1   0.338499 0.837267 0.721519 0.115617
C55   C     C_1   0.352604 0.810678 0.669379 0.067484
C56   C     C_R   0.724445 0.403980 0.577461 0.548429
C57   C     C_1   0.365220 0.778313 0.625465 0.074718
C58   C     C_R   0.939667 0.279091 0.054999 0.555937
C59   C     C_R   0.287834 0.271629 0.073165 0.541209
C60   C     C_R   0.272266 0.934555 0.052105 0.544978
C61   C     C_R   0.938007 0.278200 0.915390 0.545425
C62   C     C_R   0.280895 0.273031 0.932991 0.552789
C63   C     C_R   0.261642 0.941951 0.912791 0.541787
C64   C     C_1   0.302437 0.303822 0.125631 0.093842
C65   C     C_1   0.306694 0.321392 0.170945 0.132286
C66   C     C_1   0.308724 0.332290 0.224152 0.192394
Cr1   Cr    Cr6+3 0.585490 0.589720 0.509170 1.103769
Cr2   Cr    Cr6+3 0.329280 0.580760 0.494920 1.122301
Cr3   Cr    Cr6+3 0.585250 0.329540 0.495950 1.110391
Cr4   Cr    Cr6+3 0.077160 0.074530 0.981700 1.105076
Cr5   Cr    Cr6+3 0.079310 0.333830 0.996170 1.102277
Cr6   Cr    Cr6+3 0.334250 0.081620 0.994710 1.102129
H1    H     H_    0.642555 0.404242 0.193179 0.190354
H2    H     H_    0.215327 0.973955 0.285918 0.208792
H3    H     H_    0.345787 0.976715 0.307527 0.197716
H4    H     H_    0.410272 0.944982 0.230348 0.255587
H5    H     H_    0.207754 0.786891 0.277930 0.142895
H6    H     H_    0.527345 0.654169 0.282441 0.213586
H7    H     H_    0.499865 0.650211 0.195629 0.205982
H8    H     H_    0.449073 0.367127 0.812599 0.212402
H9    H     H_    0.986874 0.291521 0.296381 0.231177
H10   H     H_    0.312914 0.160801 0.767203 0.182727
H11   H     H_    0.138759 0.458037 0.785899 0.147452
H12   H     H_    0.316113 0.482317 0.797771 0.169284
H13   H     H_    0.147402 0.325485 0.765202 0.170450
H14   H     H_    0.943834 0.158018 0.205576 0.301705
H15   H     H_    0.008340 0.248065 0.212248 0.230435
H16   H     H_    0.687489 0.510780 0.271639 0.165328
O1    O     O_R   0.700490 0.499650 0.456540 -0.471987
O2    O     O_R   0.339040 0.474950 0.540330 -0.482906
O3    O     O_R   0.494500 0.302900 0.543920 -0.475222
O4    O     O_R   0.682200 0.343540 0.552130 -0.474759
O5    O     O_3   0.500010 0.500010 0.500010 -0.286062
O6    O     O_R   0.170650 0.959160 0.034150 -0.461640
O7    O     O_R   0.983870 0.178140 0.033160 -0.480380
O8    O     O_R   0.966160 0.354510 0.046020 -0.464857
O9    O     O_R   0.187830 0.326650 0.051390 -0.479821
O10   O     O_R   0.362200 0.173970 0.055450 -0.474782
O11   O     O_R   0.326660 0.983110 0.039170 -0.495871
O12   O     O_R   0.479270 0.682700 0.457880 -0.483474
O13   O     O_R   0.165170 0.960730 0.925500 -0.500543
O14   O     O_R   0.978790 0.179600 0.932440 -0.491984
O15   O     O_R   0.960680 0.356080 0.937360 -0.498623
O16   O     O_R   0.182750 0.328100 0.950670 -0.506907
O17   O     O_R   0.356720 0.175530 0.946790 -0.469579
O18   O     O_R   0.321590 0.984560 0.938450 -0.487884
O19   O     O_3   0.163570 0.163330 0.990860 -0.294982
O20   O     O_R   0.304400 0.696100 0.445190 -0.489742
O21   O     O_R   0.337880 0.472540 0.439600 -0.487916
O22   O     O_R   0.493250 0.300300 0.435260 -0.494587
O23   O     O_R   0.681040 0.341130 0.451400 -0.507936
O24   O     O_R   0.701750 0.502250 0.565200 -0.498125
O25   O     O_R   0.480430 0.685110 0.558610 -0.493813
O26   O     O_R   0.305650 0.698700 0.553850 -0.471919
F1    F     F_    0.709467 0.239416 0.169276 -0.545549
S1    S     S_3+6 0.576339 0.382585 0.282871 0.038055
O27   O     O_2   0.558524 0.489432 0.314833 -0.329805
O28   O     O_2   0.487836 0.412365 0.238997 -0.189262
O29   O     O_3   0.555734 0.302285 0.320040 -0.473477
H17   H     H_    0.600913 0.302794 0.352270 0.357009
S2    S     S_3+6 0.935434 0.477401 0.213994 0.128136
O30   O     O_2   0.992013 0.419185 0.166128 -0.284190
O31   O     O_2   0.894856 0.603135 0.212087 -0.102109
O32   O     O_3   0.034434 0.428650 0.262568 -0.527869
H18   H     H_    0.065958 0.483386 0.269243 0.379739
F2    F     F_    0.555833 0.766843 0.196833 -0.496841
F3    F     F_    0.549139 0.794020 0.293232 -0.531079
S3    S     S_3+6 0.238025 0.070481 0.199025 -0.007799
O33   O     O_2   0.135823 0.068667 0.169454 -0.271179
O34   O     O_2   0.203145 0.164794 0.240433 -0.282717
O35   O     O_3   0.313323 0.091974 0.159652 -0.522318
H19   H     H_    0.261315 0.118504 0.128912 0.351620
F4    F     F_    0.341394 0.634107 0.268506 -0.541670
S4    S     S_3+6 0.752679 0.151791 0.263782 0.185251
O36   O     O_2   0.797196 0.115894 0.316574 -0.221668
O37   O     O_2   0.646605 0.138533 0.249977 -0.150449
O38   O     O_3   0.846280 0.061783 0.222938 -0.410569
H20   H     H_    0.842249 0.989264 0.222220 0.400220
F5    F     F_    0.314255 0.662699 0.176686 -0.556050
S5    S     S_3+6 0.127571 0.845436 0.185077 0.118183
O39   O     O_2   0.106762 0.879490 0.131747 -0.188511
O40   O     O_2   0.073072 0.770420 0.188293 -0.195407
O41   O     O_3   0.068156 0.961504 0.224851 -0.484542
H21   H     H_    0.047702 0.936216 0.253539 0.370569
S6    S     S_3+6 0.559646 0.301886 0.731436 0.062864
O42   O     O_2   0.597604 0.270666 0.678583 -0.227637
O43   O     O_2   0.608816 0.376280 0.758737 -0.272444
O44   O     O_3   0.617495 0.186328 0.764264 -0.435561
H22   H     H_    0.700497 0.160923 0.767076 0.382638
F6    F     F_    0.295875 0.167274 0.684765 -0.562763
S7    S     S_3+6 0.492460 0.085885 0.670985 0.176805
O45   O     O_2   0.610551 0.070245 0.685066 -0.166235
O46   O     O_2   0.492580 0.975580 0.678106 -0.211671
O47   O     O_3   0.463293 0.105580 0.608831 -0.495771
H23   H     H_    0.517734 0.033213 0.591725 0.368821
S8    S     S_3+6 0.492227 0.092040 0.803020 0.071862
O48   O     O_2   0.584898 0.000793 0.772872 -0.149876
O49   O     O_2   0.542432 0.151049 0.841745 -0.249899
O50   O     O_3   0.439311 0.027885 0.834360 -0.553805
H24   H     H_    0.502848 0.980787 0.858215 0.378352
S9    S     S_3+6 0.110507 0.555567 0.704655 0.107525
O51   O     O_2   0.098473 0.589311 0.651710 -0.159338
O52   O     O_2   0.992466 0.591429 0.719289 -0.223892
O53   O     O_3   0.159907 0.631031 0.745725 -0.461111
H25   H     H_    0.120954 0.646001 0.777025 0.339887
S10   S     S_3+6 0.103059 0.350129 0.662628 0.108194
O54   O     O_2   0.160766 0.292723 0.614796 -0.231194
O55   O     O_2   0.080849 0.266510 0.686267 -0.255584
O56   O     O_3   0.974860 0.456813 0.645076 -0.441194
H26   H     H_    0.954763 0.433097 0.610294 0.356951
S11   S     S_3+6 0.387658 0.522651 0.711106 0.078418
O57   O     O_2   0.292700 0.578645 0.671864 -0.212278
O58   O     O_2   0.371932 0.603735 0.757363 -0.287028
O59   O     O_3   0.503386 0.505779 0.684638 -0.471035
H27   H     H_    0.512353 0.574758 0.696293 0.355328
F7    F     F_    0.969645 0.151485 0.298610 -0.573901
S12   S     S_3+6 0.814713 0.552633 0.323157 0.087353
O60   O     O_2   0.930665 0.486804 0.349385 -0.283030
O61   O     O_2   0.808711 0.653291 0.300667 -0.102370
O62   O     O_3   0.717416 0.603246 0.366216 -0.489732
H28   H     H_    0.740197 0.651247 0.391397 0.383354
F8    F     F_    0.721794 0.538579 0.193404 -0.578153

loop_
_geom_bond_atom_site_label_1
_geom_bond_atom_site_label_2
_ccdc_geom_bond_type
C24   F2    S    
S11   O57   D    
C22   C29   S    
Cr5   O19   S    
C11   C13   S    
O56   H26   S    
C36   C42   S    
C19   C20   S    
S5    O41   S    
C63   O13   A    
C60   O11   A    
S3    O33   D    
S6    O44   S    
C6    C9    S    
C12   O22   A    
S6    O42   D    
C33   S8    S    
C62   O17   A    
Cr6   O10   S    
C53   C54   T    
C52   C53   S    
C34   O25   A    
C7    C11   S    
S11   O58   D    
C59   C64   S    
C17   C23   S    
C6    F7    S    
C18   C24   S    
C32   C36   S    
O53   H25   S    
Cr4   O6    S    
C9    C16   S    
S5    O40   D    
C20   S3    S    
C26   S5    S    
Cr4   O19   S    
C38   C39   S    
C10   H1    S    
C7    H14   S    
C20   C25   S    
O41   H21   S    
Cr1   O1    S    
C13   S2    S    
S1    O27   D    
C20   H4    S    
S7    O47   S    
C49   C50   T    
C58   O8    A    
O59   H27   S    
S2    O32   S    
C8    C58   S    
C54   C55   S    
C11   C15   S    
C7    H15   S    
C47   C48   T    
C16   C17   T    
S12   O61   D    
Cr5   O16   S    
C34   C57   S    
Cr2   O2    S    
S7    O45   D    
C23   O1    A    
C37   H12   S    
C4    C12   S    
Cr3   O4    S    
C33   H10   S    
C40   S10   S    
S7    O46   D    
C6    H9    S    
C13   C14   S    
S10   O55   D    
S4    O38   S    
C35   C41   T    
C1    O12   A    
C5    C10   S    
C12   O21   A    
S11   O59   S    
C44   C46   T    
S9    O51   D    
C62   O16   A    
C19   H2    S    
S5    O39   D    
C5    S4    S    
C37   H8    S    
Cr4   O13   S    
S6    O43   D    
C51   C52   T    
C27   F4    S    
C36   C40   S    
C19   C22   S    
C51   C63   S    
C24   C25   S    
C21   C60   S    
C26   F5    S    
C39   C40   S    
C9    C14   S    
S9    O52   D    
Cr5   O8    S    
C14   H16   S    
C27   H5    S    
C25   C26   S    
C50   C56   S    
C31   C37   S    
C25   C28   S    
C58   O7    A    
C5    C9    S    
C37   C38   S    
C18   F3    S    
Cr5   O9    S    
Cr3   O22   S    
C24   H7    S    
O50   H24   S    
Cr6   O19   S    
C18   H6    S    
S12   O62   S    
O47   H23   S    
O44   H22   S    
C63   O18   A    
C45   O2    A    
C43   C45   S    
S2    O30   D    
C6    C7    S    
Cr1   O12   S    
C38   C41   S    
C48   C49   S    
C21   C28   T    
Cr6   O18   S    
S12   O60   D    
C8    C15   T    
C22   C27   S    
C55   C57   T    
C5    S1    S    
C26   C27   S    
S10   O54   D    
C59   O9    A    
C42   C43   T    
C39   H13   S    
O35   H19   S    
S3    O35   S    
S9    O53   S    
O62   H28   S    
Cr5   O15   S    
C46   C47   S    
S8    O48   D    
C61   O15   A    
C18   C22   S    
S8    O50   S    
Cr2   O5    S    
C2    C66   T    
S3    O34   D    
S4    O37   D    
O29   H17   S    
Cr4   O14   S    
S4    O36   D    
C44   C61   S    
C34   O26   A    
C23   O23   A    
O38   H20   S    
Cr3   O5    S    
C33   C38   S    
S1    O29   S    
C32   C33   S    
C19   H3    S    
Cr4   O7    S    
Cr1   O25   S    
C39   H11   S    
C40   S9    S    
C64   C65   T    
Cr3   O23   S    
C32   S7    S    
C31   S11   S    
S8    O49   D    
C1    C30   S    
S1    O28   D    
C61   O14   A    
C35   C62   S    
Cr2   O21   S    
C65   C66   S    
C45   O3    A    
S2    O31   D    
C14   S12   S    
C10   C11   S    
C1    O20   A    
C29   C30   T    
C31   S6    S    
Cr1   O24   S    
C56   O4    A    
C32   F6    S    
Cr6   O17   S    
S10   O56   S    
C13   F8    S    
Cr1   O5    S    
C59   O10   A    
C31   C36   S    
C2    C3    S    
Cr2   O20   S    
Cr3   O3    S    
C56   O24   A    
C10   F1    S    
C3    C4    T    
Cr2   O26   S    
O32   H18   S    
Cr6   O11   S    
C60   O6    A    
