data_mof_unit_52063.cif
_audit_creation_date              2013-03-05T16:43:29-0500
_audit_creation_method            fapswitch 2.2
_symmetry_space_group_name_H-M    P1
_symmetry_Int_Tables_number       1
_space_group_crystal_system       triclinic
_cell_length_a                    10.50719
_cell_length_b                    10.656723
_cell_length_c                    9.909327
_cell_angle_alpha                 90.298548
_cell_angle_beta                  90.369827
_cell_angle_gamma                 90.978776
_cell_volume                      1109.36856094

loop_
_atom_site_label
_atom_site_type_symbol
_atom_site_description
_atom_site_fract_x
_atom_site_fract_y
_atom_site_fract_z
_atom_type_partial_charge
O1    O     O_R   0.500020 0.316790 0.614690 -0.625455
O2    O     O_R   0.500000 0.316760 0.385350 -0.569125
C1    C     C_R   0.505745 0.260536 0.499991 0.954258
O3    O     O_R   0.313960 0.499990 0.614650 -0.634885
O4    O     O_R   0.313940 0.499950 0.385310 -0.614215
C2    C     C_R   0.257525 0.498770 0.499698 0.906479
Zn1   Zn    Zn3+2 0.500010 0.500020 0.653130 0.951941
Zn2   Zn    Zn3+2 0.499990 0.499980 0.346870 0.994727
O5    O     O_R   0.500000 0.683240 0.614650 -0.617320
O6    O     O_R   0.499980 0.683210 0.385310 -0.631647
O7    O     O_R   0.686060 0.500050 0.614690 -0.632471
O8    O     O_R   0.686040 0.500010 0.385350 -0.604999
C3    C     C_R   0.500515 0.739618 0.500092 0.893035
C4    C     C_R   0.742446 0.499846 0.500090 0.920474
C5    C     C_3   0.037787 0.383745 0.476624 0.367163
C6    C     C_3   0.956390 0.457589 0.377394 -0.157325
H1    H     H_    0.918300 0.422918 0.279004 0.192950
C7    C     C_3   0.877213 0.498308 0.499242 -0.027659
C8    C     C_3   0.956598 0.421119 0.597603 -0.212402
C9    C     C_3   0.042557 0.538897 0.620339 -0.219034
C10   C     C_3   0.960104 0.615951 0.522106 -0.164096
C11   C     C_3   0.042350 0.575196 0.401232 -0.226103
C12   C     C_3   0.122614 0.498369 0.499364 -0.086014
H2    H     H_    0.917752 0.357774 0.676494 0.170788
H3    H     H_    0.082267 0.571526 0.718681 0.148764
H4    H     H_    0.923021 0.711735 0.538017 0.157809
H5    H     H_    0.081375 0.638005 0.321957 0.165242
C13   C     C_R   0.467947 0.064297 0.610734 0.067073
C14   C     C_R   0.521937 0.128950 0.503111 -0.215499
C15   C     C_R   0.590768 0.063992 0.403304 0.309606
C16   C     C_R   0.583201 0.933410 0.402526 -0.279277
H6    H     H_    0.631889 0.880622 0.325225 0.193425
C17   C     C_R   0.511427 0.871445 0.501225 -0.137399
C18   C     C_R   0.461691 0.936847 0.608968 0.121701
C19   C     C_3   0.330620 0.932396 0.666352 -0.469193
C20   C     C_3   0.338464 0.074539 0.670906 -0.416774
H7    H     H_    0.258287 0.895084 0.593408 0.214746
H8    H     H_    0.327641 0.889115 0.768012 0.195227
H9    H     H_    0.269912 0.120578 0.602328 0.254982
H10   H     H_    0.342653 0.112847 0.775340 0.196273
C21   C     C_R   0.430753 0.411946 0.069909 0.249691
N1    N     N_R   0.499140 0.499140 0.142800 -0.116405
C22   C     C_R   0.576189 0.579690 0.074408 -0.152523
H11   H     H_    0.634883 0.646192 0.131018 0.158498
C23   C     C_R   0.576200 0.581097 0.931118 0.001537
N2    N     N_R   0.499140 0.499180 0.857150 -0.129940
C24   C     C_R   0.430578 0.412070 0.927602 0.204766
C25   C     C_3   0.289591 0.394099 0.921499 -0.529086
C26   C     C_3   0.290054 0.392547 0.074569 -0.466081
H12   H     H_    0.240517 0.476677 0.878894 0.215230
H13   H     H_    0.260840 0.302568 0.875662 0.210670
H14   H     H_    0.240030 0.473358 0.120178 0.215611
H15   H     H_    0.263459 0.299347 0.116464 0.251792
C27   C     C_R   0.653713 0.680579 0.868214 0.174630
C28   C     C_R   0.782891 0.660887 0.841452 -0.127922
C29   C     C_R   0.862828 0.762240 0.807809 -0.181750
C30   C     C_R   0.814610 0.883338 0.800439 -0.090319
C31   C     C_R   0.687064 0.904030 0.830465 -0.096893
C32   C     C_R   0.607220 0.803327 0.865727 -0.130901
H16   H     H_    0.822458 0.568120 0.851086 0.139862
H17   H     H_    0.962877 0.747751 0.789966 0.138535
H18   H     H_    0.876767 0.961476 0.774511 0.162956
H19   H     H_    0.650694 0.998436 0.829113 0.156433
H20   H     H_    0.510069 0.821237 0.894879 0.126162
N3    N     N_R   0.082397 0.257213 0.451492 0.194983
O9    O     O_R   0.038089 0.163847 0.522118 -0.414206
O10   O     O_R   0.158721 0.235669 0.351601 -0.426720
N4    N     N_R   0.666667 0.127748 0.303876 0.224985
O11   O     O_R   0.739032 0.222811 0.338958 -0.396389
O12   O     O_R   0.679335 0.079297 0.183992 -0.402980

loop_
_geom_bond_atom_site_label_1
_geom_bond_atom_site_label_2
_geom_bond_distance
_ccdc_geom_bond_type
O4    Zn2   1.994034 S    
Zn1   O7    1.994034 S    
C28   C29   1.399838 A    
C16   C17   1.400211 A    
C3    C17   1.407542 S    
C14   C15   1.414082 A    
C7    C10   1.529321 S    
C21   N1    1.365630 A    
C4    C7    1.416481 S    
C8    C9    1.548398 S    
C9    C12   1.533371 S    
Zn2   O8    1.989282 S    
C26   H14   1.112039 S    
C5    C12   1.514798 S    
C17   C18   1.382263 A    
C32   H20   1.082481 S    
C13   C18   1.358686 A    
C30   H18   1.082477 S    
C27   C32   1.404411 A    
C6    C7    1.535617 S    
O1    Zn1   1.987491 S    
C28   H16   1.083412 S    
C29   C30   1.396516 A    
C5    C8    1.530804 S    
C25   H12   1.111344 S    
C22   C23   1.420064 A    
C1    C14   1.415908 S    
C30   C31   1.395603 A    
O4    C2    1.282554 A    
O3    Zn1   1.989281 S    
C26   H15   1.110493 S    
C2    C12   1.417459 S    
C10   C11   1.546240 S    
C25   C26   1.516981 S    
C19   H7    1.112560 S    
C10   H4    1.109641 S    
Zn2   N1    2.022131 S    
C23   C27   1.469604 S    
C8    H2    1.110694 S    
O2    C1    1.288648 A    
C11   H5    1.110637 S    
C20   H9    1.109307 S    
C22   H11   1.083373 S    
C21   C24   1.410168 A    
C15   C16   1.392463 A    
C18   C19   1.493451 S    
O7    C4    1.284258 A    
O2    Zn2   1.991359 S    
C25   H13   1.110209 S    
O3    C2    1.280693 A    
C9    H3    1.109469 S    
C5    C6    1.528989 S    
C5    N3    1.455871 S    
Zn1   N2    2.021847 S    
C23   N2    1.384356 A    
C20   H10   1.110833 S    
C19   H8    1.110534 S    
C7    C8    1.530915 S    
C9    C10   1.547302 S    
C13   C20   1.494417 S    
Zn2   O6    1.987491 S    
N3    O9    1.300837 A    
N2    C24   1.363271 A    
C21   C26   1.490283 S    
C31   H19   1.082399 S    
Zn1   O5    1.991359 S    
N4    O12   1.301380 A    
O5    C3    1.287140 A    
C27   C28   1.403722 A    
C13   C14   1.391395 A    
C24   C25   1.491251 S    
C6    C11   1.548491 S    
N3    O10   1.299924 A    
C31   C32   1.398044 A    
C29   H17   1.080675 S    
N4    O11   1.300720 A    
C16   H6    1.084123 S    
C15   N4    1.437689 S    
C11   C12   1.532460 S    
C19   C20   1.516039 S    
N1    C22   1.356821 A    
O8    C4    1.278818 A    
C6    H1    1.110597 S    
O1    C1    1.284467 A    
O6    C3    1.283660 A    
