data_mof_unit_68131.cif
_audit_creation_date              2013-03-05T15:58:27-0500
_audit_creation_method            fapswitch 2.2
_symmetry_space_group_name_H-M    P1
_symmetry_Int_Tables_number       1
_space_group_crystal_system       triclinic
_cell_length_a                    7.213581
_cell_length_b                    14.191276
_cell_length_c                    16.043484
_cell_angle_alpha                 89.999544
_cell_angle_beta                  90.000904
_cell_angle_gamma                 89.994663
_cell_volume                      1642.37014888

loop_
_atom_site_label
_atom_site_type_symbol
_atom_site_description
_atom_site_fract_x
_atom_site_fract_y
_atom_site_fract_z
_atom_type_partial_charge
O1    O     O_R   0.388780 0.834790 0.412340 -0.603954
O2    O     O_R   0.111220 0.165210 0.912340 -0.603967
O3    O     O_R   0.888780 0.665210 0.587660 -0.603927
O4    O     O_R   0.611220 0.334790 0.087660 -0.603942
O5    O     O_R   0.059040 0.845930 0.587040 -0.600769
O6    O     O_R   0.440960 0.154070 0.087040 -0.600725
O7    O     O_R   0.559040 0.654070 0.412960 -0.600791
O8    O     O_R   0.940960 0.345930 0.912960 -0.600737
C1    C     C_R   0.227725 0.868551 0.614809 0.918204
C2    C     C_R   0.272272 0.131476 0.114831 0.918337
C3    C     C_R   0.727736 0.631449 0.385192 0.918150
C4    C     C_R   0.772257 0.368522 0.885168 0.918372
O9    O     O_R   0.059070 0.845930 0.412970 -0.565903
O10   O     O_R   0.440930 0.154070 0.912970 -0.565951
O11   O     O_R   0.559070 0.654070 0.587030 -0.565915
O12   O     O_R   0.940930 0.345930 0.087030 -0.565960
O13   O     O_R   0.888760 0.665210 0.412340 -0.556583
O14   O     O_R   0.611240 0.334790 0.912340 -0.556510
O15   O     O_R   0.388760 0.834790 0.587660 -0.556568
O16   O     O_R   0.111240 0.165210 0.087660 -0.556523
C5    C     C_R   0.227837 0.869245 0.385588 0.960050
C6    C     C_R   0.272169 0.130764 0.885578 0.959903
C7    C     C_R   0.727847 0.630751 0.614407 0.960073
C8    C     C_R   0.772164 0.369239 0.114419 0.959893
O17   O     O_3   0.222280 0.690700 0.500000 -0.282536
O18   O     O_3   0.277720 0.309300 0.000000 -0.282361
O19   O     O_3   0.722280 0.809300 0.500000 -0.282504
O20   O     O_3   0.777720 0.190700 0.000000 -0.282373
V1    V     V_3+5 0.947430 0.761000 0.500000 1.177964
V2    V     V_3+5 0.552570 0.239000 0.000000 1.178110
V3    V     V_3+5 0.447430 0.739000 0.500000 1.177923
V4    V     V_3+5 0.052570 0.261000 0.000000 1.178084
C9    C     C_3   0.942588 0.544559 0.714233 -0.407552
C10   C     C_3   0.557439 0.455455 0.214215 -0.407557
C11   C     C_3   0.442587 0.955471 0.285812 -0.407571
C12   C     C_3   0.057432 0.044554 0.785792 -0.407554
H1    H     H_    0.028889 0.517105 0.662222 0.216784
H2    H     H_    0.471423 0.483149 0.162229 0.216409
H3    H     H_    0.528696 0.983007 0.337833 0.216605
H4    H     H_    0.971477 0.016859 0.837784 0.216388
H5    H     H_    0.002888 0.613671 0.732889 0.181798
H6    H     H_    0.496856 0.386342 0.232654 0.182073
H7    H     H_    0.503058 0.886372 0.267243 0.181951
H8    H     H_    0.996809 0.113666 0.767367 0.182082
C13   C     C_3   0.954931 0.476479 0.788828 -0.429239
C14   C     C_3   0.545099 0.523283 0.288991 -0.429338
C15   C     C_3   0.454963 0.023474 0.211160 -0.429296
C16   C     C_3   0.045062 0.976732 0.711010 -0.429349
H9    H     H_    0.015589 0.514481 0.842818 0.177547
H10   H     H_    0.485011 0.485010 0.342956 0.177031
H11   H     H_    0.515525 0.985398 0.157189 0.177477
H12   H     H_    0.984949 0.015008 0.657049 0.177070
H13   H     H_    0.049910 0.417351 0.772727 0.215734
H14   H     H_    0.449657 0.582302 0.273138 0.216260
H15   H     H_    0.550030 0.082575 0.227199 0.215868
H16   H     H_    0.949627 0.917720 0.726864 0.216289
H17   H     H_    0.768705 0.326382 0.722797 0.129766
H18   H     H_    0.729740 0.673236 0.222628 0.130174
H19   H     H_    0.269254 0.173451 0.277307 0.129984
H20   H     H_    0.229499 0.826848 0.777425 0.130329
C17   C     C_3   0.659648 0.458683 0.657181 1.184638
C18   C     C_3   0.840599 0.541274 0.157279 1.185014
C19   C     C_3   0.159452 0.041287 0.342766 1.184939
C20   C     C_3   0.340664 0.958736 0.842702 1.185097
C21   C     C_3   0.627184 0.594829 0.761479 -0.542019
C22   C     C_3   0.872695 0.405094 0.261542 -0.541558
C23   C     C_3   0.127355 0.905134 0.238481 -0.542043
C24   C     C_3   0.372629 0.094913 0.738445 -0.541655
C25   C     C_3   0.738031 0.557936 0.684887 -0.141368
C26   C     C_3   0.762005 0.442035 0.184918 -0.141580
C27   C     C_3   0.238020 0.942055 0.315103 -0.141442
C28   C     C_3   0.262006 0.057971 0.815075 -0.141593
H21   H     H_    0.480677 0.609154 0.743779 0.226491
H22   H     H_    0.019106 0.390518 0.243875 0.226294
H23   H     H_    0.980890 0.890697 0.256135 0.226431
H24   H     H_    0.519035 0.109493 0.756093 0.226310
H25   H     H_    0.685817 0.663598 0.782052 0.113803
H26   H     H_    0.813662 0.336448 0.282183 0.113785
H27   H     H_    0.186216 0.836423 0.217900 0.113802
H28   H     H_    0.313552 0.163553 0.717813 0.113790
C29   C     C_3   0.760501 0.438241 0.812781 -0.103460
C30   C     C_3   0.739459 0.561707 0.312824 -0.103522
C31   C     C_3   0.260551 0.061751 0.187214 -0.103524
C32   C     C_3   0.239422 0.938296 0.687175 -0.103553
C33   C     C_3   0.680218 0.388591 0.734549 -0.572391
C34   C     C_3   0.819235 0.611433 0.234531 -0.572156
C35   C     C_3   0.180370 0.111416 0.265459 -0.572419
C36   C     C_3   0.319178 0.888568 0.765474 -0.572267
C37   C     C_3   0.634504 0.523954 0.835281 0.574272
C38   C     C_3   0.865757 0.476085 0.335266 0.574591
C39   C     C_3   0.134562 0.976051 0.164711 0.574689
C40   C     C_3   0.365667 0.023921 0.664725 0.574860
H29   H     H_    0.542424 0.359015 0.751060 0.202645
H30   H     H_    0.956601 0.641526 0.250997 0.202077
H31   H     H_    0.042755 0.141203 0.248944 0.202372
H32   H     H_    0.456475 0.858385 0.749008 0.201922
O21   O     O_3   0.451578 0.492240 0.852623 -0.600939
C41   C     C_3   0.387545 0.529224 0.928831 -0.196325
H33   H     H_    0.378725 0.607405 0.926130 0.089287
H34   H     H_    0.476795 0.505997 0.981410 0.180816
H35   H     H_    0.247137 0.501043 0.941169 0.175233
O22   O     O_3   0.048728 0.507917 0.352347 -0.600638
C42   C     C_3   0.113220 0.471137 0.428561 -0.195768
H36   H     H_    0.122688 0.392975 0.425887 0.088891
H37   H     H_    0.023906 0.494202 0.481176 0.180448
H38   H     H_    0.253407 0.499628 0.440848 0.175619
O23   O     O_3   0.951614 0.007765 0.147402 -0.600785
C43   C     C_3   0.887560 0.970788 0.071194 -0.196170
H39   H     H_    0.878881 0.892604 0.073869 0.089284
H40   H     H_    0.976725 0.994057 0.018606 0.180733
H41   H     H_    0.747098 0.998926 0.058889 0.175141
O24   O     O_3   0.548634 0.992107 0.647602 -0.600584
C44   C     C_3   0.613000 0.028911 0.571377 -0.195750
H42   H     H_    0.622197 0.107080 0.574020 0.088957
H43   H     H_    0.523742 0.005766 0.518774 0.180416
H44   H     H_    0.753276 0.000522 0.559100 0.175453
O25   O     O_3   0.467631 0.472380 0.639237 -0.633187
C45   C     C_3   0.387004 0.396309 0.595513 -0.275906
H45   H     H_    0.402122 0.328340 0.628967 0.110793
H46   H     H_    0.442454 0.391358 0.531081 0.167606
H47   H     H_    0.236305 0.409594 0.590251 0.155767
O26   O     O_3   0.032765 0.527546 0.139707 -0.632776
C46   C     C_3   0.113894 0.603511 0.096042 -0.274720
H48   H     H_    0.098990 0.671494 0.129483 0.110540
H49   H     H_    0.058797 0.608514 0.031559 0.167393
H50   H     H_    0.264531 0.590063 0.090910 0.155438
O27   O     O_3   0.967385 0.027550 0.360518 -0.633077
C47   C     C_3   0.886443 0.103551 0.404208 -0.275400
H51   H     H_    0.901362 0.171524 0.370749 0.110719
H52   H     H_    0.941724 0.108541 0.468660 0.167511
H53   H     H_    0.735805 0.090159 0.409421 0.155654
O28   O     O_3   0.532842 0.972477 0.860224 -0.632773
C48   C     C_3   0.614117 0.896539 0.903872 -0.274640
H54   H     H_    0.599448 0.828575 0.870382 0.110555
H55   H     H_    0.558989 0.891466 0.968344 0.167342
H56   H     H_    0.764708 0.910063 0.909056 0.155449
O29   O     O_3   0.758375 0.434605 0.582140 -0.682372
C49   C     C_3   0.808635 0.338978 0.571870 -0.482279
H57   H     H_    0.938178 0.323627 0.606737 0.173065
H58   H     H_    0.838983 0.326418 0.505032 0.183454
H59   H     H_    0.696671 0.289142 0.589140 0.161580
O30   O     O_3   0.742503 0.565328 0.082079 -0.682610
C50   C     C_3   0.693326 0.661059 0.071489 -0.483505
H60   H     H_    0.562948 0.676663 0.105575 0.173214
H61   H     H_    0.665092 0.673650 0.004498 0.183775
H62   H     H_    0.804969 0.710741 0.089440 0.161557
O31   O     O_3   0.257842 0.065357 0.417883 -0.682464
C51   C     C_3   0.307389 0.161045 0.428338 -0.482950
H63   H     H_    0.437391 0.176562 0.393923 0.173211
H64   H     H_    0.336497 0.173619 0.495263 0.183683
H65   H     H_    0.195572 0.210779 0.410677 0.161469
O32   O     O_3   0.242634 0.934683 0.917910 -0.682640
C52   C     C_3   0.194022 0.838901 0.928631 -0.483503
H66   H     H_    0.063358 0.823155 0.894830 0.173294
H67   H     H_    0.166607 0.826303 0.995684 0.183822
H68   H     H_    0.305614 0.789304 0.910430 0.161387
H69   H     H_    0.701404 0.560469 0.889292 -0.000992
H70   H     H_    0.799269 0.439602 0.389402 -0.001203
H71   H     H_    0.201437 0.939569 0.110679 -0.001251
H72   H     H_    0.299098 0.060397 0.610606 -0.001351

loop_
_geom_bond_atom_site_label_1
_geom_bond_atom_site_label_2
_geom_bond_distance
_ccdc_geom_bond_type
C24   H28   1.113535 S    
C50   H62   1.108478 S    
C31   C35   1.551478 S    
C36   H32   1.110894 S    
O1    C5    1.330798 A    
O19   V1    1.762793 S    
C9    C13   1.540648 S    
C7    C25   1.533531 S    
O3    C7    1.330824 A    
O31   C51   1.414206 S    
C10   H6    1.113805 S    
C51   H65   1.108558 S    
O4    V2    2.001228 S    
C11   C15   1.540697 S    
C47   H51   1.109171 S    
C45   H46   1.110628 S    
O21   C41   1.408420 S    
H20   C36   1.105682 S    
C21   H21   1.113028 S    
C46   H48   1.109135 S    
C22   C38   1.554501 S    
C22   C26   1.556746 S    
O7    C3    1.335036 A    
C18   C34   1.597218 S    
C5    C27   1.533552 S    
C19   O27   1.427849 S    
O9    V1    2.012699 S    
C51   H64   1.108507 S    
O4    C8    1.330890 A    
C46   H49   1.110518 S    
C50   H60   1.110228 S    
C22   H22   1.112894 S    
C50   H61   1.108377 S    
C2    C31   1.528005 S    
O1    V3    2.001161 S    
O13   V1    2.001261 S    
C43   H39   1.112124 S    
C18   C26   1.581640 S    
O2    V4    2.001186 S    
C6    C28   1.533601 S    
O3    V1    2.001223 S    
C45   H45   1.109198 S    
C38   O22   1.421734 S    
C34   H30   1.110908 S    
C14   C30   1.552210 S    
C33   H29   1.111046 S    
C1    O15   1.329880 A    
C20   O28   1.427899 S    
C2    O16   1.329826 A    
O28   C48   1.412560 S    
C35   H31   1.110970 S    
O2    C6    1.330856 A    
C48   H56   1.106272 S    
O23   C43   1.408450 S    
C10   C14   1.540671 S    
C15   C31   1.552166 S    
C52   H67   1.108317 S    
C11   H7    1.113803 S    
C10   C26   1.560358 S    
C39   H71   1.119021 S    
C9    C25   1.560440 S    
C44   H44   1.106780 S    
C29   C37   1.560698 S    
O11   C7    1.335893 A    
O15   V3    2.001214 S    
O12   C8    1.335863 A    
O10   V2    2.012695 S    
H18   C34   1.105612 S    
C19   O31   1.439710 S    
O24   C44   1.408514 S    
O5    V1    2.012718 S    
C3    C30   1.527980 S    
C22   H26   1.113593 S    
C21   H25   1.113701 S    
C17   O25   1.428001 S    
O8    V4    2.012616 S    
C39   O23   1.421681 S    
C12   H4    1.111202 S    
O7    V3    2.012648 S    
C51   H63   1.110325 S    
O18   V4    1.762911 S    
C40   O24   1.421690 S    
C46   H50   1.106314 S    
C15   H11   1.110208 S    
C30   C34   1.551450 S    
C9    H1    1.111582 S    
C16   C32   1.552190 S    
C37   O21   1.421729 S    
C24   C28   1.556654 S    
C45   H47   1.106519 S    
C38   H70   1.119137 S    
C11   H3    1.111348 S    
O5    C1    1.335012 A    
C18   O30   1.439702 S    
C13   H9    1.110237 S    
O8    C4    1.335094 A    
C14   H14   1.113591 S    
C23   C39   1.554438 S    
O9    C5    1.335912 A    
C42   H37   1.111207 S    
C24   H24   1.112825 S    
C52   H68   1.108400 S    
O11   V3    2.012591 S    
C17   C33   1.597520 S    
O14   V2    2.001254 S    
O6    V2    2.012723 S    
C20   O32   1.439617 S    
C41   H34   1.111153 S    
C48   H54   1.109126 S    
C12   H8    1.113755 S    
C23   H23   1.112886 S    
O27   C47   1.412590 S    
C47   H53   1.106322 S    
C18   O26   1.427922 S    
C15   H15   1.113577 S    
C44   H42   1.112115 S    
O16   V4    2.001191 S    
C17   C25   1.581577 S    
C16   H16   1.113581 S    
C14   H10   1.110189 S    
C3    O13   1.329870 A    
C20   C36   1.597114 S    
C19   C35   1.597347 S    
C10   H2    1.111311 S    
O17   V3    1.762912 S    
C13   C29   1.552223 S    
C32   C36   1.551430 S    
C19   C27   1.581512 S    
C49   H59   1.108771 S    
C47   H52   1.110525 S    
O6    C2    1.335064 A    
C37   H69   1.119068 S    
C49   H58   1.108852 S    
O12   V4    2.012621 S    
C41   H35   1.106828 S    
C31   C39   1.560654 S    
O29   C49   1.414265 S    
C21   C37   1.554454 S    
C30   C38   1.560735 S    
C43   H41   1.106785 S    
C40   H72   1.119082 S    
C9    H5    1.113919 S    
O10   C6    1.335881 A    
O20   V2    1.762794 S    
C52   H66   1.110155 S    
C11   C27   1.560362 S    
O25   C45   1.412760 S    
C17   O29   1.439911 S    
C8    C26   1.533593 S    
C21   C25   1.556736 S    
C24   C40   1.554479 S    
C43   H40   1.111146 S    
C4    C29   1.528002 S    
C12   C16   1.540712 S    
C42   H38   1.106819 S    
C23   C27   1.556596 S    
C20   C28   1.581607 S    
O22   C42   1.408493 S    
H19   C35   1.105600 S    
C49   H57   1.110645 S    
C1    C32   1.527988 S    
C13   H13   1.113610 S    
C16   H12   1.110194 S    
O32   C52   1.414300 S    
C41   H33   1.112155 S    
C4    O14   1.329813 A    
C42   H36   1.112142 S    
C48   H55   1.110498 S    
O30   C50   1.414296 S    
C32   C40   1.560702 S    
O26   C46   1.412636 S    
H17   C33   1.105564 S    
C23   H27   1.113582 S    
C29   C33   1.551532 S    
C12   C28   1.560361 S    
C44   H43   1.111182 S    
