data_mof_unit_42307.cif
_audit_creation_date              2012-10-26T20:03:01-0400
_audit_creation_method            fapswitch 2.2
_symmetry_space_group_name_H-M    P1
_symmetry_Int_Tables_number       1
_space_group_crystal_system       triclinic
_cell_length_a                    10.711739
_cell_length_b                    12.319358
_cell_length_c                    13.181159
_cell_angle_alpha                 116.690406
_cell_angle_beta                  77.468923
_cell_angle_gamma                 101.345586
_cell_volume                      1507.189715

loop_
_atom_site_label
_atom_site_type_symbol
_atom_type_description
_atom_site_fract_x
_atom_site_fract_y
_atom_site_fract_z
_atom_type_partial_charge
C1    C     C_R   0.510760 0.854869 0.286535 0.525636
C2    C     C_R   0.493466 0.567224 0.008876 0.007608
C3    C     C_R   0.457276 0.650527 0.123909 0.014136
C4    C     C_R   0.739875 0.999431 0.499789 0.542112
C5    C     C_R   0.453502 0.440391 0.975975 0.029249
C6    C     C_R   0.366149 0.400587 0.053529 0.053571
C7    C     C_R   0.318467 0.486022 0.161150 -0.140553
C8    C     C_R   0.362158 0.609236 0.195509 -0.119230
C9    C     C_R   0.499428 0.351500 0.868651 -0.138178
C10   C     C_R   0.367630 0.189765 0.912086 -0.137139
C11   C     C_R   0.515894 0.773203 0.163342 -0.036444
C12   C     C_3   0.121780 0.999488 0.500045 0.049322
C13   C     C_R   0.706299 0.347338 0.329186 -0.149068
C14   C     C_R   0.325293 0.759337 0.645323 0.050861
C15   C     C_R   0.287709 0.662842 0.677169 -0.157552
C16   C     C_R   0.480685 0.145160 0.713486 0.544649
C17   C     C_R   0.353507 0.559570 0.622552 -0.135843
C18   C     C_R   0.458474 0.551521 0.534790 -0.005953
C19   C     C_R   0.493719 0.653101 0.505332 0.182513
C20   C     C_R   0.529837 0.447203 0.475427 -0.014634
C21   C     C_R   0.634532 0.447237 0.388649 0.038015
C22   C     C_R   0.667373 0.546942 0.361575 -0.179192
C23   C     C_3   0.074734 0.122097 0.592639 -0.237095
C24   C     C_R   0.598729 0.647345 0.418546 -0.102660
C25   C     C_R   0.502506 0.341974 0.497829 0.038039
C26   C     C_R   0.674600 0.247183 0.355492 0.040718
C27   C     C_R   0.260021 0.000109 0.500092 0.540384
C28   C     C_3   0.955549 0.981402 0.380861 -0.237549
C29   C     C_3   0.099698 0.981700 0.380887 -0.232173
C30   C     C_3   0.930520 0.121547 0.592798 -0.231578
C31   C     C_3   0.897334 0.892879 0.526316 -0.230889
C32   C     C_3   0.877731 0.998738 0.499958 0.048476
C33   C     C_3   0.040205 0.893500 0.526693 -0.229849
C34   C     C_R   0.325324 0.275653 0.021539 -0.132900
C35   C     C_R   0.452837 0.228187 0.834683 -0.003391
C36   C     C_R   0.590331 0.816022 0.084230 -0.098718
C37   C     C_R   0.612610 0.738178 0.968033 0.100398
C38   C     C_R   0.566319 0.614097 0.930794 -0.107196
Cu1   Cu    Cu3+1 0.529690 0.098270 0.475420 0.911342
Cu2   Cu    Cu3+1 0.470310 0.901730 0.524580 0.905478
H1    H     H_    0.053679 0.903955 0.612198 0.120769
H2    H     H_    0.918996 0.893506 0.313133 0.102757
H3    H     H_    0.317190 0.671506 0.277686 0.146659
H4    H     H_    0.729557 0.169727 0.309916 0.114480
H5    H     H_    0.747515 0.547619 0.295412 0.103630
H6    H     H_    0.786480 0.346787 0.262764 0.088496
H7    H     H_    0.424590 0.333868 0.562048 0.116623
H8    H     H_    0.273728 0.839137 0.688269 0.118463
H9    H     H_    0.320329 0.487743 0.650765 0.094941
H10   H     H_    0.207292 0.668127 0.744479 0.097758
H11   H     H_    0.632183 0.718732 0.391479 0.180959
H12   H     H_    0.875968 0.135278 0.678995 0.113020
H13   H     H_    0.132944 0.893846 0.313328 0.107511
H14   H     H_    0.156563 0.056486 0.359389 0.130885
H15   H     H_    0.917836 0.199397 0.576189 0.129692
H16   H     H_    0.130870 0.199896 0.575545 0.122397
H17   H     H_    0.842379 0.902576 0.611435 0.139044
H18   H     H_    0.861020 0.803279 0.460507 0.118287
H19   H     H_    0.071845 0.803901 0.461449 0.124561
H20   H     H_    0.943658 0.056163 0.359466 0.121996
H21   H     H_    0.779387 0.812727 0.907752 0.215914
H22   H     H_    0.690079 0.718500 0.804768 0.227295
H23   H     H_    0.090112 0.136400 0.678843 0.108419
H24   H     H_    0.330123 0.094388 0.886663 0.121718
H25   H     H_    0.247468 0.457494 0.219402 0.102277
H26   H     H_    0.258092 0.244799 0.080156 0.102354
H27   H     H_    0.571461 0.375591 0.808877 0.115842
H28   H     H_    0.633386 0.910276 0.112721 0.138624
H29   H     H_    0.585494 0.557323 0.840042 0.098460
N1    N     N_R   0.574690 0.246280 0.438200 -0.232335
N2    N     N_R   0.426100 0.754320 0.561190 -0.233766
N3    N     N_3   0.685090 0.786387 0.889070 -0.629904
O1    O     O_R   0.537340 0.972510 0.318130 -0.502593
O2    O     O_R   0.487200 0.806530 0.359650 -0.524305
O3    O     O_R   0.707380 0.082980 0.479220 -0.507316
O4    O     O_R   0.657240 0.917000 0.520740 -0.521789
O5    O     O_R   0.512800 0.193470 0.640350 -0.509124
O6    O     O_R   0.462660 0.027490 0.681870 -0.499036
O7    O     O_R   0.342760 0.083000 0.479260 -0.507343
O8    O     O_R   0.292620 0.917020 0.520780 -0.521040

loop_
_geom_bond_atom_site_label_1
_geom_bond_atom_site_label_2
_ccdc_geom_bond_type
Cu2   N2    S    
C12   C29   S    
C14   N2    A    
C19   N2    A    
C1    C11   S    
C8    H3    S    
C34   H26   S    
C26   H4    S    
C7    C8    A    
C12   C23   S    
C28   C29   S    
C1    O2    A    
Cu1   O5    S    
C31   H18   S    
C36   C37   A    
C18   C19   A    
C27   O7    A    
C16   C35   S    
C5    C6    A    
C15   H10   S    
C20   C25   A    
C16   O5    A    
C22   C24   A    
C4    O3    A    
Cu2   O8    S    
C10   C35   A    
Cu1   O3    S    
C25   H7    S    
C18   C20   A    
C24   H11   S    
C23   H23   S    
C38   H29   S    
C33   H19   S    
C21   C22   A    
C28   H20   S    
C12   C27   S    
H22   N3    S    
C23   C30   S    
C28   C32   S    
C3    C8    A    
C17   H9    S    
Cu1   Cu2   S    
C14   H8    S    
C6    C34   A    
Cu1   O7    S    
C9    H27   S    
C5    C9    A    
C37   C38   A    
C7    H25   S    
C2    C38   A    
C31   C32   S    
C31   C33   S    
C17   C18   A    
C13   C21   A    
C10   C34   A    
C23   H16   S    
C4    C32   S    
H21   N3    S    
C27   O8    A    
C26   N1    A    
Cu2   O6    S    
C13   C26   A    
C2    C5    A    
C15   C17   A    
C30   H12   S    
C11   C36   A    
C10   H24   S    
C36   H28   S    
C6    C7    A    
C30   H15   S    
C1    O1    A    
C31   H17   S    
C2    C3    A    
C33   H1    S    
C30   C32   S    
C13   H6    S    
C29   H13   S    
C28   H2    S    
Cu1   N1    S    
Cu2   O2    S    
C19   C24   A    
C16   O6    A    
Cu1   O1    S    
C4    O4    A    
C3    C11   A    
Cu2   O4    S    
C22   H5    S    
C20   C21   A    
C29   H14   S    
C37   N3    S    
C9    C35   A    
C14   C15   A    
C25   N1    A    
C12   C33   S    
