data_mof_unit_45548.cif
_audit_creation_date              2012-12-10T20:41:54-0500
_audit_creation_method            fapswitch 2.2
_symmetry_space_group_name_H-M    P1
_symmetry_Int_Tables_number       1
_space_group_crystal_system       triclinic
_cell_length_a                    14.992585
_cell_length_b                    15.099175
_cell_length_c                    9.900677
_cell_angle_alpha                 90.351459
_cell_angle_beta                  89.234422
_cell_angle_gamma                 90.129293
_cell_volume                      2241.02479873

loop_
_atom_site_label
_atom_site_type_symbol
_atom_type_description
_atom_site_fract_x
_atom_site_fract_y
_atom_site_fract_z
_atom_type_partial_charge
C1    C     C_R   0.380185 0.880260 0.500040 0.873632
C2    C     C_R   0.953698 0.436944 0.072197 0.086468
C3    C     C_R   0.567406 0.038320 0.070660 -0.133721
C4    C     C_R   0.053595 0.556109 0.071139 -0.144220
C5    C     C_R   0.567725 0.037801 0.927069 -0.132899
C6    C     C_R   0.054560 0.555181 0.927581 -0.140764
C7    C     C_R   0.427463 0.969153 0.930713 0.131406
C8    C     C_R   0.946923 0.442945 0.930706 0.142123
C9    C     C_3   0.386449 0.878310 0.923758 0.875255
C10   C     C_3   0.846073 0.441247 0.943655 0.884591
C11   C     C_3   0.397598 0.872888 0.078400 -0.678800
C12   C     C_R   0.377901 0.117742 0.500762 0.868434
C13   C     C_3   0.857883 0.416113 0.092663 -0.666181
C14   C     C_R   0.619609 0.119923 0.499813 0.875837
C15   C     C_R   0.623278 0.883267 0.498792 0.863275
C16   C     C_R   0.120013 0.619499 0.499757 0.873011
C17   C     C_R   0.118438 0.378546 0.499509 0.866920
C18   C     C_R   0.276150 0.213929 0.623645 0.127421
C19   C     C_R   0.241467 0.821869 0.583701 0.236501
C20   C     C_R   0.816942 0.754581 0.610110 0.117235
C21   C     C_R   0.805133 0.258375 0.607599 0.209415
C22   C     C_R   0.302327 0.173688 0.502973 -0.099689
C23   C     C_R   0.879753 0.380580 0.500313 0.883339
C24   C     C_R   0.315915 0.812651 0.500347 -0.105928
C25   C     C_R   0.832359 0.703404 0.495190 -0.098127
C26   C     C_R   0.809846 0.318511 0.502385 -0.102481
C27   C     C_R   0.253239 0.187021 0.385075 -0.230911
C28   C     C_R   0.329724 0.736457 0.421968 -0.250369
C29   C     C_R   0.799285 0.732643 0.371023 -0.238933
C30   C     C_R   0.743169 0.321485 0.404839 -0.249340
C31   C     C_R   0.733487 0.796625 0.370442 -0.232682
C32   C     C_R   0.678722 0.255915 0.403765 -0.239524
C33   C     C_R   0.189173 0.252791 0.384028 -0.232419
C34   C     C_R   0.883666 0.623773 0.499920 0.871018
C35   C     C_R   0.264838 0.671255 0.422040 -0.221253
C36   C     C_R   0.702705 0.831753 0.493995 -0.101807
C37   C     C_R   0.681678 0.189534 0.501547 -0.094469
C38   C     C_R   0.175192 0.303800 0.500961 -0.102547
C39   C     C_R   0.187784 0.683641 0.500829 -0.087855
C40   C     C_R   0.752457 0.818634 0.609849 0.131239
C41   C     C_R   0.740855 0.194624 0.608001 0.109191
C42   C     C_R   0.213045 0.278642 0.622556 0.135130
C43   C     C_R   0.177822 0.756598 0.585850 0.092644
C44   C     C_3   0.724175 0.799605 0.751788 -0.488693
C45   C     C_3   0.330828 0.261332 0.726749 -0.479641
C46   C     C_3   0.803094 0.125809 0.659654 -0.515052
C47   C     C_3   0.260604 0.333385 0.725570 -0.478387
C48   C     C_3   0.102985 0.821858 0.587154 -0.516640
C49   C     C_3   0.227934 0.901825 0.956072 0.015799
C50   C     C_3   0.186199 0.815457 0.008790 -0.369093
C51   C     C_3   0.120364 0.833279 0.124610 -0.939902
C52   C     C_3   0.407685 0.732459 0.852317 0.092070
C53   C     C_3   0.457578 0.676496 0.746878 -0.318978
C54   C     C_3   0.420667 0.582297 0.740419 -0.991559
C55   C     C_3   0.795069 0.585956 0.020207 0.035926
C56   C     C_3   0.173201 0.893833 0.580309 -0.489429
C57   C     C_3   0.702161 0.575199 0.086043 -0.395493
C58   C     C_3   0.628621 0.609720 0.995291 -0.857438
C59   C     C_3   0.716223 0.367525 0.871729 0.121608
C60   C     C_3   0.684800 0.288641 0.956262 -0.412588
C61   C     C_3   0.583744 0.277370 0.948885 -0.959234
C62   C     C_3   0.795279 0.728440 0.750818 -0.489999
C63   C     C_3   0.874656 0.197025 0.659181 -0.473525
C64   C     C_R   0.429606 0.966227 0.072739 0.079128
H1    H     H_    0.268168 0.151287 0.292295 0.169516
H2    H     H_    0.628779 0.255563 0.325607 0.167812
H3    H     H_    0.155104 0.266991 0.290832 0.172414
H4    H     H_    0.273670 0.612586 0.359731 0.152773
H5    H     H_    0.739024 0.855616 0.821395 0.204657
H6    H     H_    0.815921 0.071673 0.585228 0.202378
H7    H     H_    0.285641 0.397340 0.684491 0.203117
H8    H     H_    0.065067 0.821203 0.684430 0.204142
H9    H     H_    0.655290 0.772769 0.759699 0.221282
H10   H     H_    0.784056 0.103390 0.762822 0.196089
H11   H     H_    0.222159 0.338666 0.822074 0.207687
H12   H     H_    0.389326 0.728488 0.359963 0.155605
H13   H     H_    0.061253 0.817747 0.495218 0.206369
H14   H     H_    0.396815 0.283282 0.686394 0.200719
H15   H     H_    0.174406 0.937100 0.670919 0.216742
H16   H     H_    0.851865 0.743404 0.818735 0.197943
H17   H     H_    0.929298 0.184637 0.584378 0.188294
H18   H     H_    0.333003 0.224913 0.823904 0.207500
H19   H     H_    0.173869 0.930151 0.482835 0.187666
H20   H     H_    0.767067 0.660421 0.755431 0.254777
H21   H     H_    0.896860 0.215870 0.762127 0.226767
H22   H     H_    0.622943 0.067670 0.123360 0.150513
H23   H     H_    0.817592 0.701065 0.276330 0.160911
H24   H     H_    0.095876 0.602409 0.124053 0.155073
H25   H     H_    0.623632 0.066412 0.872654 0.152035
H26   H     H_    0.098124 0.600351 0.873830 0.150666
H27   H     H_    0.175735 0.937146 0.899480 0.159187
H28   H     H_    0.245813 0.949305 0.037521 0.131283
H29   H     H_    0.150868 0.781617 0.924932 0.214805
H30   H     H_    0.238530 0.769602 0.044441 0.212236
H31   H     H_    0.155292 0.863985 0.211483 0.267124
H32   H     H_    0.089945 0.769963 0.158515 0.262763
H33   H     H_    0.066443 0.878062 0.091027 0.259014
H34   H     H_    0.742412 0.372207 0.328273 0.154918
H35   H     H_    0.335687 0.731048 0.826197 0.175490
H36   H     H_    0.416279 0.702556 0.953722 0.118170
H37   H     H_    0.451548 0.707558 0.646047 0.230131
H38   H     H_    0.529361 0.674078 0.771811 0.215417
H39   H     H_    0.427178 0.549458 0.839897 0.264854
H40   H     H_    0.458710 0.543436 0.663576 0.266646
H41   H     H_    0.349312 0.583140 0.711473 0.268998
H42   H     H_    0.800011 0.654328 0.983333 0.169565
H43   H     H_    0.849113 0.585227 0.095173 0.117047
H44   H     H_    0.688425 0.504969 0.111077 0.207147
H45   H     H_    0.337802 0.865151 0.143812 0.207670
H46   H     H_    0.699789 0.613170 0.182350 0.192601
H47   H     H_    0.636189 0.682252 0.980897 0.255853
H48   H     H_    0.562464 0.596897 0.043083 0.239956
H49   H     H_    0.631123 0.576173 0.895268 0.271505
H50   H     H_    0.691561 0.359204 0.767204 0.163222
H51   H     H_    0.683901 0.428414 0.911084 0.169353
H52   H     H_    0.717703 0.227120 0.919145 0.233713
H53   H     H_    0.703057 0.299356 0.063410 0.215692
H54   H     H_    0.549526 0.339649 0.979596 0.262753
H55   H     H_    0.561750 0.224195 0.018594 0.269152
H56   H     H_    0.452295 0.827729 0.108551 0.204478
H57   H     H_    0.564064 0.259145 0.844510 0.272125
H58   H     H_    0.825264 0.456107 0.172687 0.198665
H59   H     H_    0.849834 0.344026 0.111512 0.195939
H60   H     H_    0.701882 0.811990 0.275660 0.176064
N1    N     N_R   0.499140 0.000000 0.142800 -0.080632
N2    N     N_R   0.999140 0.500000 0.142800 -0.094722
N3    N     N_R   0.499160 0.000000 0.857150 -0.100390
N4    N     N_R   0.999160 0.500000 0.857150 -0.110160
O1    O     O_R   0.408400 0.908380 0.614690 -0.552786
O2    O     O_R   0.591610 0.908390 0.614650 -0.597096
O3    O     O_R   0.091610 0.591610 0.614650 -0.632346
O4    O     O_R   0.091610 0.408390 0.614650 -0.618986
O5    O     O_R   0.591590 0.091600 0.385310 -0.628673
O6    O     O_R   0.591590 0.908400 0.385310 -0.622561
O7    O     O_R   0.091590 0.591600 0.385310 -0.627832
O8    O     O_R   0.091590 0.408400 0.385310 -0.615140
O9    O     O_3   0.299522 0.883231 0.865399 -0.669400
O10   O     O_3   0.443131 0.819387 0.851252 -0.629995
O11   O     O_3   0.808801 0.526015 0.910009 -0.643902
O12   O     O_R   0.408400 0.091620 0.614690 -0.617634
O13   O     O_3   0.810788 0.371029 0.865054 -0.665130
O14   O     O_R   0.908400 0.408380 0.614690 -0.578345
O15   O     O_R   0.908400 0.591620 0.614690 -0.587773
O16   O     O_R   0.408370 0.908370 0.385350 -0.623207
O17   O     O_R   0.408370 0.091630 0.385350 -0.620374
O18   O     O_R   0.908370 0.408370 0.385350 -0.622029
O19   O     O_R   0.908370 0.591630 0.385350 -0.636519
O20   O     O_R   0.591610 0.091610 0.614650 -0.629221
Zn1   Zn    Zn3+2 0.500010 0.000000 0.653130 0.983197
Zn2   Zn    Zn3+2 0.000010 0.500000 0.653130 0.977692
Zn3   Zn    Zn3+2 0.499980 0.000000 0.346870 0.938402
Zn4   Zn    Zn3+2 0.999980 0.500000 0.346870 0.930536

loop_
_geom_bond_atom_site_label_1
_geom_bond_atom_site_label_2
_ccdc_geom_bond_type
C19   C56   S    
C51   H33   S    
C21   C26   A    
C14   O20   A    
C61   H55   S    
O4    Zn2   S    
C45   H18   S    
O5    Zn3   S    
C15   O6    A    
C53   C54   S    
C27   C33   A    
C56   H15   S    
C63   H17   S    
C58   H48   S    
C62   H16   S    
C49   H27   S    
C31   H60   S    
C38   C42   A    
O16   Zn3   S    
C1    O1    A    
C18   C42   A    
C20   C40   A    
C11   H45   S    
C20   C25   A    
O7    Zn4   S    
C12   C22   S    
C55   O11   S    
C61   H57   S    
C9    O10   S    
C23   C26   S    
C2    C13   S    
C16   O3    A    
N1    Zn3   S    
N2    Zn4   S    
C8    N4    A    
O15   Zn2   S    
C28   C35   A    
C53   H37   S    
C58   H49   S    
C52   O10   S    
C41   C46   S    
C12   O12   A    
C23   O14   A    
C45   H14   S    
C43   C48   S    
C51   H32   S    
C17   C38   S    
C59   C60   S    
C63   H21   S    
C17   O4    A    
C20   C62   S    
C9    O9    S    
C48   H8    S    
C11   H56   S    
O8    Zn4   S    
C19   C43   A    
C45   C47   S    
C25   C29   A    
C23   O18   A    
C34   O15   A    
C21   C63   S    
C55   H42   S    
C58   H47   S    
C54   H39   S    
C36   C40   A    
O20   Zn1   S    
C4    C6    A    
C11   C64   S    
C50   H30   S    
C39   C43   A    
C44   C62   S    
C6    H26   S    
C52   H36   S    
C55   H43   S    
C60   C61   S    
C10   O13   S    
C48   H13   S    
O2    Zn1   S    
C35   C39   A    
O1    Zn1   S    
C27   H1    S    
C34   O19   A    
C57   H46   S    
C53   H38   S    
C5    N3    A    
C12   O17   A    
C50   C51   S    
C44   H5    S    
C32   C37   A    
C9    C11   S    
C47   H7    S    
O17   Zn3   S    
O18   Zn4   S    
C2    N2    A    
N4    Zn2   S    
C26   C30   A    
C22   C27   A    
C55   C57   S    
C60   H53   S    
C49   C50   S    
C21   C41   A    
C60   H52   S    
C10   O11   S    
C49   H28   S    
C28   H12   S    
C18   C45   S    
C15   C36   S    
C46   H10   S    
C46   H6    S    
C52   C53   S    
C33   H3    S    
C56   H19   S    
C32   H2    S    
C49   O9    S    
C54   H40   S    
C48   C56   S    
C62   H20   S    
C54   H41   S    
C61   H54   S    
C18   C22   A    
C8    C10   S    
C2    C8    A    
C24   C28   A    
C3    C5    A    
C10   C13   S    
C3    N1    A    
C50   H29   S    
C4    H24   S    
C14   O5    A    
C30   H34   S    
C25   C34   S    
C52   H35   S    
C33   C38   A    
C4    N2    A    
C46   C63   S    
O14   Zn2   S    
O19   Zn4   S    
C6    N4    A    
C29   C31   A    
C1    O16   A    
N3    Zn1   S    
C14   C37   S    
C30   C32   A    
C13   H58   S    
C57   C58   S    
C15   O2    A    
C35   H4    S    
C59   H50   S    
C13   H59   S    
O6    Zn3   S    
C19   C24   A    
C17   O8    A    
C42   C47   S    
C37   C41   A    
C44   H9    S    
C7    C64   A    
C29   H23   S    
C16   C39   S    
C47   H11   S    
C7    C9    S    
C40   C44   S    
C57   H44   S    
C59   O13   S    
C1    C24   S    
C59   H51   S    
C64   N1    A    
C31   C36   A    
O3    Zn2   S    
C7    N3    A    
C16   O7    A    
O12   Zn1   S    
C5    H25   S    
C51   H31   S    
C3    H22   S    
