data_mof_unit_39387.cif
_audit_creation_date              2012-12-11T16:47:56-0500
_audit_creation_method            fapswitch 2.2
_symmetry_space_group_name_H-M    P1
_symmetry_Int_Tables_number       1
_space_group_crystal_system       triclinic
_cell_length_a                    26.112395
_cell_length_b                    7.149591
_cell_length_c                    23.985486
_cell_angle_alpha                 89.999946
_cell_angle_beta                  101.778429
_cell_angle_gamma                 89.999965
_cell_volume                      4383.63528075

loop_
_atom_site_label
_atom_site_type_symbol
_atom_type_description
_atom_site_fract_x
_atom_site_fract_y
_atom_site_fract_z
_atom_type_partial_charge
O1    O     O_R   0.797620 0.601060 0.203310 -0.506043
O2    O     O_R   0.202380 0.398940 0.796690 -0.508193
O3    O     O_R   0.702380 0.101060 0.296690 -0.506043
O4    O     O_R   0.297620 0.898940 0.703310 -0.508193
O5    O     O_R   0.692070 0.267810 0.186600 -0.539180
O6    O     O_R   0.307930 0.732190 0.813400 -0.533962
O7    O     O_R   0.807930 0.767810 0.313400 -0.539180
O8    O     O_R   0.192070 0.232190 0.686600 -0.533962
C1    C     C_R   0.673733 0.439883 0.171372 0.706032
C2    C     C_R   0.326083 0.560029 0.828877 0.700390
C3    C     C_R   0.826267 0.939882 0.328628 0.706033
C4    C     C_R   0.173916 0.060029 0.671123 0.700391
O9    O     O_R   0.796590 0.271120 0.196480 -0.544076
O10   O     O_R   0.203410 0.728880 0.803520 -0.542568
O11   O     O_R   0.703410 0.771120 0.303520 -0.544076
O12   O     O_R   0.296590 0.228880 0.696480 -0.542568
O13   O     O_R   0.807640 0.104280 0.306650 -0.534012
O14   O     O_R   0.192360 0.895720 0.693350 -0.539368
O15   O     O_R   0.692360 0.604280 0.193350 -0.534012
O16   O     O_R   0.307640 0.395720 0.806650 -0.539367
C5    C     C_R   0.813131 0.440416 0.184960 0.701053
C6    C     C_R   0.188166 0.559368 0.816401 0.700008
C7    C     C_R   0.686868 0.940415 0.315039 0.701054
C8    C     C_R   0.311833 0.059368 0.683599 0.700010
O17   O     O_3   0.753500 0.435660 0.286130 -0.364860
O18   O     O_3   0.246500 0.564340 0.713870 -0.368573
O19   O     O_3   0.746500 0.935660 0.213870 -0.364861
O20   O     O_3   0.253500 0.064340 0.786130 -0.368574
V1    V     V_3+5 0.749350 0.159470 0.243300 1.459224
V2    V     V_3+5 0.250650 0.840530 0.756700 1.449198
V3    V     V_3+5 0.750650 0.659470 0.256700 1.459224
V4    V     V_3+5 0.249350 0.340530 0.743300 1.449198
C9    C     C_R   0.358468 0.875274 0.617742 0.431914
C10   C     C_R   0.622531 0.123818 0.361058 0.441682
C11   C     C_R   0.141530 0.375274 0.882256 0.431915
C12   C     C_R   0.877467 0.623820 0.138940 0.441683
C13   C     C_R   0.397305 0.865912 0.584893 -0.262773
C14   C     C_R   0.588533 0.131365 0.399645 -0.260232
C15   C     C_R   0.102692 0.365913 0.915104 -0.262771
C16   C     C_R   0.911465 0.631367 0.100353 -0.260232
H1    H     H_    0.406056 0.732630 0.567426 0.130801
H2    H     H_    0.573179 0.265399 0.409413 0.121724
H3    H     H_    0.093940 0.232630 0.932570 0.130801
H4    H     H_    0.926818 0.765402 0.090585 0.121725
C17   C     C_R   0.423625 0.026841 0.573028 0.077601
C18   C     C_R   0.574479 0.969343 0.425866 0.079356
C19   C     C_R   0.076372 0.526843 0.926970 0.077601
C20   C     C_R   0.925520 0.469345 0.074132 0.079355
C21   C     C_R   0.412009 0.198575 0.595785 -0.100394
C22   C     C_R   0.596866 0.798241 0.414663 -0.104217
C23   C     C_R   0.087990 0.698577 0.904213 -0.100395
C24   C     C_R   0.903133 0.298242 0.085336 -0.104219
H5    H     H_    0.431892 0.324785 0.586958 0.140582
H6    H     H_    0.585990 0.669520 0.432982 0.159766
H7    H     H_    0.068107 0.824788 0.913041 0.140585
H8    H     H_    0.914009 0.169522 0.067017 0.159767
C25   C     C_R   0.375690 0.208122 0.631342 -0.272329
C26   C     C_R   0.633664 0.790706 0.379623 -0.285508
C27   C     C_R   0.124309 0.708123 0.868657 -0.272334
C28   C     C_R   0.866335 0.290706 0.120376 -0.285510
H9    H     H_    0.369092 0.341922 0.649773 0.182434
H10   H     H_    0.651124 0.656957 0.373547 0.186266
H11   H     H_    0.130908 0.841923 0.850226 0.182435
H12   H     H_    0.848876 0.156957 0.126452 0.186266
C29   C     C_R   0.348932 0.047059 0.643699 -0.139445
C30   C     C_R   0.647575 0.952499 0.352649 -0.138658
C31   C     C_R   0.151066 0.547059 0.856299 -0.139444
C32   C     C_R   0.852425 0.452500 0.147350 -0.138658
C33   C     C_R   0.454670 0.112196 0.483527 0.441486
C34   C     C_R   0.544020 0.886042 0.516921 0.439285
C35   C     C_R   0.045328 0.612202 0.016470 0.441484
C36   C     C_R   0.955978 0.386043 0.983078 0.439284
C37   C     C_R   0.491611 0.096483 0.448793 -0.294087
C38   C     C_R   0.506261 0.898567 0.551103 -0.301515
C39   C     C_R   0.008386 0.596489 0.051204 -0.294082
C40   C     C_R   0.993737 0.398568 0.948895 -0.301515
H13   H     H_    0.484901 0.172748 0.408944 0.143902
H14   H     H_    0.511935 0.820321 0.590582 0.147580
H15   H     H_    0.015097 0.672755 0.091053 0.143901
H16   H     H_    0.988063 0.320321 0.909417 0.147581
C41   C     C_R   0.536062 0.981536 0.464231 -0.040867
C42   C     C_R   0.462259 0.014264 0.535587 -0.053555
C43   C     C_R   0.963936 0.481539 0.035767 -0.040865
C44   C     C_R   0.037738 0.514268 0.964410 -0.053555
C45   C     C_3   0.958306 0.037523 0.519670 -0.135531
C46   C     C_3   0.043750 0.960269 0.477717 -0.137384
C47   C     C_3   0.541690 0.537722 0.980344 -0.135530
C48   C     C_3   0.456255 0.460073 0.022268 -0.137378
C49   C     C_3   0.004066 0.174884 0.518676 -0.137693
C50   C     C_3   0.997941 0.822899 0.478665 -0.138601
C51   C     C_3   0.495903 0.674939 0.981366 -0.137704
C52   C     C_3   0.502090 0.322848 0.021292 -0.138610
H17   H     H_    0.006764 0.320353 0.535228 0.109149
H18   H     H_    0.995227 0.677554 0.462012 0.107261
H19   H     H_    0.493180 0.820451 0.964849 0.109148
H20   H     H_    0.504830 0.177459 0.037911 0.107264
H21   H     H_    0.922875 0.069172 0.536836 0.111357
H22   H     H_    0.079148 0.928669 0.460490 0.108838
H23   H     H_    0.577117 0.569535 0.963191 0.111357
H24   H     H_    0.420861 0.428311 0.039483 0.108832
H25   H     H_    0.005968 0.216518 0.420932 0.107336
H26   H     H_    0.995990 0.781019 0.576334 0.109752
H27   H     H_    0.493984 0.716256 0.079117 0.107347
H28   H     H_    0.504058 0.281283 0.923616 0.109760
C53   C     C_1   0.128576 0.049027 0.624553 -0.180774
C54   C     C_1   0.872263 0.950351 0.374364 -0.180442
C55   C     C_1   0.371424 0.549027 0.875447 -0.180774
C56   C     C_1   0.627738 0.450352 0.125636 -0.180442
C57   C     C_3   0.998158 0.879585 0.541130 -0.136637
C58   C     C_3   0.003844 0.118182 0.456210 -0.138610
C59   C     C_3   0.501868 0.379730 0.958843 -0.136643
C60   C     C_3   0.496130 0.618039 0.043817 -0.138620
C61   C     C_3   0.043336 0.016766 0.539595 0.166451
C62   C     C_3   0.958671 0.981060 0.457815 0.168338
C63   C     C_3   0.456665 0.516767 0.960405 0.166458
C64   C     C_3   0.541329 0.481062 0.042184 0.168340
C65   C     C_1   0.090379 0.035797 0.586028 -0.062549
C66   C     C_1   0.911084 0.962771 0.412108 -0.061799
C67   C     C_1   0.409621 0.535797 0.913972 -0.062547
C68   C     C_1   0.588916 0.462772 0.087892 -0.061800
O21   O     O_3   0.332252 0.713609 0.627336 -0.568358
C69   C     C_3   0.297484 0.656887 0.576766 0.070695
H29   H     H_    0.289998 0.504947 0.580645 0.143541
H30   H     H_    0.314111 0.673237 0.537773 0.102118
C70   C     C_3   0.245163 0.760763 0.569720 -0.302452
H31   H     H_    0.228249 0.737027 0.607962 0.224662
H32   H     H_    0.251483 0.913349 0.565467 0.161926
C71   C     C_3   0.206233 0.692951 0.517313 -0.852356
H33   H     H_    0.221789 0.718410 0.478195 0.230798
H34   H     H_    0.168811 0.770234 0.513727 0.232386
H35   H     H_    0.198418 0.541173 0.520972 0.231145
O22   O     O_3   0.633789 0.285685 0.333930 -0.567977
C72   C     C_3   0.588416 0.357197 0.297247 0.065886
H36   H     H_    0.598973 0.495655 0.281818 0.141388
H37   H     H_    0.555963 0.383851 0.319859 0.104793
C73   C     C_3   0.569861 0.230872 0.245142 -0.334260
H38   H     H_    0.602872 0.203922 0.223557 0.204663
H39   H     H_    0.556209 0.094423 0.258846 0.176174
C74   C     C_3   0.524976 0.321161 0.202951 -0.830307
H40   H     H_    0.490627 0.341087 0.223049 0.229351
H41   H     H_    0.513405 0.229406 0.165111 0.231967
H42   H     H_    0.537148 0.458935 0.188654 0.230531
O23   O     O_3   0.167744 0.213607 0.872660 -0.568359
C75   C     C_3   0.202510 0.156875 0.923231 0.070694
H43   H     H_    0.209997 0.004936 0.919349 0.143543
H44   H     H_    0.185882 0.173218 0.962222 0.102119
C76   C     C_3   0.254832 0.260750 0.930279 -0.302452
H45   H     H_    0.271747 0.237025 0.892037 0.224662
H46   H     H_    0.248512 0.413335 0.934536 0.161927
C77   C     C_3   0.293761 0.192924 0.982685 -0.852359
H47   H     H_    0.278205 0.218373 0.021803 0.230800
H48   H     H_    0.331184 0.270207 0.986273 0.232378
H49   H     H_    0.301576 0.041148 0.979023 0.231145
O24   O     O_3   0.866209 0.785686 0.166068 -0.567977
C78   C     C_3   0.911583 0.857198 0.202751 0.065888
H50   H     H_    0.901026 0.995656 0.218180 0.141388
H51   H     H_    0.944035 0.883854 0.180139 0.104793
C79   C     C_3   0.930138 0.730872 0.254856 -0.334265
H52   H     H_    0.897128 0.703922 0.276442 0.204663
H53   H     H_    0.943791 0.594424 0.241151 0.176175
C80   C     C_3   0.975024 0.821161 0.297047 -0.830303
H54   H     H_    0.009372 0.841091 0.276947 0.229352
H55   H     H_    0.986596 0.729403 0.334885 0.231955
H56   H     H_    0.962851 0.958932 0.311345 0.230538
O25   O     O_3   0.412256 0.230119 0.467011 -0.576107
C81   C     C_3   0.367283 0.124791 0.442707 0.082073
H57   H     H_    0.332881 0.195999 0.453808 0.140513
H58   H     H_    0.367350 0.979328 0.459709 0.107344
C82   C     C_3   0.360339 0.119877 0.377775 -0.317651
H59   H     H_    0.359708 0.265171 0.361151 0.203043
H60   H     H_    0.393728 0.044401 0.365895 0.188933
C83   C     C_3   0.309615 0.021397 0.350262 -0.838153
H61   H     H_    0.309788 0.874814 0.365677 0.231681
H62   H     H_    0.305777 0.019581 0.303300 0.233303
H63   H     H_    0.275421 0.096344 0.360498 0.229286
O26   O     O_3   0.587719 0.774286 0.534010 -0.578383
C84   C     C_3   0.623334 0.861460 0.578942 0.066879
H64   H     H_    0.648207 0.749724 0.602730 0.147162
H65   H     H_    0.603794 0.932399 0.610399 0.107146
C85   C     C_3   0.658742 0.999357 0.555548 -0.301874
H66   H     H_    0.677570 0.927049 0.523942 0.211595
H67   H     H_    0.634949 0.117253 0.533915 0.196896
C86   C     C_3   0.701103 0.078388 0.603063 -0.840222
H68   H     H_    0.683092 0.153618 0.634751 0.231474
H69   H     H_    0.725801 0.178238 0.584790 0.235385
H70   H     H_    0.726398 0.964049 0.624700 0.229034
O27   O     O_3   0.087741 0.730129 0.032985 -0.576107
C87   C     C_3   0.132714 0.624803 0.057289 0.082071
H71   H     H_    0.167115 0.696007 0.046186 0.140512
H72   H     H_    0.132647 0.479336 0.040291 0.107344
C88   C     C_3   0.139660 0.619904 0.122223 -0.317649
H73   H     H_    0.140292 0.765202 0.138843 0.203042
H74   H     H_    0.106270 0.544434 0.134105 0.188933
C89   C     C_3   0.190384 0.521425 0.149735 -0.838152
H75   H     H_    0.190210 0.374838 0.134324 0.231681
H76   H     H_    0.194223 0.519619 0.196698 0.233302
H77   H     H_    0.224577 0.596365 0.139497 0.229287
O28   O     O_3   0.912280 0.274282 0.965989 -0.578382
C90   C     C_3   0.876664 0.361455 0.921057 0.066877
H78   H     H_    0.851796 0.249714 0.897266 0.147160
H79   H     H_    0.896203 0.432415 0.889603 0.107146
C91   C     C_3   0.841250 0.499325 0.944453 -0.301869
H80   H     H_    0.822423 0.426997 0.976055 0.211595
H81   H     H_    0.865038 0.617225 0.966090 0.196898
C92   C     C_3   0.798888 0.578355 0.896938 -0.840225
H82   H     H_    0.816899 0.653610 0.865254 0.231476
H83   H     H_    0.774185 0.678181 0.915212 0.235384
H84   H     H_    0.773598 0.464012 0.875295 0.229034

loop_
_geom_bond_atom_site_label_1
_geom_bond_atom_site_label_2
_ccdc_geom_bond_type
C26   H10   S    
C81   H58   S    
O1    C5    A    
O25   C81   S    
C47   C51   S    
O19   V1    S    
O13   V1    S    
C82   H59   S    
C56   C68   T    
O3    C7    A    
C76   H45   S    
C52   H20   S    
C36   C40   A    
O15   V3    S    
C71   H33   S    
C10   C30   A    
C80   H54   S    
C9    C29   A    
C92   H82   S    
C85   H66   S    
C1    C56   S    
O7    C3    A    
C22   H6    S    
C91   H81   S    
O21   C69   S    
C87   C88   S    
C7    C30   S    
C87   H72   S    
C45   C62   S    
C46   C58   S    
O10   V2    S    
C14   H2    S    
C45   C57   S    
C86   H69   S    
C4    C53   S    
O4    C8    A    
C74   H42   S    
C89   H77   S    
C47   C59   S    
O23   C75   S    
O1    V3    S    
C21   C25   A    
O2    V4    S    
C37   C41   A    
O3    V1    S    
C34   C41   A    
C33   C42   A    
C24   C28   A    
C79   C80   S    
C27   C31   A    
C1    O15   A    
C48   C52   S    
C2    O16   A    
O22   C72   S    
C84   H65   S    
C77   H49   S    
C34   C38   A    
C72   C73   S    
C79   H52   S    
C33   C37   A    
O28   C90   S    
O14   V2    S    
C11   C31   A    
C58   C62   S    
C16   H4    S    
C47   H23   S    
C83   H63   S    
C57   C61   S    
O11   C7    A    
C89   H75   S    
C10   O22   S    
C90   H78   S    
O12   C8    A    
C54   C66   T    
C78   C79   S    
C9    O21   S    
C82   H60   S    
C53   C65   T    
C2    C55   S    
C38   C42   A    
C73   C74   S    
C55   C67   T    
C80   H55   S    
C26   C30   A    
C50   H18   S    
O5    V1    S    
C92   H83   S    
C49   C61   S    
C40   C44   A    
O7    V3    S    
C91   H80   S    
C12   O24   S    
C88   H73   S    
O8    V4    S    
C75   C76   S    
C12   C16   A    
C76   C77   S    
C75   H44   S    
C46   C50   S    
C86   H70   S    
C25   C29   A    
C45   C49   S    
O18   V4    S    
C73   H38   S    
C15   H3    S    
H25   C58   S    
C36   O28   S    
C49   C58   S    
C91   C92   S    
C17   C42   S    
C9    C13   A    
C64   C68   S    
H27   C60   S    
C22   C26   A    
C51   C60   S    
C11   C15   A    
C86   H68   S    
C88   H74   S    
O5    C1    A    
C70   H32   S    
C90   C91   S    
C18   C41   S    
C34   O26   S    
C17   C21   A    
O8    C4    A    
C84   C85   S    
C3    C54   S    
C12   C32   A    
C89   H76   S    
O24   C78   S    
O9    C5    A    
C48   H24   S    
C19   C44   S    
C74   H41   S    
O11   V3    S    
C78   H51   S    
C52   C64   S    
C47   C64   S    
C62   C66   S    
C8    C29   S    
C61   C65   S    
C73   H39   S    
O26   C84   S    
O6    V2    S    
C63   C67   S    
C46   C61   S    
C5    C32   S    
C70   H31   S    
C82   C83   S    
C77   H48   S    
C23   C27   A    
C69   H30   S    
C71   H35   S    
C60   C64   S    
C80   H56   S    
C83   H61   S    
C15   C19   A    
C35   C44   A    
O16   V4    S    
C92   H84   S    
O9    V1    S    
C16   C20   A    
C3    O13   A    
C49   H17   S    
C85   H67   S    
C76   H46   S    
C10   C14   A    
O17   V3    S    
C40   H16   S    
C35   O27   S    
C75   H43   S    
C71   H34   S    
O6    C2    A    
H28   C59   S    
C19   C23   A    
C74   H40   S    
C85   C86   S    
C52   C59   S    
C25   H9    S    
O12   V4    S    
C18   C22   A    
C27   H11   S    
C20   C43   S    
C28   H12   S    
O10   C6    A    
C48   C63   S    
O20   V2    S    
C88   C89   S    
O27   C87   S    
O2    C6    A    
C35   C39   A    
C79   H53   S    
C39   C43   A    
C72   H36   S    
C81   H57   S    
C39   H15   S    
C69   C70   S    
C70   C71   S    
C21   H5    S    
C83   H62   S    
C51   C63   S    
C23   H7    S    
C50   C62   S    
C13   H1    S    
C46   H22   S    
C33   O25   S    
C6    C31   S    
C14   C18   A    
C36   C43   A    
C45   H21   S    
C51   H19   S    
C48   C60   S    
C20   C24   A    
C28   C32   A    
C81   C82   S    
C84   H64   S    
C38   H14   S    
C4    O14   A    
C78   H50   S    
C90   H79   S    
C72   H37   S    
C37   H13   S    
C77   H47   S    
C87   H71   S    
H26   C57   S    
C59   C63   S    
C50   C57   S    
C69   H29   S    
C13   C17   A    
O4    V2    S    
C24   H8    S    
C11   O23   S    
