data_mof_unit_23460.cif
_audit_creation_date              2012-12-10T18:16:16-0500
_audit_creation_method            fapswitch 2.2
_symmetry_space_group_name_H-M    P1
_symmetry_Int_Tables_number       1
_space_group_crystal_system       triclinic
_cell_length_a                    15.912657
_cell_length_b                    14.689114
_cell_length_c                    10.651799
_cell_angle_alpha                 90.036974
_cell_angle_beta                  90.487168
_cell_angle_gamma                 90.34471
_cell_volume                      2489.64600972

loop_
_atom_site_label
_atom_site_type_symbol
_atom_type_description
_atom_site_fract_x
_atom_site_fract_y
_atom_site_fract_z
_atom_type_partial_charge
C1    C     C_R   0.339960 0.499727 0.500708 0.814062
C2    C     C_3   0.496847 0.500082 0.122541 -0.058206
C3    C     C_3   0.051454 0.587337 0.586393 0.032147
C4    C     C_3   0.051118 0.415289 0.586143 0.054276
C5    C     C_3   0.952272 0.415776 0.586724 -0.182975
C6    C     C_3   0.953609 0.595266 0.570843 -0.165629
C7    C     C_1   0.749740 0.500760 0.501329 -0.175371
C8    C     C_3   0.083816 0.500828 0.514372 0.184273
C9    C     C_3   0.917426 0.502553 0.516728 0.168112
C10   C     C_3   0.951042 0.495987 0.380032 -0.458411
C11   C     C_3   0.047912 0.499823 0.378351 -0.422942
C12   C     C_1   0.825192 0.501456 0.506954 -0.075969
C13   C     C_1   0.175703 0.499689 0.509979 -0.015102
C14   C     C_R   0.497701 0.499965 0.258856 0.806175
C15   C     C_1   0.250849 0.499177 0.505306 -0.193269
C16   C     C_3   0.578720 0.054069 0.571392 -0.364169
C17   C     C_3   0.577369 0.948205 0.575744 -0.385041
C18   C     C_3   0.495693 0.052520 0.365079 0.146115
C19   C     C_3   0.502825 0.944952 0.365112 0.119832
C20   C     C_3   0.499910 0.092491 0.502651 0.094672
C21   C     C_3   0.499753 0.907692 0.504335 0.048518
C22   C     C_3   0.416335 0.946267 0.564220 -0.181122
C23   C     C_3   0.419700 0.054455 0.571475 -0.196712
C24   C     C_1   0.500740 0.804651 0.503572 0.080127
C25   C     C_1   0.500950 0.195376 0.502434 0.108607
C26   C     C_R   0.660135 0.500232 0.498618 0.838945
C27   C     C_R   0.500375 0.500071 0.740955 0.792594
C28   C     C_3   0.435847 0.555215 0.039733 -0.232394
C29   C     C_3   0.485473 0.414056 0.040795 -0.152066
C30   C     C_3   0.426221 0.470054 0.957068 0.330092
C31   C     C_3   0.500183 0.500348 0.877294 -0.045500
C32   C     C_3   0.511553 0.586100 0.958944 -0.232421
C33   C     C_3   0.561356 0.445771 0.960455 -0.240876
C34   C     C_3   0.571579 0.531267 0.044004 0.052383
Cu1   Cu    Cu3+1 0.499910 0.589920 0.499840 0.963473
Cu2   Cu    Cu3+1 0.499910 0.410080 0.499840 0.967284
H1    H     H_    0.926969 0.553420 0.323185 0.175245
H2    H     H_    0.928670 0.432260 0.333522 0.171177
H3    H     H_    0.636439 0.922182 0.534398 0.166469
H4    H     H_    0.637646 0.077445 0.527934 0.166135
H5    H     H_    0.430378 0.065435 0.330985 0.035893
H6    H     H_    0.445754 0.917152 0.316460 0.088657
H7    H     H_    0.365087 0.077182 0.513479 0.088511
H8    H     H_    0.367297 0.929831 0.492087 0.091612
H9    H     H_    0.583787 0.082303 0.667565 0.156399
H10   H     H_    0.578949 0.926142 0.674889 0.153224
H11   H     H_    0.384381 0.599119 0.074163 0.133823
H12   H     H_    0.473423 0.344095 0.075959 0.136813
H13   H     H_    0.525213 0.655242 0.922384 0.142057
H14   H     H_    0.612231 0.401716 0.924446 0.138591
H15   H     H_    0.065620 0.578083 0.688089 0.127206
H16   H     H_    0.077469 0.420634 0.682715 0.125567
H17   H     H_    0.931811 0.357329 0.526768 0.144822
H18   H     H_    0.942276 0.645869 0.494570 0.153749
H19   H     H_    0.068722 0.561151 0.325929 0.162742
H20   H     H_    0.072315 0.440966 0.324460 0.173123
N1    N     N_1   0.501390 0.724970 0.502570 -0.153722
N2    N     N_1   0.501390 0.275030 0.502570 -0.157013
O1    O     O_R   0.379360 0.575970 0.499860 -0.575675
O2    O     O_R   0.379360 0.424030 0.499860 -0.566870
O3    O     O_R   0.499910 0.575920 0.316720 -0.581639
O4    O     O_R   0.499910 0.424080 0.316720 -0.586580
O5    O     O_R   0.620490 0.575900 0.499870 -0.564376
O6    O     O_R   0.620490 0.424100 0.499870 -0.578990
O7    O     O_R   0.499950 0.575950 0.683010 -0.582742
O8    O     O_R   0.499950 0.424050 0.683010 -0.563810
N3    N     N_2   0.347097 0.437778 0.905367 -0.426206
H21   H     H_    0.325546 0.477260 0.832001 0.239328
C35   C     C_3   0.283068 0.419327 0.997573 -0.746252
H22   H     H_    0.226546 0.390211 0.950358 0.220357
H23   H     H_    0.264738 0.483221 0.045719 0.221306
H24   H     H_    0.306239 0.369552 0.068041 0.232206
N4    N     N_2   0.548619 0.099072 0.272755 -0.409720
H25   H     H_    0.520900 0.155621 0.232988 0.231101
C36   C     C_3   0.638250 0.110987 0.291371 -0.634086
H26   H     H_    0.667431 0.127799 0.199917 0.208256
H27   H     H_    0.668375 0.048142 0.326544 0.250860
H28   H     H_    0.650848 0.168764 0.356191 0.202987
N5    N     N_2   0.576264 0.913077 0.296575 -0.396813
H29   H     H_    0.609044 0.860278 0.337059 0.242763
C37   C     C_3   0.564309 0.899742 0.162756 -0.705050
H30   H     H_    0.625734 0.885373 0.118488 0.217177
H31   H     H_    0.537582 0.961456 0.118275 0.253400
H32   H     H_    0.521138 0.841316 0.145224 0.203099
C38   C     C_R   0.405369 0.097150 0.701335 0.161682
C39   C     C_R   0.450717 0.070681 0.809580 -0.107177
C40   C     C_R   0.435273 0.111430 0.925680 -0.168334
C41   C     C_R   0.374087 0.178533 0.936074 -0.102270
C42   C     C_R   0.328139 0.205021 0.830294 -0.086962
C43   C     C_R   0.343676 0.165037 0.713908 -0.170479
H33   H     H_    0.496897 0.017364 0.805922 0.122629
H34   H     H_    0.470427 0.090490 0.007947 0.129062
H35   H     H_    0.361967 0.209526 0.026247 0.114276
H36   H     H_    0.280112 0.256376 0.838140 0.144066
H37   H     H_    0.307254 0.187395 0.633424 0.123634
C44   C     C_R   0.379665 0.900654 0.681526 0.154170
C45   C     C_R   0.425794 0.844741 0.764700 -0.127162
C46   C     C_R   0.388042 0.808955 0.872242 -0.143372
C47   C     C_R   0.303844 0.826493 0.897418 -0.114003
C48   C     C_R   0.256984 0.880356 0.815435 -0.138571
C49   C     C_R   0.294422 0.917084 0.708572 -0.150256
H38   H     H_    0.490698 0.828425 0.749252 0.115297
H39   H     H_    0.424164 0.767907 0.936924 0.118088
H40   H     H_    0.274965 0.798393 0.980586 0.114975
H41   H     H_    0.191577 0.893926 0.834766 0.121707
H42   H     H_    0.256912 0.959408 0.646834 0.110260
C50   C     C_R   0.650541 0.571098 0.099701 0.082099
C51   C     C_R   0.726551 0.523717 0.094629 -0.175039
C52   C     C_R   0.800158 0.563720 0.141710 -0.128697
C53   C     C_R   0.798106 0.650245 0.196316 -0.117510
C54   C     C_R   0.722148 0.696727 0.204657 -0.142462
C55   C     C_R   0.648550 0.657395 0.156425 -0.126379
H43   H     H_    0.729214 0.456947 0.052291 0.131862
H44   H     H_    0.858907 0.528040 0.134454 0.121215
H45   H     H_    0.855299 0.681470 0.231833 0.111335
H46   H     H_    0.720555 0.763511 0.247375 0.123574
H47   H     H_    0.590112 0.694330 0.162309 0.138930
C56   C     C_R   0.911925 0.641802 0.684001 0.098974
C57   C     C_R   0.843768 0.604820 0.751708 -0.122015
C58   C     C_R   0.802729 0.655978 0.842909 -0.126848
C59   C     C_R   0.830292 0.743563 0.872507 -0.105422
C60   C     C_R   0.897986 0.781225 0.808444 -0.163559
C61   C     C_R   0.937476 0.731601 0.714047 -0.158139
H48   H     H_    0.819580 0.537563 0.734967 0.149261
H49   H     H_    0.748408 0.627958 0.889283 0.149275
H50   H     H_    0.798460 0.782617 0.943809 0.125720
H51   H     H_    0.918733 0.849862 0.829766 0.123277
H52   H     H_    0.986673 0.765131 0.662059 0.165702
C62   C     C_R   0.915161 0.395480 0.715710 0.101665
C63   C     C_R   0.949106 0.432336 0.827719 -0.133144
C64   C     C_R   0.919255 0.404118 0.944382 -0.136513
C65   C     C_R   0.853108 0.341628 0.951498 -0.137831
C66   C     C_R   0.816497 0.307244 0.841721 -0.141940
C67   C     C_R   0.847601 0.333287 0.724723 -0.161372
H53   H     H_    0.998842 0.482538 0.826421 0.100660
H54   H     H_    0.948038 0.430409 0.029417 0.113689
H55   H     H_    0.829996 0.320157 0.042127 0.115631
H56   H     H_    0.764732 0.259303 0.847241 0.123495
H57   H     H_    0.819222 0.304182 0.640960 0.119468
N6    N     N_2   0.083252 0.331232 0.531567 -0.414104
H58   H     H_    0.059792 0.314793 0.443871 0.252495
C68   C     C_3   0.087688 0.253759 0.615240 -0.714710
H59   H     H_    0.117909 0.195935 0.566301 0.219456
H60   H     H_    0.023565 0.232648 0.644274 0.229916
H61   H     H_    0.126246 0.270659 0.699648 0.230135
N7    N     N_2   0.092246 0.671049 0.543494 -0.445570
H62   H     H_    0.099728 0.679461 0.448279 0.255547
C69   C     C_3   0.158644 0.709434 0.621332 -0.701413
H63   H     H_    0.176062 0.777787 0.585177 0.227137
H64   H     H_    0.215094 0.665657 0.619876 0.246465
H65   H     H_    0.137057 0.717366 0.719613 0.225799

loop_
_geom_bond_atom_site_label_1
_geom_bond_atom_site_label_2
_ccdc_geom_bond_type
C40   C41   A    
C28   H11   S    
C8    C13   S    
N4    H25   S    
Cu1   Cu2   S    
C69   H65   S    
C4    C8    S    
C3    C6    S    
C6    C9    S    
C45   C46   A    
C43   H37   S    
C57   H48   S    
C48   H41   S    
C7    C26   S    
C4    H16   S    
C10   H1    S    
C34   C50   S    
C5    H17   S    
C19   C21   S    
N6    C68   S    
C62   C63   A    
Cu2   N2    S    
C39   H33   S    
C1    O1    A    
C30   C31   S    
Cu2   O8    S    
C20   C25   S    
Cu1   O7    S    
C46   H39   S    
C14   O4    A    
C29   C33   S    
C42   H36   S    
C23   H7    S    
C51   C52   A    
Cu1   O1    S    
C18   C19   S    
C17   H3    S    
C60   H51   S    
C35   H23   S    
C26   O6    A    
C56   C57   A    
C53   C54   A    
C22   H8    S    
C47   C48   A    
C16   C17   S    
C50   C51   A    
C31   C33   S    
C54   H46   S    
C1    C15   S    
C9    C10   S    
C45   H38   S    
C19   H6    S    
C2    C34   S    
C5    C62   S    
C47   H40   S    
C66   H56   S    
C44   C49   A    
N4    C36   S    
C68   H61   S    
C6    H18   S    
Cu2   O4    S    
C36   H28   S    
C37   H31   S    
C40   H34   S    
C37   H30   S    
N7    C69   S    
C7    C12   T    
C29   H12   S    
C27   C31   S    
N3    H21   S    
C28   C32   S    
C17   H10   S    
C64   H54   S    
C1    O2    A    
C67   H57   S    
N5    C37   S    
C3    H15   S    
C39   C40   A    
C24   N1    T    
C65   H55   S    
C38   C39   A    
C14   O3    A    
C17   C21   S    
C62   C67   A    
N3    C35   S    
C32   C34   S    
C51   H43   S    
C35   H24   S    
C36   H26   S    
C5    C9    S    
C29   C30   S    
C27   O7    A    
C4    N6    S    
C31   C32   S    
C20   C23   S    
C16   C20   S    
C44   C45   A    
C33   C34   S    
Cu1   O3    S    
C50   C55   A    
N6    H58   S    
C57   C58   A    
C19   N5    S    
C36   H27   S    
C59   C60   A    
C52   H44   S    
C16   H4    S    
C63   H53   S    
C3    C8    S    
C18   N4    S    
C13   C15   T    
C66   C67   A    
C68   H60   S    
C18   H5    S    
C25   N2    T    
C64   C65   A    
C42   C43   A    
C37   H32   S    
C11   H19   S    
C58   C59   A    
N7    H62   S    
C49   H42   S    
C41   H35   S    
C26   O5    A    
C54   C55   A    
C58   H49   S    
C22   C44   S    
C30   N3    S    
C69   H64   S    
C4    C5    S    
Cu2   O2    S    
C16   H9    S    
Cu1   O5    S    
C38   C43   A    
C10   H2    S    
Cu1   N1    S    
C28   C30   S    
C63   C64   A    
C33   H14   S    
C59   H50   S    
C27   O8    A    
Cu2   O6    S    
C52   C53   A    
C61   H52   S    
C55   H47   S    
C8    C11   S    
C53   H45   S    
C48   C49   A    
C65   C66   A    
C18   C20   S    
C56   C61   A    
C35   H22   S    
C2    C14   S    
C9    C12   S    
C32   H13   S    
C10   C11   S    
N5    H29   S    
C2    C29   S    
C41   C42   A    
C3    N7    S    
C46   C47   A    
C23   C38   S    
C21   C24   S    
C68   H59   S    
C22   C23   S    
C2    C28   S    
C60   C61   A    
C21   C22   S    
C69   H63   S    
C6    C56   S    
C11   H20   S    
