data_mof_unit_50211.cif
_audit_creation_date              2012-12-11T15:53:38-0500
_audit_creation_method            fapswitch 2.2
_symmetry_space_group_name_H-M    P1
_symmetry_Int_Tables_number       1
_space_group_crystal_system       triclinic
_cell_length_a                    6.923617
_cell_length_b                    14.548003
_cell_length_c                    15.974681
_cell_angle_alpha                 90.580549
_cell_angle_beta                  90.081796
_cell_angle_gamma                 90.001015
_cell_volume                      1608.96232494

loop_
_atom_site_label
_atom_site_type_symbol
_atom_type_description
_atom_site_fract_x
_atom_site_fract_y
_atom_site_fract_z
_atom_type_partial_charge
O1    O     O_R   0.361600 0.167310 0.164620 -0.543462
O2    O     O_R   0.638400 0.832690 0.835380 -0.543463
O3    O     O_R   0.691080 0.157570 0.338750 -0.539288
O4    O     O_R   0.308920 0.842430 0.661250 -0.539288
O5    O     O_R   0.861410 0.336420 0.339360 -0.542139
O6    O     O_R   0.138590 0.663580 0.660640 -0.542139
C1    C     C_R   0.521760 0.137031 0.368929 0.747036
C2    C     C_R   0.478240 0.862969 0.631071 0.747036
O7    O     O_R   0.691320 0.156280 0.165240 -0.542859
O8    O     O_R   0.308680 0.843720 0.834760 -0.542859
O9    O     O_R   0.861640 0.335130 0.164600 -0.518016
O10   O     O_R   0.138360 0.664870 0.835400 -0.518016
C3    C     C_R   0.522199 0.133738 0.136110 0.728888
C4    C     C_R   0.477801 0.866262 0.863890 0.728888
O11   O     O_R   0.361370 0.168600 0.339370 -0.516784
O12   O     O_R   0.638630 0.831400 0.660630 -0.516784
O13   O     O_3   0.527990 0.310540 0.251980 -0.365530
O14   O     O_3   0.472010 0.689460 0.748020 -0.365530
V1    V     V_3+5 0.802830 0.240980 0.251990 1.507366
V2    V     V_3+5 0.197170 0.759020 0.748010 1.507365
O15   O     O_R   0.191360 0.346160 0.165220 -0.538130
O16   O     O_R   0.808640 0.653840 0.834780 -0.538130
C5    C     C_R   0.021798 0.366393 0.134656 0.743519
C6    C     C_R   0.978202 0.633607 0.865343 0.743520
O17   O     O_R   0.191130 0.347440 0.338740 -0.539969
O18   O     O_R   0.808870 0.652560 0.661260 -0.539969
C7    C     C_R   0.022354 0.369760 0.367591 0.724056
C8    C     C_R   0.977646 0.630240 0.632408 0.724056
V3    V     V_3+5 0.302840 0.262750 0.251990 1.512274
V4    V     V_3+5 0.697160 0.737250 0.748010 1.512274
O19   O     O_3   0.027820 0.193180 0.251990 -0.367350
O20   O     O_3   0.972180 0.806820 0.748010 -0.367350
C9    C     C_3   0.922149 0.420053 0.524048 -0.108441
C10   C     C_3   0.077851 0.579947 0.475951 -0.108441
C11   C     C_3   0.096318 0.468389 0.566793 -0.136949
C12   C     C_3   0.903682 0.531611 0.433207 -0.136949
H1    H     H_    0.175570 0.442671 0.622288 0.123633
H2    H     H_    0.824430 0.557329 0.377712 0.123633
H3    H     H_    0.858049 0.353643 0.543421 0.144619
H4    H     H_    0.141951 0.646357 0.456578 0.144619
C13   C     C_3   0.988066 0.560641 0.562147 -0.024008
C14   C     C_3   0.011933 0.439359 0.437853 -0.024008
C15   C     C_3   0.813714 0.513103 0.520192 -0.123759
C16   C     C_3   0.186286 0.486897 0.479808 -0.123759
H5    H     H_    0.660026 0.524175 0.537241 0.116077
H6    H     H_    0.339974 0.475825 0.462759 0.116077
C17   C     C_R   0.841954 0.502340 0.945782 -0.176645
C18   C     C_R   0.158046 0.497660 0.054218 -0.176645
H7    H     H_    0.719513 0.502201 0.903470 0.179196
H8    H     H_    0.280487 0.497799 0.096529 0.179196
C19   C     C_R   0.849264 0.436283 0.008958 0.279877
C20   C     C_R   0.150736 0.563717 0.991042 0.279877
C21   C     C_R   0.008765 0.433544 0.064823 -0.151254
C22   C     C_R   0.991235 0.566456 0.935177 -0.151254
C23   C     C_R   0.656205 0.002554 0.444998 -0.176885
C24   C     C_R   0.343795 0.997445 0.555002 -0.176885
H9    H     H_    0.776878 0.002580 0.401889 0.178138
H10   H     H_    0.223122 0.997420 0.598111 0.178138
C25   C     C_R   0.648185 0.934437 0.506182 0.279531
C26   C     C_R   0.351814 0.065563 0.493818 0.279531
C27   C     C_R   0.490672 0.931551 0.562752 -0.150683
C28   C     C_R   0.509328 0.068449 0.437248 -0.150682
C29   C     C_R   0.679700 0.025959 0.032565 -0.127359
C30   C     C_R   0.320300 0.974040 0.967435 -0.127359
H11   H     H_    0.820634 0.044960 0.056561 0.117199
H12   H     H_    0.179366 0.955040 0.943439 0.117199
C31   C     C_R   0.668751 0.961862 0.966795 -0.130575
C32   C     C_R   0.331249 0.038138 0.033204 -0.130575
H13   H     H_    0.801761 0.933250 0.942289 0.118805
H14   H     H_    0.198239 0.066749 0.057710 0.118805
C33   C     C_R   0.488904 0.935061 0.933292 -0.039999
C34   C     C_R   0.511096 0.064939 0.066708 -0.040000
Br1   Br    Br    0.639959 0.349345 0.010731 -0.559716
Br2   Br    Br    0.360040 0.650656 0.989269 -0.559716
Br3   Br    Br    0.852900 0.844989 0.504373 -0.580413
Br4   Br    Br    0.147100 0.155011 0.495627 -0.580413

loop_
_geom_bond_atom_site_label_1
_geom_bond_atom_site_label_2
_ccdc_geom_bond_type
C29   H11   S    
C23   C25   A    
O13   V3    S    
C4    C33   S    
C12   C14   S    
O4    C2    A    
V1    O19   S    
C17   H7    S    
O9    V1    S    
C9    H3    S    
C20   Br2   S    
C10   H4    S    
C9    C14   S    
C30   C32   A    
C11   H1    S    
O3    C1    A    
O12   V4    S    
C23   C28   A    
C8    C13   S    
C26   C28   A    
C30   C33   A    
O9    C5    A    
O7    C3    A    
C9    C11   S    
O5    C7    A    
O7    V1    S    
O6    C8    A    
O8    V2    S    
O3    V1    S    
O14   V4    S    
O14   V2    S    
C2    C27   S    
C20   C22   A    
C1    O11   A    
C2    O12   A    
C13   C15   S    
C10   C13   S    
C14   C16   S    
O2    C4    A    
C16   H6    S    
O11   V3    S    
O15   C5    A    
O17   V3    S    
C18   C21   A    
C29   C31   A    
C25   C27   A    
C9    C15   S    
C10   C16   S    
O8    C4    A    
C17   C19   A    
O15   V3    S    
C26   Br4   S    
C24   C26   A    
C31   H13   S    
C30   H12   S    
C1    C28   S    
C32   C34   A    
O10   V2    S    
O1    V3    S    
C11   C16   S    
C15   H5    S    
C17   C22   A    
O18   V4    S    
C23   H9    S    
O16   C6    A    
O1    C3    A    
C25   Br3   S    
V2    O20   S    
O16   V4    S    
C19   Br1   S    
O5    V1    S    
C3    C34   S    
O17   C7    A    
O6    V2    S    
O10   C6    A    
O18   C8    A    
O2    V4    S    
C12   H2    S    
V3    O19   S    
V4    O20   S    
C7    C14   S    
C5    C21   S    
C18   H8    S    
O13   V1    S    
C10   C12   S    
C24   H10   S    
C31   C33   A    
C11   C13   S    
O4    V2    S    
C18   C20   A    
C29   C34   A    
C32   H14   S    
C24   C27   A    
C12   C15   S    
C19   C21   A    
C6    C22   S    
