data_mof_unit_15480.cif
_audit_creation_date              2012-12-11T14:01:45-0500
_audit_creation_method            fapswitch 2.2
_symmetry_space_group_name_H-M    P1
_symmetry_Int_Tables_number       1
_space_group_crystal_system       triclinic
_cell_length_a                    19.102098
_cell_length_b                    10.878835
_cell_length_c                    18.896485
_cell_angle_alpha                 90.153732
_cell_angle_beta                  89.616447
_cell_angle_gamma                 90.071509
_cell_volume                      3926.74647649

loop_
_atom_site_label
_atom_site_type_symbol
_atom_type_description
_atom_site_fract_x
_atom_site_fract_y
_atom_site_fract_z
_atom_type_partial_charge
C1    C     C_R   0.272679 0.041375 0.854024 0.562744
C2    C     C_R   0.727269 0.040964 0.145900 0.561269
C3    C     C_R   0.786893 0.504558 0.861365 0.561481
C4    C     C_R   0.227364 0.541416 0.146089 0.563651
C5    C     C_R   0.538743 0.064064 0.062338 -0.106150
C6    C     C_R   0.457656 0.057815 0.944032 -0.109779
C7    C     C_R   0.039449 0.562408 0.060176 -0.107000
C8    C     C_R   0.961244 0.563089 0.939714 -0.110779
C9    C     C_R   0.021362 0.673394 0.029648 -0.127006
C10   C     C_R   0.980783 0.673766 0.970123 -0.125440
C11   C     C_R   0.514408 0.173218 0.034058 -0.128609
C12   C     C_R   0.472105 0.169796 0.975748 -0.122276
C13   C     C_2   0.249750 0.581534 0.920747 -0.126715
C14   C     C_2   0.757551 0.563572 0.086789 -0.128986
C15   C     C_2   0.748765 0.080019 0.920124 -0.112363
C16   C     C_2   0.250707 0.080192 0.079553 -0.126755
C17   C     C_2   0.250206 0.584974 0.076603 -0.043609
C18   C     C_2   0.767713 0.538743 0.933608 -0.044538
C19   C     C_2   0.749928 0.082806 0.075969 -0.043019
C20   C     C_2   0.249979 0.083987 0.923862 -0.045317
C21   C     C_2   0.297003 0.522395 0.036532 0.207863
C22   C     C_2   0.723181 0.471600 0.973767 0.199234
C23   C     C_2   0.795277 0.017340 0.035575 0.207812
C24   C     C_2   0.203673 0.019888 0.963751 0.207743
C25   C     C_2   0.304951 0.552837 0.961095 -0.175940
C26   C     C_2   0.708049 0.510947 0.047127 -0.176623
C27   C     C_2   0.803347 0.046763 0.959997 -0.172700
C28   C     C_2   0.195757 0.049268 0.039383 -0.176104
C29   C     C_2   0.486301 0.829398 0.571680 -0.104432
C30   C     C_2   0.488526 0.839609 0.416131 -0.106900
C31   C     C_2   0.986602 0.329319 0.571795 -0.095938
C32   C     C_2   0.988862 0.339616 0.416290 -0.109338
C33   C     C_2   0.469850 0.740716 0.453046 -0.164120
C34   C     C_2   0.455187 0.747616 0.528324 -0.154177
C35   C     C_2   0.970042 0.240740 0.453131 -0.162932
C36   C     C_2   0.955460 0.247588 0.528412 -0.148676
C37   C     C_2   0.248103 0.569161 0.581526 -0.108044
C38   C     C_2   0.744987 0.610239 0.429923 -0.090683
C39   C     C_2   0.755530 0.111368 0.569646 -0.101845
C40   C     C_2   0.251994 0.069076 0.418199 -0.104541
C41   C     C_2   0.238320 0.572339 0.426814 -0.088843
C42   C     C_2   0.745617 0.601771 0.585046 -0.106278
C43   C     C_2   0.754938 0.103119 0.414600 -0.106154
C44   C     C_2   0.261775 0.071334 0.573039 -0.091263
C45   C     C_R   0.446050 0.819273 0.862204 0.543943
C46   C     C_R   0.561359 0.818857 0.138677 0.554922
C47   C     C_R   0.941491 0.319167 0.861827 0.536759
C48   C     C_R   0.057620 0.319060 0.138045 0.547264
C49   C     C_2   0.183353 0.563657 0.471430 -0.149782
C50   C     C_2   0.786855 0.675026 0.547056 -0.166328
C51   C     C_2   0.714151 0.177011 0.452743 -0.164654
C52   C     C_2   0.316758 0.063369 0.528364 -0.149748
C53   C     C_2   0.188760 0.588244 0.546559 -0.162642
C54   C     C_2   0.774463 0.695215 0.472541 -0.150323
C55   C     C_2   0.726832 0.197107 0.527311 -0.151406
C56   C     C_2   0.311326 0.088296 0.453292 -0.161748
C57   C     C_R   0.261112 0.636793 0.851576 0.558076
C58   C     C_R   0.739985 0.633479 0.150062 0.558504
C59   C     C_R   0.760904 0.136276 0.851339 0.566902
C60   C     C_R   0.239000 0.136232 0.148569 0.556374
C61   C     C_R   0.274184 0.042489 0.646411 0.551765
C62   C     C_R   0.728444 0.048105 0.350541 0.554758
C63   C     C_R   0.771649 0.547772 0.649364 0.562261
C64   C     C_R   0.225920 0.542940 0.353462 0.551796
C65   C     C_R   0.468047 0.823373 0.646021 0.562762
C66   C     C_R   0.527695 0.824749 0.350870 0.570366
C67   C     C_R   0.968170 0.323373 0.646092 0.564682
C68   C     C_R   0.027765 0.324748 0.350908 0.565928
C69   C     C_R   0.260566 0.634891 0.646832 0.550671
C70   C     C_R   0.737988 0.641932 0.356045 0.551846
C71   C     C_R   0.762134 0.142228 0.643780 0.550065
C72   C     C_R   0.239462 0.134877 0.353093 0.554447
C73   C     C_R   0.540467 0.831838 0.064952 0.004268
C74   C     C_R   0.476969 0.830386 0.932473 0.004189
C75   C     C_R   0.030634 0.331215 0.066374 0.004704
C76   C     C_R   0.967032 0.331537 0.934031 0.002720
C77   C     C_R   0.522514 0.946886 0.032885 0.026515
C78   C     C_R   0.485423 0.944920 0.968669 0.019337
C79   C     C_R   0.017708 0.446759 0.032494 0.022795
C80   C     C_R   0.981293 0.447020 0.967738 0.020777
C81   C     C_R   0.501080 0.721364 0.962997 -0.142922
C82   C     C_R   0.532339 0.722253 0.027703 -0.145322
C83   C     C_R   0.981954 0.221358 0.968314 -0.141639
C84   C     C_R   0.013492 0.221163 0.032613 -0.143566
Cr1   Cr    Cr6+3 0.230530 0.836340 0.748870 1.068216
Cr2   Cr    Cr6+3 0.769470 0.836340 0.251130 1.060373
Cr3   Cr    Cr6+3 0.730530 0.336340 0.748870 1.060642
Cr4   Cr    Cr6+3 0.269470 0.336340 0.251130 1.064911
Cr5   Cr    Cr6+3 0.387420 0.989430 0.750820 1.014876
Cr6   Cr    Cr6+3 0.612580 0.989430 0.249180 1.006867
Cr7   Cr    Cr6+3 0.887420 0.489430 0.750820 1.010592
Cr8   Cr    Cr6+3 0.112580 0.489430 0.249180 1.009493
Cr9   Cr    Cr6+3 0.385640 0.677860 0.749230 1.021609
Cr10  Cr    Cr6+3 0.614360 0.677860 0.250770 1.022755
Cr11  Cr    Cr6+3 0.885640 0.177860 0.749230 1.019398
Cr12  Cr    Cr6+3 0.114360 0.177860 0.250770 1.023252
H1    H     H_    0.494932 0.632777 0.937426 0.146818
H2    H     H_    0.548214 0.634858 0.049809 0.136980
H3    H     H_    0.970369 0.132782 0.944799 0.140518
H4    H     H_    0.023916 0.132430 0.056197 0.141306
H5    H     H_    0.130973 0.545226 0.451790 0.150768
H6    H     H_    0.834219 0.714601 0.569135 0.154804
H7    H     H_    0.666793 0.216570 0.430889 0.154289
H8    H     H_    0.369171 0.045577 0.547969 0.155252
H9    H     H_    0.143989 0.631970 0.571888 0.156006
H10   H     H_    0.795307 0.780706 0.451365 0.154212
H11   H     H_    0.706526 0.282831 0.548846 0.156044
H12   H     H_    0.356063 0.132417 0.428155 0.154620
H13   H     H_    0.291287 0.589908 0.444720 0.089124
H14   H     H_    0.696435 0.567648 0.564034 0.105067
H15   H     H_    0.804162 0.069154 0.435418 0.097595
H16   H     H_    0.208782 0.088231 0.555170 0.096466
H17   H     H_    0.291280 0.518635 0.557642 0.103525
H18   H     H_    0.723441 0.524339 0.449492 0.089077
H19   H     H_    0.776576 0.025225 0.549747 0.086547
H20   H     H_    0.208867 0.018137 0.441845 0.110471
H21   H     H_    0.570549 0.077561 0.106707 0.188388
H22   H     H_    0.423508 0.064466 0.901271 0.186754
H23   H     H_    0.071083 0.573428 0.104847 0.189430
H24   H     H_    0.929871 0.574807 0.894860 0.181965
H25   H     H_    0.038406 0.759427 0.052880 0.110375
H26   H     H_    0.964955 0.760114 0.946747 0.112551
H27   H     H_    0.527485 0.260474 0.058401 0.113714
H28   H     H_    0.450766 0.254063 0.954490 0.108664
H29   H     H_    0.357696 0.552756 0.939181 0.138552
H30   H     H_    0.654716 0.502134 0.066771 0.131067
H31   H     H_    0.855677 0.041795 0.937456 0.131719
H32   H     H_    0.143230 0.046541 0.061646 0.134266
H33   H     H_    0.221108 0.661036 0.054000 0.059684
H34   H     H_    0.792634 0.620487 0.955053 0.065157
H35   H     H_    0.721833 0.160070 0.053501 0.058449
H36   H     H_    0.278789 0.160441 0.946763 0.058612
H37   H     H_    0.196861 0.579547 0.942308 0.113731
H38   H     H_    0.811509 0.567453 0.068251 0.115459
H39   H     H_    0.696004 0.081487 0.942021 0.116394
H40   H     H_    0.303539 0.080026 0.057816 0.113983
H41   H     H_    0.470604 0.649613 0.429316 0.154546
H42   H     H_    0.421354 0.675819 0.549358 0.154365
H43   H     H_    0.970466 0.149718 0.429287 0.153246
H44   H     H_    0.921512 0.175919 0.549399 0.155461
H45   H     H_    0.483867 0.931336 0.438598 0.100625
H46   H     H_    0.519949 0.902637 0.552392 0.094668
H47   H     H_    0.984561 0.431297 0.438878 0.103852
H48   H     H_    0.020431 0.402380 0.552576 0.086429
O1    O     O_R   0.215090 0.709860 0.828130 -0.474664
O2    O     O_R   0.784910 0.709860 0.171870 -0.473554
O3    O     O_R   0.715090 0.209860 0.828130 -0.464578
O4    O     O_R   0.284910 0.209860 0.171870 -0.476196
O5    O     O_R   0.445660 0.919250 0.676780 -0.493768
O6    O     O_R   0.554340 0.919250 0.323220 -0.492984
O7    O     O_R   0.945660 0.419250 0.676780 -0.488077
O8    O     O_R   0.054340 0.419250 0.323220 -0.498473
O9    O     O_R   0.456260 0.718170 0.670000 -0.505751
O10   O     O_R   0.543740 0.718170 0.330000 -0.507423
O11   O     O_R   0.956260 0.218170 0.670000 -0.507465
O12   O     O_R   0.043740 0.218170 0.330000 -0.505960
O13   O     O_R   0.320940 0.626760 0.674370 -0.508359
O14   O     O_R   0.679060 0.626760 0.325630 -0.497980
O15   O     O_R   0.820940 0.126760 0.674370 -0.504535
O16   O     O_R   0.179060 0.126760 0.325630 -0.499780
O17   O     O_3   0.334530 0.834540 0.749640 -0.272962
O18   O     O_3   0.665470 0.834540 0.250360 -0.275278
O19   O     O_3   0.834530 0.334540 0.749640 -0.287842
O20   O     O_3   0.165470 0.334540 0.250360 -0.273176
O21   O     O_R   0.236990 0.958390 0.823710 -0.422163
O22   O     O_R   0.763010 0.958390 0.176290 -0.423004
O23   O     O_R   0.736990 0.458390 0.823710 -0.426531
O24   O     O_R   0.263010 0.458390 0.176290 -0.423163
O25   O     O_R   0.332380 0.074750 0.830850 -0.570094
O26   O     O_R   0.667620 0.074750 0.169150 -0.575738
O27   O     O_R   0.832380 0.574750 0.830850 -0.564203
O28   O     O_R   0.167620 0.574750 0.169150 -0.572007
O29   O     O_R   0.445800 0.917770 0.825070 -0.512733
O30   O     O_R   0.554200 0.917770 0.174930 -0.519030
O31   O     O_R   0.945800 0.417770 0.825070 -0.524104
O32   O     O_R   0.054200 0.417770 0.174930 -0.517402
O33   O     O_R   0.456410 0.716580 0.829970 -0.513900
O34   O     O_R   0.543590 0.716580 0.170030 -0.506353
O35   O     O_R   0.956410 0.216580 0.829970 -0.504927
O36   O     O_R   0.043590 0.216580 0.170030 -0.511898
O37   O     O_R   0.321080 0.625290 0.822650 -0.517794
O38   O     O_R   0.678920 0.625290 0.177350 -0.522098
O39   O     O_R   0.821080 0.125290 0.822650 -0.522987
O40   O     O_R   0.178920 0.125290 0.177350 -0.520549
O41   O     O_R   0.214930 0.711450 0.668160 -0.512288
O42   O     O_R   0.785070 0.711450 0.331840 -0.517289
O43   O     O_R   0.714930 0.211450 0.668160 -0.514344
O44   O     O_R   0.285070 0.211450 0.331840 -0.514608
O45   O     O_R   0.236850 0.959870 0.675420 -0.495036
O46   O     O_R   0.763150 0.959870 0.324580 -0.508383
O47   O     O_R   0.736850 0.459870 0.675420 -0.504998
O48   O     O_R   0.263150 0.459870 0.324580 -0.496442
O49   O     O_R   0.332230 0.076350 0.670880 -0.514474
O50   O     O_R   0.667770 0.076350 0.329120 -0.512365
O51   O     O_R   0.832230 0.576350 0.670880 -0.508640
O52   O     O_R   0.167770 0.576350 0.329120 -0.513969
O53   O     O_3   0.337608 0.430467 0.065590 -0.660868
H49   H     H_    0.367273 0.394461 0.027603 0.310171
O54   O     O_3   0.689198 0.370857 0.945447 -0.670814
H50   H     H_    0.658988 0.334383 0.982782 0.310724
O55   O     O_3   0.834447 0.923335 0.064487 -0.660782
H51   H     H_    0.863127 0.885321 0.026358 0.311733
O56   O     O_3   0.163445 0.927349 0.934295 -0.660596
H52   H     H_    0.134206 0.890124 0.972174 0.310931

loop_
_geom_bond_atom_site_label_1
_geom_bond_atom_site_label_2
_ccdc_geom_bond_type
C16   C28   D    
C69   O41   A    
Cr3   O19   S    
O56   H52   S    
C38   C70   S    
C24   O56   S    
C60   O40   A    
C37   C69   S    
C42   C63   S    
Cr1   O17   S    
O55   H51   S    
C46   O34   A    
C35   C36   S    
Cr2   O22   S    
C53   H9    S    
Cr5   O29   S    
Cr6   O6    S    
C43   C51   D    
Cr10  O38   S    
C57   O37   A    
C81   C82   A    
C3    O23   A    
C9    H25   S    
C62   O46   A    
Cr12  O12   S    
C77   C78   A    
Cr8   O32   S    
C31   C67   S    
C15   H39   S    
C50   C54   S    
C30   H45   S    
Cr3   O3    S    
C23   O55   S    
Cr11  O15   S    
C7    C79   A    
Cr1   O1    S    
C47   C76   S    
C66   O6    A    
C45   O29   A    
C31   C36   D    
C16   C60   S    
C38   H18   S    
C49   C53   S    
C75   C84   A    
C6    C78   A    
C37   H17   S    
C51   H7    S    
C3    C18   S    
C7    C9    A    
C26   H30   S    
C41   C49   D    
C31   H48   S    
C25   H29   S    
C56   H12   S    
C32   H47   S    
C65   O9    A    
C35   H43   S    
C27   H31   S    
C72   O44   A    
C20   C24   D    
C63   O51   A    
C33   H41   S    
C40   C56   D    
C38   C54   D    
Cr8   O8    S    
C69   O13   A    
C46   O30   A    
Cr2   O18   S    
C23   C27   S    
C4    O28   A    
C9    C10   A    
Cr10  O18   S    
C51   C55   S    
C45   O33   A    
C32   C68   S    
C37   C53   D    
Cr8   O20   S    
Cr5   O5    S    
C28   H32   S    
O54   H50   S    
Cr10  O14   S    
C41   H13   S    
C61   O45   A    
C82   H2    S    
C48   C75   S    
Cr7   O19   S    
Cr9   O37   S    
Cr12  O40   S    
Cr2   O2    S    
C76   C83   A    
Cr5   O17   S    
C64   O48   A    
C19   H35   S    
C14   C58   S    
C39   C55   D    
Cr2   O46   S    
C54   H10   S    
C67   O7    A    
C84   H4    S    
C32   C35   D    
C7    H23   S    
C22   O54   S    
C21   C25   S    
C71   O43   A    
C66   O10   A    
Cr9   O33   S    
Cr3   O43   S    
C14   H38   S    
Cr4   O24   S    
Cr4   O20   S    
C17   H33   S    
C29   C34   D    
C34   H42   S    
C14   C26   D    
Cr12  O20   S    
C5    H21   S    
C45   C74   S    
C70   O14   A    
C20   H36   S    
C19   C23   D    
C68   O8    A    
Cr11  O19   S    
Cr7   O51   S    
C57   O1    A    
C15   C27   D    
C83   C84   A    
Cr6   O50   S    
C1    O21   A    
Cr10  O10   S    
Cr5   O49   S    
Cr6   O26   S    
C33   C34   S    
Cr4   O4    S    
Cr7   O31   S    
Cr12  O36   S    
Cr9   O13   S    
C36   H44   S    
C30   C66   S    
C47   O35   A    
C42   C50   D    
C10   H26   S    
C4    C17   S    
C44   H16   S    
Cr11  O35   S    
Cr12  O16   S    
C2    O26   A    
Cr9   O17   S    
C50   H6    S    
C39   H19   S    
C3    O27   A    
C5    C11   A    
C22   C26   S    
C29   C65   S    
Cr6   O18   S    
C76   C80   A    
C62   O50   A    
C74   C81   A    
C5    C77   A    
C16   H40   S    
C6    C12   A    
C61   O49   A    
C73   C82   A    
C48   O36   A    
C8    H24   S    
Cr3   O47   S    
Cr4   O48   S    
C2    O22   A    
C52   H8    S    
C1    C20   S    
C15   C59   S    
C40   C72   S    
C30   C33   D    
C2    C19   S    
C18   C22   D    
C13   H37   S    
C11   H27   S    
C24   C28   S    
C21   O53   S    
Cr8   O52   S    
C68   O12   A    
Cr10  O34   S    
C44   C52   D    
C11   C12   A    
C58   O2    A    
Cr2   O42   S    
C67   O11   A    
C44   C61   S    
Cr3   O23   S    
C71   O15   A    
Cr6   O30   S    
C72   O16   A    
Cr7   O27   S    
C58   O38   A    
Cr1   O21   S    
Cr7   O7    S    
Cr9   O9    S    
C42   H14   S    
Cr5   O25   S    
Cr1   O41   S    
C75   C79   A    
C49   H5    S    
Cr11  O39   S    
C40   H20   S    
C81   H1    S    
C13   C25   D    
Cr8   O28   S    
C63   O47   A    
C29   H46   S    
C64   O52   A    
C1    O25   A    
Cr11  O11   S    
C65   O5    A    
O53   H49   S    
C17   C21   D    
C18   H34   S    
C70   O42   A    
C79   C80   A    
C43   H15   S    
C4    O24   A    
Cr4   O44   S    
C13   C57   S    
C73   C77   A    
C8    C10   A    
C74   C78   A    
C55   H11   S    
C8    C80   A    
C39   C71   S    
C59   O39   A    
C83   H3    S    
C60   O4    A    
C41   C64   S    
Cr1   O45   S    
C12   H28   S    
C6    H22   S    
C46   C73   S    
C47   O31   A    
C52   C56   S    
C43   C62   S    
C48   O32   A    
C59   O3    A    
