data_mof_unit_30033.cif
_audit_creation_date              2012-12-11T14:29:31-0500
_audit_creation_method            fapswitch 2.2
_symmetry_space_group_name_H-M    P1
_symmetry_Int_Tables_number       1
_space_group_crystal_system       triclinic
_cell_length_a                    6.941331
_cell_length_b                    14.693245
_cell_length_c                    16.283019
_cell_angle_alpha                 90.448685
_cell_angle_beta                  90.044145
_cell_angle_gamma                 90.005074
_cell_volume                      1660.66470974

loop_
_atom_site_label
_atom_site_type_symbol
_atom_type_description
_atom_site_fract_x
_atom_site_fract_y
_atom_site_fract_z
_atom_type_partial_charge
O1    O     O_R   0.494400 0.416610 0.413880 -0.546593
O2    O     O_R   0.823920 0.406790 0.585520 -0.538903
O3    O     O_R   0.994250 0.583390 0.586120 -0.530743
C1    C     C_R   0.654722 0.384915 0.613414 0.749833
O4    O     O_R   0.824110 0.405730 0.414490 -0.543756
O5    O     O_R   0.994440 0.582310 0.413870 -0.539089
C2    C     C_R   0.654847 0.383686 0.386340 0.735032
O6    O     O_R   0.494210 0.417690 0.586130 -0.537486
O7    O     O_3   0.660810 0.557940 0.500000 -0.373496
V1    V     V_3+5 0.935650 0.489250 0.500000 1.440497
O8    O     O_R   0.324160 0.593210 0.414480 -0.545149
C3    C     C_R   0.155714 0.613066 0.384848 0.764622
O9    O     O_R   0.323970 0.594270 0.585510 -0.529926
C4    C     C_R   0.155047 0.617424 0.613105 0.889320
V2    V     V_3+5 0.435660 0.510750 0.500000 1.437126
O10   O     O_3   0.160630 0.442060 0.500000 -0.372694
H1    H     H_    0.164083 0.938482 0.510621 0.131271
C5    C     C_R   0.138677 0.558476 0.786573 0.183001
C6    C     C_R   0.123162 0.531912 0.868760 -0.153979
C7    C     C_R   0.105452 0.595856 0.931061 -0.151529
C8    C     C_R   0.104079 0.687773 0.912761 -0.138450
C9    C     C_R   0.118759 0.718326 0.830823 0.032215
C10   C     C_R   0.134260 0.653248 0.765274 0.047280
C11   C     C_R   0.119662 0.812748 0.814685 -0.139254
C12   C     C_R   0.133676 0.843962 0.733006 -0.004710
C13   C     C_R   0.144911 0.780910 0.665851 0.050976
C14   C     C_R   0.145445 0.684791 0.682115 -0.181742
C15   C     C_R   0.135086 0.938748 0.717585 -0.182055
C16   C     C_R   0.147634 0.972574 0.638071 0.233372
C17   C     C_R   0.156364 0.912034 0.572492 -0.154712
C18   C     C_R   0.154577 0.817738 0.584668 0.137238
H2    H     H_    0.125857 0.460379 0.884373 0.115345
H3    H     H_    0.093975 0.574047 0.994231 0.125117
H4    H     H_    0.091480 0.734673 0.964039 0.100036
H5    H     H_    0.126340 0.987895 0.767263 0.104904
C19   C     C_2   0.985713 0.707963 0.281573 -0.136779
C20   C     C_2   0.150791 0.680052 0.317344 -0.322677
H6    H     H_    0.849619 0.680633 0.303135 0.136114
H7    H     H_    0.288675 0.706456 0.297691 0.127792
C21   C     C_2   0.973357 0.775468 0.213613 -0.135087
C22   C     C_2   0.126388 0.814308 0.176948 -0.310959
H8    H     H_    0.829427 0.793472 0.193190 0.135518
C23   C     C_2   0.778795 0.205918 0.779748 -0.120428
C24   C     C_2   0.613834 0.178626 0.815804 -0.307954
H9    H     H_    0.914735 0.177481 0.800397 0.128687
H10   H     H_    0.475796 0.204891 0.796128 0.122034
C25   C     C_2   0.790725 0.273420 0.711977 -0.132828
C26   C     C_2   0.638382 0.317620 0.680029 -0.310983
H11   H     H_    0.494249 0.305075 0.702546 0.125556
C27   C     C_2   0.779135 0.208966 0.214016 -0.130129
C28   C     C_2   0.614084 0.181840 0.177406 -0.310869
H12   H     H_    0.914952 0.180288 0.193189 0.137066
C29   C     C_2   0.791557 0.277441 0.281965 -0.133317
C30   C     C_2   0.638236 0.315431 0.319551 -0.304181
H13   H     H_    0.935484 0.296532 0.301855 0.134454
O11   O     O_R   0.770210 0.079270 0.910680 -0.539020
O12   O     O_R   0.440150 0.091160 0.082270 -0.545872
O13   O     O_R   0.269970 0.914530 0.082860 -0.542141
C31   C     C_R   0.608837 0.113252 0.110487 0.742922
O14   O     O_R   0.440480 0.090100 0.911240 -0.547884
O15   O     O_R   0.270310 0.913460 0.910610 -0.536096
C32   C     C_R   0.609048 0.111477 0.882908 0.747439
O16   O     O_R   0.769870 0.080340 0.082930 -0.538946
O17   O     O_3   0.603660 0.938980 0.996790 -0.368676
V3    V     V_3+5 0.328750 0.007610 0.996740 1.402647
O18   O     O_R   0.940600 0.902510 0.911180 -0.538714
C33   C     C_R   0.109536 0.879850 0.883683 0.700038
O19   O     O_R   0.940270 0.903570 0.082200 -0.541822
C34   C     C_R   0.109567 0.881795 0.110283 0.735156
V4    V     V_3+5 0.828770 0.986010 0.996670 1.418713
O20   O     O_3   0.103730 0.054750 0.996710 -0.375744
H14   H     H_    0.271480 0.797273 0.195761 0.130351
H15   H     H_    0.933603 0.286977 0.687858 0.135970
H16   H     H_    0.476591 0.209836 0.196110 0.127036
N1    N     N_3   0.161373 0.487600 0.726455 -0.676512
H17   H     H_    0.042763 0.444049 0.730458 0.222410
H18   H     H_    0.284909 0.450312 0.740996 0.216315
H19   H     H_    0.493162 0.296995 0.301557 0.128393
N2    N     N_3   0.148868 0.068674 0.622653 -0.664799
H20   H     H_    0.283865 0.085052 0.598456 0.227069
H21   H     H_    0.135388 0.105429 0.677603 0.215246
N3    N     N_3   0.161079 0.761219 0.512985 -0.685927
H22   H     H_    0.286334 0.776927 0.480355 0.222969
H23   H     H_    0.042520 0.777261 0.476151 0.225527

loop_
_geom_bond_atom_site_label_1
_geom_bond_atom_site_label_2
_ccdc_geom_bond_type
C5    N1    S    
C6    C7    A    
C28   H16   S    
C1    O6    A    
C29   C30   D    
C12   C15   A    
C15   C16   A    
C13   C14   A    
C18   N3    S    
C19   C20   D    
O5    C3    A    
C17   C18   A    
O12   C31   A    
V2    O10   S    
O14   C32   A    
C5    C6    A    
C3    C20   S    
N3    H23   S    
C11   C33   S    
O8    V2    S    
C15   H5    S    
O19   C34   A    
C27   H12   S    
V4    O20   S    
O1    V2    S    
O17   V4    S    
C4    C14   S    
O7    V1    S    
C21   H8    S    
O18   C33   A    
C13   C18   A    
O9    C4    A    
H1    C17   S    
C6    H2    S    
C24   H10   S    
O4    C2    A    
C10   C14   A    
C29   H13   S    
C27   C29   S    
C5    C10   A    
C19   C21   S    
C11   C12   A    
C25   H15   S    
N2    H21   S    
C8    H4    S    
C24   C32   S    
C12   C13   A    
V3    O20   S    
O2    C1    A    
N1    H17   S    
C16   C17   A    
C23   H9    S    
O15   C33   A    
O13   V3    S    
C25   C26   D    
C16   N2    S    
O16   V4    S    
C27   C28   D    
N1    H18   S    
O3    C4    A    
C22   H14   S    
C7    H3    S    
C21   C22   D    
O14   V3    S    
O6    V2    S    
O11   V4    S    
O9    V2    S    
C23   C24   D    
O11   C32   A    
C28   C31   S    
O2    V1    S    
C22   C34   S    
C1    C26   S    
C26   H11   S    
O1    C2    A    
O12   V3    S    
O5    V1    S    
O8    C3    A    
O13   C34   A    
C31   O16   A    
O17   V3    S    
C19   H6    S    
O7    V2    S    
O4    V1    S    
C20   H7    S    
O3    V1    S    
V1    O10   S    
O18   V4    S    
C9    C11   A    
N2    H20   S    
O15   V3    S    
C7    C8    A    
O19   V4    S    
N3    H22   S    
C9    C10   A    
C2    C30   S    
C8    C9    A    
C23   C25   S    
C30   H19   S    
