data_mof_unit_52442.cif
_audit_creation_date              2012-12-10T18:06:46-0500
_audit_creation_method            fapswitch 2.2
_symmetry_space_group_name_H-M    P1
_symmetry_Int_Tables_number       1
_space_group_crystal_system       triclinic
_cell_length_a                    12.636611
_cell_length_b                    13.013682
_cell_length_c                    15.53242
_cell_angle_alpha                 85.932171
_cell_angle_beta                  99.015047
_cell_angle_gamma                 95.309533
_cell_volume                      2507.77159922

loop_
_atom_site_label
_atom_site_type_symbol
_atom_type_description
_atom_site_fract_x
_atom_site_fract_y
_atom_site_fract_z
_atom_type_partial_charge
C1    C     C_R   0.441798 0.308354 0.500504 0.855924
C2    C     C_R   0.422600 0.479353 0.099925 0.091152
C3    C     C_R   0.330320 0.529609 0.063314 0.143058
C4    C     C_R   0.498336 0.460396 0.046548 0.069041
C5    C     C_R   0.467532 0.464859 0.954992 0.060084
C6    C     C_R   0.363297 0.494655 0.920229 -0.234323
C7    C     C_R   0.298888 0.532978 0.973353 -0.230221
C8    C     C_R   0.606924 0.450096 0.082304 -0.227811
C9    C     C_R   0.684270 0.443845 0.028920 -0.253544
C10   C     C_R   0.655149 0.446471 0.938562 0.181216
C11   C     C_R   0.545562 0.450615 0.901474 0.092971
C12   C     C_R   0.434572 0.511233 0.336439 0.827993
C13   C     C_R   0.734707 0.450241 0.884286 -0.206320
C14   C     C_R   0.706518 0.462747 0.793851 -0.203346
C15   C     C_R   0.518907 0.447869 0.811157 -0.279893
C16   C     C_R   0.669243 0.937740 0.370631 -0.248359
C17   C     C_R   0.568996 0.797973 0.443212 -0.111011
C18   C     C_R   0.299642 0.162867 0.499406 -0.236393
C19   C     C_R   0.252635 0.067400 0.471899 -0.205659
C20   C     C_R   0.308993 0.003304 0.429708 0.160911
C21   C     C_R   0.418807 0.033772 0.422886 0.064378
C22   C     C_R   0.456063 0.138709 0.431725 0.064117
C23   C     C_R   0.551560 0.691781 0.481474 0.875240
C24   C     C_R   0.495087 0.965124 0.410065 0.073684
C25   C     C_R   0.591183 0.003827 0.379247 0.166924
C26   C     C_R   0.611092 0.109272 0.363047 -0.254099
C27   C     C_R   0.546888 0.175657 0.392389 -0.203733
C28   C     C_R   0.487111 0.862999 0.442453 -0.276766
C29   C     C_R   0.659201 0.834389 0.401683 -0.009031
C30   C     C_R   0.400048 0.201807 0.477621 -0.127935
C31   C     C_R   0.136180 0.631367 0.636773 0.044841
C32   C     C_R   0.759421 0.393252 0.384744 0.010144
C33   C     C_R   0.854520 0.365415 0.362611 -0.269242
C34   C     C_R   0.563511 0.483403 0.663790 0.881684
C35   C     C_R   0.951556 0.398636 0.411620 -0.205018
C36   C     C_R   0.953333 0.462612 0.481763 0.041384
C37   C     C_R   0.853256 0.485892 0.502739 0.262545
C38   C     C_R   0.049417 0.510019 0.527598 -0.051773
C39   C     C_R   0.042896 0.577188 0.594898 0.136250
C40   C     C_R   0.942160 0.593246 0.616017 -0.295566
C41   C     C_R   0.849729 0.551630 0.568443 -0.211835
C42   C     C_R   0.151443 0.495991 0.507013 -0.108336
C43   C     C_R   0.233925 0.621778 0.606420 0.056143
C44   C     C_R   0.391987 0.511967 0.243509 -0.101912
C45   C     C_R   0.597971 0.463920 0.757349 -0.057037
C46   C     C_R   0.272038 0.575405 0.117883 -0.218275
C47   C     C_R   0.307937 0.572850 0.207631 -0.227552
C48   C     C_R   0.435964 0.451283 0.189359 0.084208
H1    H     H_    0.224614 0.565121 0.944005 0.139689
H2    H     H_    0.818845 0.448771 0.911898 0.133865
H3    H     H_    0.681796 0.140886 0.335579 0.144684
H4    H     H_    0.740188 0.967526 0.342559 0.140719
H5    H     H_    0.420584 0.835774 0.474163 0.176342
H6    H     H_    0.253911 0.209092 0.533083 0.172100
H7    H     H_    0.170320 0.045047 0.481284 0.140681
H8    H     H_    0.569261 0.255393 0.381098 0.173871
H9    H     H_    0.436275 0.434976 0.781247 0.150426
H10   H     H_    0.931658 0.643103 0.666112 0.174007
H11   H     H_    0.163867 0.442521 0.460530 0.142890
H12   H     H_    0.685178 0.373091 0.343566 0.107752
H13   H     H_    0.023101 0.376036 0.391022 0.138914
H14   H     H_    0.853069 0.320068 0.306570 0.144595
H15   H     H_    0.776202 0.577184 0.581245 0.213511
H16   H     H_    0.769071 0.472163 0.752899 0.158490
H17   H     H_    0.767707 0.441147 0.058306 0.142343
H18   H     H_    0.203279 0.617633 0.090924 0.140647
H19   H     H_    0.269057 0.616309 0.248890 0.165847
H20   H     H_    0.332279 0.497212 0.851766 0.135688
H21   H     H_    0.635063 0.456872 0.151191 0.142577
N1    N     N_R   0.239390 0.551900 0.544730 -0.130013
N2    N     N_R   0.759950 0.448600 0.455730 -0.123766
O1    O     O_R   0.374950 0.371210 0.521360 -0.611385
O2    O     O_R   0.542050 0.338030 0.492790 -0.617047
O3    O     O_R   0.368720 0.526070 0.390200 -0.613973
O4    O     O_R   0.535820 0.492890 0.361630 -0.636478
O5    O     O_R   0.457950 0.661970 0.507210 -0.603339
O6    O     O_R   0.625050 0.628790 0.478640 -0.624480
O7    O     O_R   0.464180 0.507110 0.638370 -0.614325
O8    O     O_R   0.631280 0.473930 0.609800 -0.632345
Zn1   Zn    Zn3+2 0.388420 0.522150 0.519080 0.935055
Zn2   Zn    Zn3+2 0.611580 0.477850 0.480920 0.924198
C49   C     C_R   0.743093 0.768951 0.385953 0.147115
C50   C     C_R   0.849301 0.787152 0.428124 -0.170612
C51   C     C_R   0.931254 0.734064 0.405444 -0.136267
C52   C     C_R   0.907773 0.662952 0.340378 -0.110398
C53   C     C_R   0.802132 0.643864 0.298614 -0.140292
C54   C     C_R   0.719984 0.696954 0.320958 -0.083229
H22   H     H_    0.868737 0.843568 0.477423 0.125616
H23   H     H_    0.013038 0.748433 0.437970 0.131529
H24   H     H_    0.971360 0.622149 0.322727 0.132475
H25   H     H_    0.784058 0.588548 0.248419 0.124956
H26   H     H_    0.638893 0.683491 0.286645 0.120766
C55   C     C_3   0.243780 0.917593 0.377601 -0.440850
C56   C     C_3   0.243554 0.940009 0.279731 -0.835871
H27   H     H_    0.213368 0.016801 0.258948 0.260862
H28   H     H_    0.325830 0.938816 0.263304 0.260037
H29   H     H_    0.190228 0.879982 0.243108 0.241900
H30   H     H_    0.271233 0.839972 0.395955 0.199426
H31   H     H_    0.158730 0.911454 0.389226 0.199489
C57   C     C_R   0.326820 0.695234 0.637239 0.210067
C58   C     C_R   0.327983 0.798191 0.603885 -0.186814
C59   C     C_R   0.405570 0.873211 0.640282 -0.151697
C60   C     C_R   0.481800 0.846193 0.711447 -0.111248
C61   C     C_R   0.477581 0.745268 0.748367 -0.158510
C62   C     C_R   0.398435 0.671471 0.712826 -0.126628
H32   H     H_    0.267091 0.820672 0.550667 0.116154
H33   H     H_    0.406253 0.952298 0.613577 0.149551
H34   H     H_    0.542056 0.904002 0.739417 0.131394
H35   H     H_    0.533508 0.724842 0.805901 0.141926
H36   H     H_    0.390011 0.596954 0.745802 0.124913
C63   C     C_3   0.131891 0.698272 0.713449 -0.406425
C64   C     C_3   0.090927 0.804241 0.683599 -0.871847
H37   H     H_    0.154665 0.856784 0.658629 0.261113
H38   H     H_    0.020294 0.798608 0.631347 0.253566
H39   H     H_    0.067645 0.839817 0.740019 0.248112
H40   H     H_    0.080967 0.656625 0.759031 0.191274
H41   H     H_    0.211062 0.710703 0.755012 0.210938
C65   C     C_3   0.466537 0.343309 0.222473 -0.399018
C66   C     C_3   0.404625 0.258542 0.166746 -0.844690
H42   H     H_    0.316793 0.266400 0.159106 0.259558
H43   H     H_    0.430212 0.262150 0.101376 0.262981
H44   H     H_    0.420935 0.181562 0.199210 0.253812
H45   H     H_    0.553670 0.336112 0.227194 0.192356
H46   H     H_    0.444029 0.326371 0.288341 0.201871

loop_
_geom_bond_atom_site_label_1
_geom_bond_atom_site_label_2
_ccdc_geom_bond_type
C62   H36   S    
C55   C56   S    
C12   O3    A    
C17   C29   A    
C35   C36   A    
C23   O5    A    
C4    C8    A    
C64   H38   S    
C52   C53   A    
C8    H21   S    
C17   C23   S    
C31   C43   A    
C36   C37   A    
C5    C11   A    
C3    C7    A    
C53   H25   S    
C38   C39   A    
O7    Zn1   S    
C49   C54   A    
C42   N1    A    
C18   C19   A    
O2    Zn2   S    
C65   C66   S    
C1    C30   S    
C11   C15   A    
C51   C52   A    
C19   C20   A    
C33   H14   S    
C63   H40   S    
C18   C30   A    
C32   N2    A    
C9    C10   A    
C55   H31   S    
C44   C47   A    
C6    H20   S    
C50   H22   S    
O3    Zn1   S    
C21   C22   A    
C15   H9    S    
C59   C60   A    
C47   H19   S    
C61   C62   A    
C14   C45   A    
C66   H43   S    
C52   H24   S    
C1    O1    A    
C40   H10   S    
N1    Zn1   S    
C58   C59   A    
O5    Zn1   S    
C43   C57   S    
C7    H1    S    
C16   H4    S    
C39   C40   A    
O8    Zn2   S    
C53   C54   A    
C8    C9    A    
C48   C65   S    
C20   C55   S    
C2    C48   A    
C16   C29   A    
C23   O6    A    
C2    C4    A    
C34   O8    A    
C50   C51   A    
O6    Zn2   S    
C66   H42   S    
C14   H16   S    
C57   C62   A    
C59   H33   S    
C35   H13   S    
C34   C45   S    
C65   H46   S    
C24   C25   A    
C56   H28   S    
C60   H34   S    
C40   C41   A    
C43   N1    A    
C22   C27   A    
C37   N2    A    
C26   C27   A    
C12   O4    A    
C51   H23   S    
C32   H12   S    
C58   H32   S    
C54   H26   S    
C66   H44   S    
C19   H7    S    
C16   C25   A    
C46   C47   A    
C31   C63   S    
C22   C30   A    
C63   C64   S    
C27   H8    S    
C17   C28   A    
O4    Zn2   S    
C24   C28   A    
C4    C5    A    
C10   C13   A    
C42   H11   S    
C28   H5    S    
C46   H18   S    
C6    C7    A    
C3    C46   A    
C56   H29   S    
C63   H41   S    
C1    O2    A    
C32   C33   A    
C36   C38   A    
C2    C3    A    
C25   C26   A    
C29   C49   S    
O1    Zn1   S    
C26   H3    S    
C34   O7    A    
C5    C6    A    
C57   C58   A    
C33   C35   A    
C31   C39   A    
C64   H37   S    
C65   H45   S    
C37   C41   A    
C56   H27   S    
C9    H17   S    
C10   C11   A    
C18   H6    S    
C13   H2    S    
C38   C42   A    
C20   C21   A    
C12   C44   S    
C49   C50   A    
C21   C24   A    
C60   C61   A    
C41   H15   S    
C61   H35   S    
C13   C14   A    
C55   H30   S    
C64   H39   S    
C44   C48   A    
N2    Zn2   S    
C15   C45   A    
