data_mof_unit_30138.cif
_audit_creation_date              2012-10-26T21:11:04-0400
_audit_creation_method            fapswitch 2.2
_symmetry_space_group_name_H-M    P1
_symmetry_Int_Tables_number       1
_space_group_crystal_system       triclinic
_cell_length_a                    10.926393
_cell_length_b                    10.9407
_cell_length_c                    13.131317
_cell_angle_alpha                 90.842224
_cell_angle_beta                  90.907712
_cell_angle_gamma                 89.954389
_cell_volume                      1569.3821828

loop_
_atom_site_label
_atom_site_type_symbol
_atom_type_description
_atom_site_fract_x
_atom_site_fract_y
_atom_site_fract_z
_atom_type_partial_charge
C1    C     C_R   0.498004 0.259354 0.499006 0.555581
C2    C     C_R   0.655141 0.838202 0.722101 -0.066528
C3    C     C_R   0.471247 0.112434 0.305232 0.052709
C4    C     C_R   0.539894 0.886220 0.695836 0.052326
C5    C     C_R   0.570995 0.152992 0.249054 -0.064500
C6    C     C_R   0.446963 0.889116 0.768481 -0.098461
C7    C     C_R   0.552215 0.197645 0.150966 -0.108740
C8    C     C_R   0.469100 0.844114 0.866205 -0.123315
C9    C     C_R   0.434168 0.200200 0.108071 -0.105877
C10   C     C_R   0.584276 0.797226 0.892143 -0.099252
C11   C     C_R   0.497111 0.931856 0.409967 -0.162457
C12   C     C_R   0.506044 0.740323 0.501159 0.557437
C13   C     C_R   0.513750 0.067596 0.590600 -0.164693
C14   C     C_R   0.508798 0.872698 0.503102 -0.006610
C15   C     C_R   0.500297 0.126756 0.497475 -0.007448
C16   C     C_R   0.259416 0.501776 0.498822 0.558619
C17   C     C_R   0.740371 0.493965 0.500936 0.552266
C18   C     C_R   0.519220 0.941234 0.594806 -0.035389
C19   C     C_R   0.491173 0.057966 0.406034 -0.035998
C20   C     C_1   0.500134 0.500441 0.173603 0.122666
C21   C     C_1   0.499863 0.500329 0.826407 0.121517
C22   C     C_1   0.500121 0.500757 0.050683 -0.079773
C23   C     C_R   0.872859 0.491067 0.502400 -0.009959
C24   C     C_1   0.499908 0.500601 0.949326 -0.084084
C25   C     C_R   0.191780 0.634344 0.163279 0.165338
C26   C     C_R   0.784049 0.306888 0.803246 0.167790
C27   C     C_R   0.153604 0.625461 0.264973 -0.031127
C28   C     C_R   0.829189 0.337750 0.707368 -0.049181
C29   C     C_R   0.111960 0.513488 0.302294 0.024914
C30   C     C_R   0.887196 0.450594 0.693094 0.031032
C31   C     C_R   0.107775 0.410486 0.237438 -0.101208
C32   C     C_R   0.901521 0.532199 0.775784 -0.115065
C33   C     C_R   0.143901 0.419331 0.136353 -0.139965
C34   C     C_R   0.126944 0.500035 0.496647 -0.007484
C35   C     C_R   0.857942 0.501653 0.871486 -0.153856
C36   C     C_R   0.185274 0.530458 0.099311 -0.092092
C37   C     C_R   0.800352 0.389386 0.885551 -0.064346
C38   C     C_R   0.931659 0.503311 0.409329 -0.156811
C39   C     C_R   0.068064 0.486533 0.589655 -0.155191
C40   C     C_3   0.327645 0.810150 0.177426 -0.308193
C41   C     C_3   0.606724 0.193116 0.858770 -0.311823
C42   C     C_R   0.941681 0.478790 0.593595 -0.032896
C43   C     C_R   0.058100 0.506532 0.404824 -0.037066
C44   C     C_R   0.334766 0.159197 0.163764 -0.113621
C45   C     C_R   0.677072 0.794010 0.820088 -0.097038
C46   C     C_R   0.352940 0.116184 0.262431 -0.095302
Cu1   Cu    Cu3+1 0.499990 0.499990 0.592680 0.983924
Cu2   Cu    Cu3+1 0.500010 0.500010 0.407320 0.981768
H1    H     H_    0.211830 0.535692 0.020389 0.105286
H2    H     H_    0.819992 0.273721 0.643946 0.088694
H3    H     H_    0.073538 0.324159 0.264565 0.107584
H4    H     H_    0.947524 0.618845 0.766238 0.103930
H5    H     H_    0.137625 0.340581 0.085821 0.105424
H6    H     H_    0.870199 0.564495 0.935268 0.109602
H7    H     H_    0.878837 0.510548 0.338986 0.136776
H8    H     H_    0.120961 0.477526 0.659778 0.135246
H9    H     H_    0.419379 0.233925 0.031845 0.104164
H10   H     H_    0.601638 0.763476 0.968085 0.113128
H11   H     H_    0.243834 0.159070 0.130116 0.101905
H12   H     H_    0.770344 0.366432 0.961024 0.111289
H13   H     H_    0.766340 0.758424 0.840503 0.103799
H14   H     H_    0.275459 0.083489 0.304660 0.099897
H15   H     H_    0.728140 0.836671 0.667241 0.096756
H16   H     H_    0.240617 0.747863 0.045000 0.240217
H17   H     H_    0.353803 0.893480 0.135804 0.143834
H18   H     H_    0.409119 0.749759 0.183144 0.152987
H19   H     H_    0.297973 0.838556 0.254596 0.148380
H20   H     H_    0.736634 0.130257 0.756893 0.243907
H21   H     H_    0.574041 0.098283 0.869513 0.154295
H22   H     H_    0.542843 0.240822 0.806204 0.149735
H23   H     H_    0.662850 0.149691 0.281156 0.100267
H24   H     H_    0.606370 0.240476 0.933589 0.142025
H25   H     H_    0.358035 0.927109 0.749620 0.102529
H26   H     H_    0.629443 0.230076 0.108609 0.098220
H27   H     H_    0.397435 0.846781 0.922135 0.102143
H28   H     H_    0.491493 0.879595 0.339380 0.124725
H29   H     H_    0.521551 0.120029 0.660740 0.130827
H30   H     H_    0.152183 0.705774 0.314084 0.103306
N1    N     N_1   0.500030 0.500030 0.268070 -0.173946
N2    N     N_1   0.499970 0.499970 0.731930 -0.172942
N3    N     N_2   0.229234 0.748355 0.122863 -0.530373
N4    N     N_2   0.728696 0.190587 0.817576 -0.524284
O1    O     O_R   0.499980 0.319630 0.578260 -0.511248
O2    O     O_R   0.500020 0.680370 0.421740 -0.511790
O3    O     O_R   0.500000 0.319650 0.421740 -0.482763
O4    O     O_R   0.500000 0.680350 0.578260 -0.480833
O5    O     O_R   0.319630 0.500000 0.578260 -0.506118
O6    O     O_R   0.680370 0.500000 0.421740 -0.508909
O7    O     O_R   0.319650 0.500020 0.421740 -0.483975
O8    O     O_R   0.680350 0.499980 0.578260 -0.486238

loop_
_geom_bond_atom_site_label_1
_geom_bond_atom_site_label_2
_ccdc_geom_bond_type
C27   C29   A    
C17   O6    A    
C14   C18   A    
C27   H30   S    
C15   C19   A    
C11   C19   A    
C17   C23   S    
C23   C42   A    
C13   C18   A    
C46   H14   S    
Cu2   N1    S    
C35   C37   A    
C11   H28   S    
C11   C14   A    
C44   H11   S    
C33   C36   A    
C12   O2    A    
C32   H4    S    
C16   C34   S    
C28   H2    S    
C38   H7    S    
C39   H8    S    
C40   H19   S    
C16   O5    A    
Cu2   O6    S    
C3    C19   S    
C1    C15   S    
Cu1   O1    S    
C39   C42   A    
C4    C18   S    
C16   O7    A    
C26   N4    S    
C40   H18   S    
C29   C43   S    
C35   H6    S    
C25   N3    S    
Cu1   N2    S    
C44   C46   A    
C7    H26   S    
C2    C45   A    
C33   H5    S    
C13   H29   S    
C34   C43   A    
C34   C39   A    
Cu1   O4    S    
C4    C6    A    
C31   H3    S    
C5    C7    A    
C6    C8    A    
C8    H27   S    
Cu2   O2    S    
Cu1   O5    S    
C2    C4    A    
C32   C35   A    
Cu1   Cu2   S    
C10   C45   A    
C31   C33   A    
C41   H24   S    
C8    C10   A    
C20   C22   S    
Cu2   O7    S    
C13   C15   A    
Cu1   O8    S    
C22   C24   T    
C1    O3    A    
C25   C27   A    
C2    H15   S    
C6    H25   S    
C41   H21   S    
C7    C9    A    
C9    C44   A    
C20   N1    T    
C10   H10   S    
C40   N3    S    
C17   O8    A    
C12   C14   S    
C3    C5    A    
C26   C37   A    
C1    O1    A    
C23   C38   A    
C3    C46   A    
C26   C28   A    
C12   O4    A    
C40   H17   S    
H20   N4    S    
C28   C30   A    
C38   C43   A    
C29   C31   A    
C30   C32   A    
C41   N4    S    
C21   N2    T    
C45   H13   S    
C9    H9    S    
H16   N3    S    
C37   H12   S    
C25   C36   A    
C5    H23   S    
C21   C24   S    
Cu2   O3    S    
C30   C42   S    
C36   H1    S    
C41   H22   S    
