data_mof_unit_65635.cif
_audit_creation_date              2012-12-10T17:06:03-0500
_audit_creation_method            fapswitch 2.2
_symmetry_space_group_name_H-M    P1
_symmetry_Int_Tables_number       1
_space_group_crystal_system       triclinic
_cell_length_a                    11.549111
_cell_length_b                    10.751006
_cell_length_c                    10.035912
_cell_angle_alpha                 90.111514
_cell_angle_beta                  90.039666
_cell_angle_gamma                 90.127291
_cell_volume                      1246.09887659

loop_
_atom_site_label
_atom_site_type_symbol
_atom_type_description
_atom_site_fract_x
_atom_site_fract_y
_atom_site_fract_z
_atom_type_partial_charge
C1    C     C_R   0.497861 0.262700 0.499739 0.926879
C2    C     C_1   0.161481 0.500095 0.499883 -0.184303
C3    C     C_1   0.059317 0.500164 0.499958 0.000725
C4    C     C_1   0.940659 0.500190 0.500097 0.000316
C5    C     C_1   0.838498 0.500143 0.500148 -0.187161
C6    C     C_2   0.502525 0.932932 0.387538 -0.161392
C7    C     C_2   0.515127 0.868738 0.500327 -0.329668
C8    C     C_2   0.509221 0.066833 0.388030 -0.157868
C9    C     C_2   0.488410 0.131077 0.499357 -0.326431
C10   C     C_2   0.566802 0.572333 0.924538 0.154970
C11   C     C_2   0.571638 0.565609 0.075139 -0.194476
C12   C     C_R   0.281958 0.500007 0.499952 0.902081
C13   C     C_R   0.503004 0.737284 0.500053 0.928698
C14   C     C_R   0.718035 0.500031 0.500054 0.901690
H1    H     H_    0.487627 0.887219 0.292362 0.174711
H2    H     H_    0.537549 0.911461 0.594830 0.151749
H3    H     H_    0.529729 0.112647 0.294512 0.173693
H4    H     H_    0.461289 0.088319 0.591963 0.149657
H5    H     H_    0.453463 0.433221 0.898044 0.136681
H6    H     H_    0.637353 0.620701 0.125389 0.165959
H7    H     H_    0.434491 0.454927 0.101963 0.161259
H8    H     H_    0.620153 0.748622 0.895144 0.160487
H9    H     H_    0.725789 0.640655 0.885693 0.168545
N1    N     N_2   0.501210 0.501330 0.852150 -0.181690
N2    N     N_2   0.501250 0.501360 0.147810 -0.195397
N3    N     N_3   0.640300 0.660128 0.858723 -0.382569
O1    O     O_R   0.499980 0.319060 0.613040 -0.621288
O2    O     O_R   0.500020 0.319100 0.386900 -0.612446
O3    O     O_R   0.334430 0.499990 0.613070 -0.610392
O4    O     O_R   0.334470 0.500030 0.386930 -0.609442
O5    O     O_R   0.499980 0.680900 0.613100 -0.596894
O6    O     O_R   0.500020 0.680940 0.386960 -0.614101
O7    O     O_R   0.665530 0.499970 0.613070 -0.591052
O8    O     O_R   0.665570 0.500010 0.386930 -0.609876
Zn1   Zn    Zn3+2 0.499980 0.499970 0.650990 0.963165
Zn2   Zn    Zn3+2 0.500020 0.500030 0.349010 0.945178

loop_
_geom_bond_atom_site_label_1
_geom_bond_atom_site_label_2
_ccdc_geom_bond_type
C14   O8    A    
C1    O2    A    
C6    C7    D    
C12   O3    A    
O1    Zn1   S    
O3    Zn1   S    
C13   O6    A    
C8    H3    S    
O4    Zn2   S    
C2    C12   S    
C10   N3    S    
C14   O7    A    
C2    C3    T    
C5    C14   S    
O6    Zn2   S    
C7    H2    S    
O7    Zn1   S    
H5    N1    S    
O8    Zn2   S    
O5    Zn1   S    
C11   H6    S    
N1    Zn1   S    
C10   C11   S    
C11   N2    D    
N2    Zn2   S    
C3    C4    S    
C9    H4    S    
C7    C13   S    
C1    C9    S    
O2    Zn2   S    
H8    N3    S    
H9    N3    S    
C1    O1    A    
H7    N2    S    
C8    C9    D    
C6    C8    S    
C10   N1    D    
C6    H1    S    
C12   O4    A    
C13   O5    A    
C4    C5    T    
