data_mof_unit_6416.cif
_audit_creation_date              2013-03-05T16:33:41-0500
_audit_creation_method            fapswitch 2.2
_symmetry_space_group_name_H-M    P1
_symmetry_Int_Tables_number       1
_space_group_crystal_system       triclinic
_cell_length_a                    9.071003
_cell_length_b                    10.886076
_cell_length_c                    9.560231
_cell_angle_alpha                 89.735051
_cell_angle_beta                  90.244778
_cell_angle_gamma                 90.460472
_cell_volume                      944.001087736

loop_
_atom_site_label
_atom_site_type_symbol
_atom_site_description
_atom_site_fract_x
_atom_site_fract_y
_atom_site_fract_z
_atom_type_partial_charge
O1    O     O_R   0.500000 0.319640 0.618810 -0.591203
O2    O     O_R   0.500020 0.319680 0.381230 -0.559214
C1    C     C_R   0.502515 0.262955 0.500277 0.837865
O3    O     O_R   0.288380 0.499980 0.618770 -0.592632
O4    O     O_R   0.288400 0.500020 0.381190 -0.522972
C2    C     C_R   0.220731 0.499931 0.499798 0.858266
Cu1   Cu    Cu3+1 0.499990 0.499980 0.640670 0.955415
Cu2   Cu    Cu3+1 0.500010 0.500020 0.359330 1.041629
O5    O     O_R   0.499980 0.680320 0.618770 -0.584155
O6    O     O_R   0.500000 0.680360 0.381190 -0.537241
O7    O     O_R   0.711600 0.499980 0.618810 -0.587416
O8    O     O_R   0.711620 0.500020 0.381230 -0.587044
C3    C     C_R   0.499448 0.737437 0.498910 0.816104
C4    C     C_R   0.779266 0.500146 0.500197 0.831153
C5    C     C_1   0.065563 0.500031 0.499723 -0.127276
C6    C     C_1   0.934421 0.500111 0.500243 -0.163718
C7    C     C_R   0.497204 0.060995 0.620042 0.084533
C8    C     C_R   0.507773 0.130762 0.498966 -0.156016
C9    C     C_R   0.521038 0.067625 0.371607 -0.201698
H1    H     H_    0.533096 0.117585 0.274172 0.227208
C10   C     C_R   0.514456 0.938870 0.367182 0.339078
C11   C     C_R   0.501497 0.870515 0.494618 -0.219777
C12   C     C_R   0.495058 0.937262 0.617930 0.040122
C13   C     C_3   0.477049 0.926160 0.772439 -0.343538
C14   C     C_3   0.478992 0.067647 0.774585 -0.380771
H2    H     H_    0.368717 0.885330 0.801700 0.213714
H3    H     H_    0.574642 0.884104 0.823903 0.218007
H4    H     H_    0.371694 0.108251 0.804660 0.210143
H5    H     H_    0.577594 0.107477 0.827476 0.213415
C15   C     C_R   0.584456 0.582771 0.073554 0.281729
N1    N     N_R   0.500920 0.500930 0.147930 -0.259960
C16   C     C_R   0.404967 0.426981 0.073065 0.407090
C17   C     C_R   0.406450 0.426763 0.924543 -0.124316
H6    H     H_    0.332821 0.365977 0.867793 0.168828
N2    N     N_R   0.500930 0.500890 0.852020 -0.218638
C18   C     C_R   0.584043 0.583078 0.926360 0.245979
C19   C     C_3   0.747584 0.597366 0.920953 -0.480509
C20   C     C_3   0.748059 0.596434 0.079644 -0.445689
H7    H     H_    0.803319 0.516140 0.875904 0.227294
H8    H     H_    0.781511 0.687317 0.875376 0.207330
H9    H     H_    0.803530 0.514403 0.124426 0.228836
H10   H     H_    0.782987 0.685596 0.125761 0.237471
N3    N     N_R   0.516309 0.881637 0.232487 0.132641
O9    O     O_R   0.395719 0.832128 0.183663 -0.343334
O10   O     O_R   0.623119 0.906916 0.146379 -0.398091
N4    N     N_R   0.301823 0.348446 0.142526 0.139923
O11   O     O_R   0.166842 0.385903 0.156108 -0.360754
O12   O     O_R   0.326227 0.230939 0.144529 -0.377812

loop_
_geom_bond_atom_site_label_1
_geom_bond_atom_site_label_2
_geom_bond_distance
_ccdc_geom_bond_type
O4    Cu2   1.931745 S    
N3    O9    1.301300 A    
C19   C20   1.517091 S    
Cu2   O8    1.930011 S    
N1    C16   1.380810 A    
C13   H3    1.111794 S    
C15   C18   1.407191 A    
C15   N1    1.364344 A    
C12   C13   1.491088 S    
C7    C14   1.489531 S    
C16   C17   1.420037 A    
C7    C8    1.384734 A    
Cu1   Cu2   2.689673 S    
C19   H7    1.111548 S    
O1    Cu1   1.975249 S    
C10   C11   1.429427 A    
C14   H4    1.111686 S    
Cu1   O7    1.931746 S    
N3    O10   1.300979 A    
C7    C12   1.347201 A    
C16   N4    1.426348 S    
C20   H9    1.111653 S    
O3    Cu1   1.930010 S    
Cu2   O6    1.975249 S    
C18   C19   1.491458 S    
C17   N2    1.362048 A    
C13   H2    1.111598 S    
C3    C11   1.449059 S    
C20   H10   1.111166 S    
C19   H8    1.111653 S    
N4    O12   1.299993 A    
C14   H5    1.111577 S    
O4    C2    1.291696 A    
O7    C4    1.291721 A    
C4    C6    1.407413 S    
C5    C6    1.189627 T    
C17   H6    1.082326 S    
C13   C14   1.540425 S    
C15   C20   1.491201 S    
C1    C8    1.440346 S    
O3    C2    1.290071 A    
C8    C9    1.407020 A    
N4    O11   1.300844 A    
Cu1   O5    1.973367 S    
O5    C3    1.301199 A    
C11   C12   1.389370 A    
O2    C1    1.292539 A    
C9    C10   1.403254 A    
C2    C5    1.407532 S    
C10   N3    1.433342 S    
Cu2   N1    2.021064 S    
Cu1   N2    2.020607 S    
O6    C3    1.288120 A    
O2    Cu2   1.973364 S    
C9    H1    1.081985 S    
O8    C4    1.290018 A    
O1    C1    1.293201 A    
N2    C18   1.365450 A    
