data_mof_unit_21796.cif
_audit_creation_date              2012-12-10T16:51:31-0500
_audit_creation_method            fapswitch 2.2
_symmetry_space_group_name_H-M    P1
_symmetry_Int_Tables_number       1
_space_group_crystal_system       triclinic
_cell_length_a                    7.807228
_cell_length_b                    8.585668
_cell_length_c                    12.597779
_cell_angle_alpha                 92.501947
_cell_angle_beta                  102.590026
_cell_angle_gamma                 93.895901
_cell_volume                      820.740005217

loop_
_atom_site_label
_atom_site_type_symbol
_atom_type_description
_atom_site_fract_x
_atom_site_fract_y
_atom_site_fract_z
_atom_type_partial_charge
C1    C     C_R   0.041713 0.793766 0.491925 0.879164
C2    C     C_R   0.191064 0.591557 0.820404 -0.133465
C3    C     C_2   0.053892 0.953355 0.469553 0.041842
C4    C     C_R   0.114888 0.532655 0.706977 0.867067
C5    C     C_2   0.931089 0.041192 0.496269 -0.433716
C6    C     C_R   0.953626 0.205229 0.497893 0.978945
C7    C     C_R   0.889672 0.486995 0.292024 0.864282
C8    C     C_R   0.855245 0.404719 0.995450 -0.182793
C9    C     C_R   0.826385 0.477958 0.176156 -0.054918
C10   C     C_R   0.083823 0.654590 0.884216 -0.217878
C11   C     C_R   0.147628 0.685137 0.995680 -0.119796
C12   C     C_R   0.429101 0.588080 0.981298 0.078133
C13   C     C_R   0.314872 0.644428 0.045183 -0.198113
C14   C     C_3   0.122919 0.022809 0.298721 -0.754641
C15   C     C_R   0.372092 0.582023 0.867361 0.095814
C16   C     C_R   0.596933 0.534830 0.024832 0.077311
C17   C     C_R   0.699037 0.473735 0.954262 0.163399
C18   C     C_R   0.650617 0.493744 0.844095 -0.281858
C19   C     C_R   0.498724 0.564014 0.804338 -0.184829
C20   C     C_R   0.666196 0.538948 0.135667 -0.271625
C21   C     C_R   0.919661 0.407323 0.106935 -0.214984
H1    H     H_    0.042722 0.357052 0.138804 0.161998
H2    H     H_    0.063221 0.732014 0.044889 0.152058
H3    H     H_    0.483986 0.606452 0.724759 0.170783
H4    H     H_    0.302071 0.956585 0.432726 0.231376
H5    H     H_    0.230551 0.075912 0.263864 0.226712
H6    H     H_    0.011418 0.098675 0.282568 0.240644
H7    H     H_    0.079607 0.904885 0.257873 0.220917
H8    H     H_    0.822038 0.993455 0.529003 0.155086
H9    H     H_    0.471481 0.365975 0.426720 0.197003
H10   H     H_    0.528527 0.641039 0.565649 0.170062
H11   H     H_    0.733949 0.462335 0.789676 0.186714
H12   H     H_    0.930715 0.354827 0.941535 0.151285
H13   H     H_    0.599691 0.592719 0.192280 0.161044
H14   H     H_    0.950401 0.679040 0.848184 0.163188
H15   H     H_    0.349781 0.659378 0.132745 0.134459
N1    N     N_2   0.434800 0.456690 0.470850 -0.171056
N2    N     N_2   0.565200 0.543310 0.529150 -0.183334
N3    N     N_2   0.185989 0.010509 0.414679 -0.268672
O1    O     O_R   0.893060 0.738880 0.507150 -0.629376
O2    O     O_R   0.172250 0.711130 0.488470 -0.641948
O3    O     O_R   0.944700 0.520730 0.667600 -0.628410
O4    O     O_R   0.223890 0.492980 0.648920 -0.621932
O5    O     O_R   0.827750 0.288870 0.511530 -0.629162
O6    O     O_R   0.106940 0.261120 0.492850 -0.565341
O7    O     O_R   0.776110 0.507020 0.351080 -0.628359
O8    O     O_R   0.055300 0.479270 0.332400 -0.622293
Zn1   Zn    Zn3+2 0.813580 0.518530 0.512470 0.925296
Zn2   Zn    Zn3+2 0.186420 0.481470 0.487530 0.943919

loop_
_geom_bond_atom_site_label_1
_geom_bond_atom_site_label_2
_ccdc_geom_bond_type
C1    O2    A    
C2    C4    S    
H10   N2    S    
N1    N2    D    
C6    O6    A    
C14   H6    S    
N1    Zn2   S    
C9    C20   A    
N2    Zn1   S    
C8    C17   A    
C12   C15   A    
O6    Zn2   S    
C16   C20   A    
C20   H13   S    
C3    C5    D    
C17   C18   A    
C3    N3    S    
O8    Zn2   S    
O3    Zn1   S    
C21   H1    S    
C14   H5    S    
C15   C19   A    
C2    C15   A    
C11   C13   A    
C9    C21   A    
C10   H14   S    
C4    O3    A    
O2    Zn2   S    
C4    O4    A    
C8    C21   A    
C5    H8    S    
C8    H12   S    
C5    C6    S    
O7    Zn1   S    
C18   H11   S    
C10   C11   A    
C2    C10   A    
C7    O7    A    
O5    Zn1   S    
C12   C13   A    
C13   H15   S    
O1    Zn1   S    
C18   C19   A    
C11   H2    S    
C7    C9    S    
O4    Zn2   S    
C6    O5    A    
C1    O1    A    
C14   H7    S    
C14   N3    S    
C19   H3    S    
H4    N3    S    
C12   C16   A    
H9    N1    S    
C16   C17   A    
C1    C3    S    
C7    O8    A    
