data_mof_unit_31587.cif
_audit_creation_date              2012-12-10T17:55:03-0500
_audit_creation_method            fapswitch 2.2
_symmetry_space_group_name_H-M    P1
_symmetry_Int_Tables_number       1
_space_group_crystal_system       triclinic
_cell_length_a                    8.827976
_cell_length_b                    10.833955
_cell_length_c                    9.511388
_cell_angle_alpha                 90.015074
_cell_angle_beta                  97.833506
_cell_angle_gamma                 90.166216
_cell_volume                      901.194256169

loop_
_atom_site_label
_atom_site_type_symbol
_atom_type_description
_atom_site_fract_x
_atom_site_fract_y
_atom_site_fract_z
_atom_type_partial_charge
C1    C     C_R   0.499896 0.262053 0.499941 0.780539
C2    C     C_R   0.500104 0.737947 0.500059 0.780539
C3    C     C_R   0.204387 0.500355 0.464160 0.851086
C4    C     C_R   0.795613 0.499646 0.535840 0.851088
C5    C     C_2   0.039741 0.508193 0.444311 -0.041120
C6    C     C_2   0.960259 0.491809 0.555689 -0.041116
C7    C     C_R   0.500748 0.063805 0.372314 -0.188702
C8    C     C_R   0.499252 0.936195 0.627685 -0.188702
C9    C     C_R   0.500903 0.936106 0.372363 -0.189173
C10   C     C_R   0.499096 0.063894 0.627637 -0.189173
C11   C     C_R   0.500117 0.871788 0.500045 -0.013727
C12   C     C_R   0.499883 0.128212 0.499955 -0.013727
C13   C     C_R   0.403028 0.424720 0.062129 -0.034524
C14   C     C_R   0.596972 0.575280 0.937871 -0.034524
C15   C     C_R   0.403154 0.424685 0.913267 -0.013353
C16   C     C_R   0.596846 0.575315 0.086733 -0.013354
Cu1   Cu    Cu3+1 0.500000 0.500020 0.640660 0.944615
Cu2   Cu    Cu3+1 0.500000 0.499980 0.359340 0.944615
H1    H     H_    0.501348 0.111799 0.272490 0.148805
H2    H     H_    0.498652 0.888201 0.727510 0.148805
H3    H     H_    0.501656 0.888042 0.272576 0.148107
H4    H     H_    0.498344 0.111958 0.727424 0.148106
H5    H     H_    0.325500 0.364341 0.108449 0.117210
H6    H     H_    0.674500 0.635659 0.891551 0.117210
H7    H     H_    0.325899 0.364117 0.847311 0.133662
H8    H     H_    0.674100 0.635883 0.152689 0.133664
N1    N     N_R   0.500040 0.500030 0.852080 -0.157827
N2    N     N_R   0.499960 0.499970 0.147920 -0.157827
O1    O     O_R   0.499990 0.319660 0.618740 -0.592948
O2    O     O_R   0.500010 0.680340 0.381260 -0.592948
O3    O     O_R   0.499990 0.319630 0.381170 -0.592076
O4    O     O_R   0.500010 0.680370 0.618830 -0.592076
O5    O     O_R   0.274840 0.500010 0.591370 -0.546602
O6    O     O_R   0.725160 0.499990 0.408630 -0.546603
O7    O     O_R   0.274830 0.499980 0.353800 -0.603206
O8    O     O_R   0.725170 0.500020 0.646200 -0.603204
N3    N     N_3   0.965402 0.538728 0.304393 -0.584256
H9    H     H_    0.009559 0.622733 0.273850 0.209465
H10   H     H_    0.991330 0.470474 0.233736 0.224023
N4    N     N_3   0.034599 0.461278 0.695608 -0.584259
H11   H     H_    0.990447 0.377273 0.726155 0.209465
H12   H     H_    0.008673 0.529533 0.766264 0.224025

loop_
_geom_bond_atom_site_label_1
_geom_bond_atom_site_label_2
_ccdc_geom_bond_type
C16   N2    A    
C4    O8    A    
C13   N2    A    
N3    H9    S    
Cu2   O2    S    
Cu1   O8    S    
C5    N3    S    
C14   N1    A    
Cu1   O1    S    
Cu2   O7    S    
C15   N1    A    
C13   C15   A    
C3    O7    A    
C2    O2    A    
C1    O1    A    
Cu1   Cu2   S    
N3    H10   S    
C10   H4    S    
C9    C11   A    
C9    H3    S    
C8    H2    S    
C1    C12   S    
Cu1   O5    S    
C8    C11   A    
C2    C11   S    
C10   C12   A    
N4    H12   S    
N4    H11   S    
C14   C16   A    
Cu2   O6    S    
C16   H8    S    
C5    C6    D    
C4    O6    A    
C7    C12   A    
C15   H7    S    
C4    C6    S    
C3    O5    A    
Cu1   N1    S    
C1    O3    A    
C6    N4    S    
Cu2   N2    S    
C13   H5    S    
C2    O4    A    
C14   H6    S    
C7    C9    A    
Cu1   O4    S    
C7    H1    S    
Cu2   O3    S    
C8    C10   A    
C3    C5    S    
