data_mof_unit_7967.cif
_audit_creation_date              2012-10-26T20:32:56-0400
_audit_creation_method            fapswitch 2.2
_symmetry_space_group_name_H-M    P1
_symmetry_Int_Tables_number       1
_space_group_crystal_system       triclinic
_cell_length_a                    27.796763
_cell_length_b                    10.822357
_cell_length_c                    9.555253
_cell_angle_alpha                 89.914963
_cell_angle_beta                  90.405896
_cell_angle_gamma                 90.156157
_cell_volume                      2874.38735722

loop_
_atom_site_label
_atom_site_type_symbol
_atom_type_description
_atom_site_fract_x
_atom_site_fract_y
_atom_site_fract_z
_atom_type_partial_charge
C1    C     C_R   0.503564 0.262651 0.499654 0.566525
C2    C     C_R   0.973609 0.373567 0.485506 0.019126
C3    C     C_R   0.975056 0.599396 0.462844 0.011082
C4    C     C_R   0.407586 0.497944 0.499431 0.651380
C5    C     C_R   0.948947 0.487951 0.476102 0.029594
C6    C     C_R   0.946432 0.263312 0.484259 -0.116338
C7    C     C_R   0.896508 0.266107 0.481442 -0.082271
C8    C     C_R   0.871915 0.378734 0.483657 0.027554
C9    C     C_R   0.897943 0.490828 0.482605 -0.033038
C10   C     C_R   0.873079 0.605003 0.489191 -0.007913
C11   C     C_R   0.822285 0.601297 0.502537 0.393228
C12   C     C_R   0.279939 0.401700 0.409380 -0.084212
C13   C     C_R   0.821604 0.381357 0.485905 0.406545
C14   C     C_R   0.721021 0.433807 0.605370 -0.034600
C15   C     C_R   0.670820 0.435346 0.606283 -0.097192
C16   C     C_R   0.500883 0.737783 0.500135 0.580225
C17   C     C_R   0.670550 0.553821 0.390829 -0.128453
C18   C     C_R   0.720645 0.551431 0.389301 -0.046521
C19   C     C_R   0.746186 0.491976 0.496827 0.232757
C20   C     C_R   0.024518 0.373503 0.497041 0.024608
C21   C     C_R   0.050290 0.484167 0.469778 0.009835
C22   C     C_R   0.025459 0.595553 0.439447 0.025212
C23   C     C_R   0.253237 0.484513 0.489225 0.213594
C24   C     C_R   0.050603 0.266943 0.536609 -0.118803
C25   C     C_R   0.102450 0.693811 0.386232 -0.059270
C26   C     C_R   0.950469 0.711206 0.481759 -0.059010
C27   C     C_R   0.900261 0.716682 0.489449 0.017190
C28   C     C_R   0.592444 0.498963 0.500259 0.541233
C29   C     C_R   0.052323 0.696879 0.384956 0.204989
C30   C     C_R   0.509666 0.063855 0.624107 0.012811
C31   C     C_R   0.512006 0.129781 0.498478 -0.008977
C32   C     C_R   0.521991 0.062845 0.373698 -0.001266
C33   C     C_R   0.517436 0.933736 0.375955 -0.112394
C34   C     C_R   0.101278 0.483166 0.471868 -0.038051
C35   C     C_R   0.506970 0.870835 0.500568 -0.001505
C36   C     C_R   0.507850 0.937053 0.625509 0.014280
C37   C     C_3   0.475034 0.934572 0.748666 -0.242044
C38   C     C_3   0.477118 0.074842 0.747030 -0.254501
C39   C     C_R   0.514510 0.602415 0.074177 0.120189
C40   C     C_R   0.176833 0.378518 0.518851 0.407059
C41   C     C_R   0.479796 0.405740 0.074064 0.011670
C42   C     C_R   0.479423 0.406302 0.925278 0.014941
C43   C     C_R   0.516363 0.600273 0.927400 0.165736
C44   C     C_3   0.565456 0.658637 0.928972 0.099938
C45   C     C_R   0.126351 0.375821 0.512037 0.034207
C46   C     C_3   0.561629 0.666737 0.086962 -0.218890
C47   C     C_R   0.177722 0.586983 0.437401 0.405887
C48   C     C_R   0.276972 0.570309 0.574364 -0.084550
C49   C     C_R   0.327191 0.578249 0.576368 -0.032018
C50   C     C_R   0.330244 0.401588 0.415569 -0.039038
C51   C     C_2   0.355103 0.301915 0.337792 0.228380
C52   C     C_2   0.878387 0.841782 0.489452 0.300995
C53   C     C_2   0.537680 0.122655 0.241433 0.243185
C54   C     C_2   0.348713 0.681877 0.656869 0.232809
C55   C     C_R   0.100575 0.268680 0.545329 -0.092068
C56   C     C_R   0.127242 0.589379 0.433423 -0.014893
C57   C     C_R   0.354561 0.492408 0.497553 0.027296
C58   C     C_R   0.645259 0.496560 0.499806 0.015903
Cl1   Cl    Cl    0.026582 0.819083 0.287205 -0.599361
Cl2   Cl    Cl    0.613399 0.557358 0.884089 -0.601562
Cu1   Cu    Cu3+1 0.500000 0.499980 0.640670 1.038076
Cu2   Cu    Cu3+1 0.500000 0.500020 0.359330 0.989322
H1    H     H_    0.255842 0.634474 0.635402 0.136786
H2    H     H_    0.442098 0.118621 0.720037 0.156694
H3    H     H_    0.495934 0.114011 0.839964 0.181076
H4    H     H_    0.464148 0.328314 0.129192 0.156038
H5    H     H_    0.463157 0.329898 0.869637 0.112577
H6    H     H_    0.566484 0.750134 0.876112 0.131712
H7    H     H_    0.588592 0.611470 0.145612 0.189845
H8    H     H_    0.558021 0.763239 0.123534 0.103521
H9    H     H_    0.118951 0.185121 0.577680 0.177736
H10   H     H_    0.651996 0.387179 0.688850 0.182105
H11   H     H_    0.740375 0.387306 0.688800 0.156260
H12   H     H_    0.121995 0.772884 0.346042 0.203339
H13   H     H_    0.877200 0.179038 0.479778 0.206209
H14   H     H_    0.962936 0.173244 0.481200 0.156881
H15   H     H_    0.033136 0.181894 0.566584 0.135649
H16   H     H_    0.337091 0.257718 0.249896 0.112405
H17   H     H_    0.845865 0.860633 0.430142 0.171397
H18   H     H_    0.556432 0.210594 0.243203 0.144364
H19   H     H_    0.328746 0.723399 0.741890 0.112158
H20   H     H_    0.970403 0.796252 0.494167 0.210191
H21   H     H_    0.651670 0.601816 0.307835 0.131539
H22   H     H_    0.739712 0.596129 0.304645 0.147184
H23   H     H_    0.521426 0.882697 0.279899 0.165511
H24   H     H_    0.438740 0.897973 0.723214 0.202988
H25   H     H_    0.261119 0.335086 0.344244 0.138887
H26   H     H_    0.492419 0.893359 0.842815 0.148841
N1    N     N_R   0.201514 0.483225 0.481882 -0.388649
N2    N     N_R   0.797910 0.491337 0.495337 -0.391513
N3    N     N_R   0.500300 0.500930 0.147930 -0.238465
N4    N     N_R   0.500310 0.500890 0.852020 -0.212086
O1    O     O_R   0.500000 0.319640 0.618810 -0.511818
O2    O     O_R   0.569730 0.499960 0.618810 -0.442470
O3    O     O_R   0.569740 0.500000 0.381220 -0.530793
O4    O     O_2   0.201012 0.277725 0.563403 -0.488421
O5    O     O_2   0.394428 0.263359 0.374480 -0.497780
O6    O     O_2   0.897664 0.926946 0.552319 -0.506556
O7    O     O_2   0.531037 0.072411 0.128525 -0.541042
O8    O     O_2   0.387458 0.726469 0.625117 -0.516080
O9    O     O_2   0.796445 0.274666 0.478371 -0.483252
O10   O     O_2   0.202861 0.687361 0.396160 -0.485767
O11   O     O_2   0.797166 0.705308 0.526650 -0.494658
O12   O     O_R   0.500010 0.319680 0.381230 -0.505421
O13   O     O_R   0.430260 0.500000 0.618780 -0.476950
O14   O     O_R   0.430270 0.500040 0.381190 -0.467259
O15   O     O_R   0.499990 0.680320 0.618770 -0.484512
O16   O     O_R   0.500000 0.680360 0.381190 -0.517023

loop_
_geom_bond_atom_site_label_1
_geom_bond_atom_site_label_2
_ccdc_geom_bond_type
C10   C27   A    
C51   O5    D    
C34   C56   A    
C8    C13   A    
C22   C29   A    
C13   N2    A    
C41   C42   A    
C37   H26   S    
C35   C36   A    
C25   C56   A    
C7    C8    A    
C53   O7    D    
C24   C55   A    
C15   H10   S    
C12   C23   A    
C26   C27   A    
C28   O3    A    
C36   C37   S    
C18   C19   A    
C16   C35   S    
C30   C31   A    
Cu1   O1    S    
Cu2   O16   S    
C49   C54   S    
C1    C31   S    
C49   C57   A    
C30   C38   S    
C28   O2    A    
C25   H12   S    
C33   H23   S    
C46   H7    S    
C16   O15   A    
C29   Cl1   S    
C8    C9    A    
C4    C57   S    
C18   H22   S    
C23   N1    S    
C40   N1    A    
C52   H17   S    
Cu1   O13   S    
C9    C10   A    
C38   H2    S    
Cu1   N4    S    
C17   C58   A    
C26   H20   S    
C47   O10   S    
C21   C22   A    
C47   N1    A    
C54   O8    D    
C2    C6    A    
C40   O4    S    
C39   N3    A    
C44   C46   S    
C50   C51   S    
Cu2   O12   S    
C25   C29   A    
C40   C45   A    
C2    C20   A    
C14   H11   S    
C20   C24   A    
C37   H24   S    
C53   H18   S    
Cu1   O2    S    
C48   H1    S    
C7    H13   S    
C21   C34   A    
C4    O14   A    
C17   H21   S    
C43   C44   S    
C5    C9    A    
C37   C38   S    
C12   C50   A    
C31   C32   A    
C38   H3    S    
Cu2   N3    S    
C17   C18   A    
C34   C45   A    
C1    O12   A    
C41   H4    S    
C39   C46   S    
C48   C49   A    
C41   N3    A    
C42   H5    S    
C15   C58   A    
C44   H6    S    
C2    C5    A    
C13   O9    S    
C32   C53   S    
C27   C52   S    
C23   C48   A    
C12   H25   S    
C50   C57   A    
C14   C19   A    
C3    C26   A    
C3    C5    A    
C39   C43   A    
C6    H14   S    
C6    C7    A    
Cu2   O14   S    
C28   C58   S    
C4    O13   A    
C43   N4    A    
C30   C36   A    
C32   C33   A    
C51   H16   S    
C19   N2    S    
C11   N2    A    
C44   Cl2   S    
C52   O6    D    
C33   C35   A    
C42   N4    A    
Cu1   Cu2   S    
Cu1   O15   S    
C46   H8    S    
C10   C11   A    
C16   O16   A    
C24   H15   S    
C20   C21   A    
C45   C55   A    
C1    O1    A    
C14   C15   A    
C3    C22   A    
C11   O11   S    
Cu2   O3    S    
C54   H19   S    
C55   H9    S    
C47   C56   A    
