data_mof_unit_14855.cif
_audit_creation_date              2012-12-10T18:02:08-0500
_audit_creation_method            fapswitch 2.2
_symmetry_space_group_name_H-M    P1
_symmetry_Int_Tables_number       1
_space_group_crystal_system       triclinic
_cell_length_a                    10.90159
_cell_length_b                    9.628809
_cell_length_c                    23.533533
_cell_angle_alpha                 88.900505
_cell_angle_beta                  92.880146
_cell_angle_gamma                 89.599158
_cell_volume                      2466.64609905

loop_
_atom_site_label
_atom_site_type_symbol
_atom_type_description
_atom_site_fract_x
_atom_site_fract_y
_atom_site_fract_z
_atom_type_partial_charge
C1    C     C_R   0.262374 0.500405 0.499229 0.893110
C2    C     C_R   0.737124 0.499436 0.496336 0.892630
C3    C     C_R   0.564723 0.623040 0.241231 0.349409
C4    C     C_R   0.380296 0.596298 0.751508 0.371450
C5    C     C_R   0.573563 0.608878 0.300723 0.218447
C6    C     C_R   0.383542 0.573928 0.692639 0.192826
C7    C     C_R   0.505235 0.505598 0.328332 -0.350527
C8    C     C_R   0.484454 0.503207 0.670836 -0.336182
C9    C     C_R   0.437673 0.408854 0.295246 0.336469
C10   C     C_R   0.578523 0.452826 0.708917 0.323023
C11   C     C_R   0.439362 0.415442 0.235701 0.319129
C12   C     C_R   0.558047 0.444080 0.766851 0.351952
C13   C     C_R   0.498275 0.525675 0.208543 0.026101
C14   C     C_R   0.464992 0.525831 0.789699 0.004545
C15   C     C_R   0.064769 0.381221 0.513728 0.331746
C16   C     C_R   0.932758 0.615732 0.472063 0.348830
C17   C     C_R   0.938584 0.374577 0.503020 0.338458
C18   C     C_R   0.061413 0.614510 0.471693 0.333021
C19   C     C_R   0.870932 0.497141 0.490684 -0.352148
C20   C     C_R   0.128098 0.500501 0.496339 -0.340230
C21   C     C_R   0.425593 0.076957 0.462153 0.393659
C22   C     C_R   0.561713 0.923519 0.542376 0.344258
C23   C     C_R   0.573188 0.072666 0.538691 0.395120
C24   C     C_R   0.435199 0.927922 0.458517 0.401310
C25   C     C_R   0.501912 0.501249 0.391091 0.886062
C26   C     C_R   0.498301 0.499866 0.608823 0.907802
C27   C     C_R   0.573330 0.576904 0.879781 0.706530
C28   C     C_R   0.383912 0.570131 0.119072 0.711215
C29   C     C_R   0.360499 0.529623 0.879915 0.714873
C30   C     C_R   0.597190 0.511949 0.119133 0.723944
C31   C     C_R   0.361976 0.557015 0.938732 -0.168589
C32   C     C_R   0.596688 0.526627 0.059276 -0.160890
C33   C     C_R   0.476474 0.555568 0.969211 -0.110102
C34   C     C_R   0.482452 0.552215 0.029256 -0.096441
C35   C     C_R   0.584788 0.556444 0.939216 -0.156744
C36   C     C_R   0.374012 0.573286 0.058899 -0.151677
C37   C     C_R   0.254803 0.585266 0.967622 0.366381
C38   C     C_R   0.704880 0.514020 0.028290 0.356720
C39   C     C_R   0.260943 0.597901 0.027207 0.362322
C40   C     C_R   0.698921 0.532532 0.968794 0.372276
Cu1   Cu    Cu3+1 0.500000 0.640660 0.500000 1.084332
Cu2   Cu    Cu3+1 0.500000 0.359340 0.500000 1.050210
N1    N     N_R   0.465161 0.546282 0.850700 -0.442609
N2    N     N_R   0.493038 0.536749 0.147301 -0.433629
N3    N     N_R   0.500000 0.852070 0.500000 -0.252728
N4    N     N_R   0.500000 0.147930 0.500000 -0.263548
O1    O     O_R   0.319640 0.618740 0.500000 -0.504378
O2    O     O_R   0.680360 0.381260 0.500000 -0.536940
O3    O     O_R   0.680360 0.618740 0.500000 -0.532129
O4    O     O_R   0.319640 0.381260 0.500000 -0.534094
O5    O     O_R   0.499960 0.618810 0.417880 -0.525320
O6    O     O_R   0.500040 0.381190 0.582120 -0.567665
O7    O     O_R   0.500040 0.618810 0.582120 -0.516629
O8    O     O_R   0.499960 0.381190 0.417880 -0.523549
O9    O     O_2   0.668454 0.626255 0.851164 -0.400231
O10   O     O_2   0.285946 0.597718 0.149804 -0.433262
O11   O     O_2   0.257701 0.481988 0.852909 -0.397838
O12   O     O_2   0.699836 0.472492 0.149662 -0.410091
Cl1   Cl    Cl    0.115674 0.627242 0.928984 -0.285617
Cl2   Cl    Cl    0.850838 0.475482 0.061711 -0.302876
Cl3   Cl    Cl    0.124661 0.647570 0.059692 -0.306818
Cl4   Cl    Cl    0.833207 0.502412 0.931442 -0.274517
Cl5   Cl    Cl    0.636338 0.763983 0.207338 -0.417218
Cl6   Cl    Cl    0.277743 0.722642 0.775742 -0.405125
Cl7   Cl    Cl    0.678373 0.714751 0.339531 -0.511827
Cl8   Cl    Cl    0.264926 0.643423 0.646196 -0.581694
O13   O     O_3   0.372954 0.303846 0.320723 -0.502622
C41   C     C_3   0.249932 0.347781 0.325011 -0.149130
H1    H     H_    0.214134 0.414958 0.288633 0.164538
H2    H     H_    0.240479 0.402261 0.365656 0.114042
H3    H     H_    0.190799 0.254617 0.325671 0.188852
O14   O     O_3   0.699478 0.459516 0.694389 -0.532451
C42   C     C_3   0.734575 0.336711 0.668764 -0.128393
H4    H     H_    0.732620 0.356719 0.622248 0.187330
H5    H     H_    0.678147 0.244573 0.679721 0.174409
H6    H     H_    0.831018 0.312447 0.683025 0.188563
Cl9   Cl    Cl    0.366877 0.283914 0.195316 -0.453088
Cl10  Cl    Cl    0.656870 0.334863 0.809858 -0.447267
O15   O     O_3   0.125998 0.265380 0.536566 -0.570653
C43   C     C_3   0.131844 0.275122 0.596297 -0.179628
H7    H     H_    0.188322 0.365108 0.610246 0.187920
H8    H     H_    0.176976 0.179796 0.614767 0.187025
H9    H     H_    0.038618 0.281994 0.613365 0.151302
O16   O     O_3   0.866796 0.723622 0.445702 -0.510806
C44   C     C_3   0.869778 0.838220 0.481697 -0.126116
H10   H     H_    0.859435 0.807990 0.527213 0.148895
H11   H     H_    0.790649 0.905755 0.468310 0.150767
H12   H     H_    0.955414 0.898279 0.477175 0.178474
O17   O     O_3   0.882969 0.246610 0.503429 -0.559037
C45   C     C_3   0.864325 0.202494 0.446651 -0.233933
H13   H     H_    0.782157 0.135546 0.444064 0.174574
H14   H     H_    0.944715 0.140763 0.434368 0.148115
H15   H     H_    0.845957 0.288558 0.414847 0.153285
O18   O     O_3   0.120486 0.726068 0.447601 -0.543334
C46   C     C_3   0.127126 0.704051 0.388679 -0.157106
H16   H     H_    0.206023 0.634860 0.380928 0.129279
H17   H     H_    0.143421 0.805005 0.367086 0.192698
H18   H     H_    0.040909 0.661628 0.368512 0.175863
O19   O     O_3   0.343323 0.152335 0.426984 -0.525638
C47   C     C_3   0.221737 0.109453 0.435760 -0.162871
H19   H     H_    0.208362 0.065658 0.479214 0.190591
H20   H     H_    0.191553 0.032785 0.403613 0.161165
H21   H     H_    0.160178 0.200950 0.429339 0.162613
O20   O     O_3   0.612215 0.850233 0.588925 -0.559867
C48   C     C_3   0.542716 0.878753 0.636668 -0.176010
H22   H     H_    0.573618 0.807264 0.672139 0.204326
H23   H     H_    0.442865 0.861429 0.627604 0.198805
H24   H     H_    0.556741 0.986361 0.651679 0.159585
O21   O     O_3   0.648360 0.145801 0.576826 -0.570901
C49   C     C_3   0.764111 0.080396 0.588348 -0.206044
H25   H     H_    0.796644 0.023972 0.551725 0.162430
H26   H     H_    0.763534 0.012574 0.626870 0.191166
H27   H     H_    0.834327 0.159645 0.598154 0.182007
O22   O     O_3   0.372193 0.857337 0.415692 -0.557042
C50   C     C_3   0.411437 0.901212 0.361866 -0.159212
H28   H     H_    0.396300 0.815225 0.331711 0.175620
H29   H     H_    0.510663 0.928349 0.362426 0.196672
H30   H     H_    0.355683 0.990580 0.344674 0.205940

loop_
_geom_bond_atom_site_label_1
_geom_bond_atom_site_label_2
_ccdc_geom_bond_type
C38   C40   A    
C24   O22   S    
C8    C26   S    
Cu1   Cu2   S    
C46   H16   S    
C25   O5    A    
O22   C50   S    
C28   O10   S    
C46   H18   S    
C22   O20   S    
C44   H10   S    
C48   H23   S    
C24   N3    A    
C41   H3    S    
Cu2   N4    S    
C8    C10   A    
C27   O9    S    
C50   H28   S    
C16   O16   S    
C40   Cl4   S    
C15   C17   A    
C42   H4    S    
C49   H25   S    
C11   Cl9   S    
C17   C19   A    
C15   O15   S    
C41   H1    S    
C50   H29   S    
C12   Cl10  S    
C31   C33   A    
C32   C38   A    
C1    O4    A    
C18   C20   A    
C3    C13   A    
O14   C42   S    
C23   N4    A    
C29   N1    A    
C42   H5    S    
C30   N2    A    
C43   H9    S    
C23   O21   S    
Cu1   O3    S    
O20   C48   S    
C44   H11   S    
C15   C20   A    
C39   Cl3   S    
C48   H24   S    
O13   C41   S    
C17   O17   S    
C25   O8    A    
C4    C6    A    
C5    C7    A    
C1    O1    A    
C6    C8    A    
C27   C35   A    
C28   N2    A    
C47   H21   S    
C31   C37   A    
C32   C34   A    
C9    O13   S    
C2    O3    A    
C26   O6    A    
C45   H14   S    
O19   C47   S    
C29   C31   A    
C50   H30   S    
C47   H20   S    
C33   C34   A    
Cu1   O1    S    
Cu2   O2    S    
O16   C44   S    
C9    C11   A    
C49   H27   S    
Cu1   O7    S    
C37   Cl1   S    
C10   C12   A    
Cu2   O4    S    
C38   Cl2   S    
C5    Cl7   S    
C12   C14   A    
C18   O18   S    
C42   H6    S    
C26   O7    A    
C45   H15   S    
C21   N4    A    
C44   H12   S    
C7    C9    A    
C1    C20   S    
C2    C19   S    
C36   C39   A    
C29   O11   S    
C43   H7    S    
C3    C5    A    
C46   H17   S    
C3    Cl5   S    
C48   H22   S    
C4    Cl6   S    
C7    C25   S    
C2    O2    A    
C35   C40   A    
C37   C39   A    
O21   C49   S    
Cu2   O8    S    
C30   C32   A    
C11   C13   A    
C45   H13   S    
C16   C19   A    
C21   O19   S    
C30   O12   S    
C47   H19   S    
C33   C35   A    
C43   H8    S    
C34   C36   A    
C4    C14   A    
O18   C46   S    
C49   H26   S    
O15   C43   S    
C27   N1    A    
C6    Cl8   S    
C22   N3    A    
C28   C36   A    
C16   C18   A    
C21   C24   A    
C41   H2    S    
Cu1   N3    S    
C22   C23   A    
O17   C45   S    
Cu1   O5    S    
C13   N2    S    
Cu2   O6    S    
C14   N1    S    
C10   O14   S    
