data_mof_unit_65109.cif
_audit_creation_date              2012-12-10T18:44:12-0500
_audit_creation_method            fapswitch 2.2
_symmetry_space_group_name_H-M    P1
_symmetry_Int_Tables_number       1
_space_group_crystal_system       triclinic
_cell_length_a                    18.117177
_cell_length_b                    18.109064
_cell_length_c                    22.070711
_cell_angle_alpha                 114.159549
_cell_angle_beta                  114.093483
_cell_angle_gamma                 89.973614
_cell_volume                      5909.33315537

loop_
_atom_site_label
_atom_site_type_symbol
_atom_type_description
_atom_site_fract_x
_atom_site_fract_y
_atom_site_fract_z
_atom_type_partial_charge
C1    C     C_R   0.349753 0.349658 0.699443 0.508752
C2    C     C_1   0.889245 0.889467 0.778916 0.037335
C3    C     C_3   0.080462 0.024792 0.024130 0.117088
C4    C     C_3   0.919540 0.975205 0.975869 0.117135
C5    C     C_3   0.036733 0.036566 0.073124 0.021766
C6    C     C_3   0.963269 0.963432 0.926876 0.021725
C7    C     C_1   0.077342 0.077127 0.154292 -0.005719
C8    C     C_1   0.922659 0.922871 0.845707 -0.005813
C9    C     C_3   0.077039 0.543187 0.548852 -0.100009
C10   C     C_3   0.922961 0.456813 0.451148 -0.099963
C11   C     C_3   0.004608 0.539597 0.568271 -0.118759
C12   C     C_R   0.650245 0.650345 0.300561 0.508727
C13   C     C_3   0.995392 0.460403 0.431729 -0.118704
C14   C     C_3   0.948703 0.550682 0.499745 0.058041
C15   C     C_3   0.051297 0.449318 0.500255 0.058041
C16   C     C_R   0.150340 0.150266 0.300537 0.511042
C17   C     C_R   0.849660 0.849733 0.699463 0.511044
C18   C     C_3   0.020190 0.555095 0.480277 -0.121549
C19   C     C_3   0.979809 0.444904 0.519723 -0.121548
C20   C     C_3   0.562992 0.560329 0.024377 0.086893
C21   C     C_3   0.436969 0.439669 0.975632 0.087088
C22   C     C_3   0.555006 0.467335 0.974983 -0.138824
C23   C     C_3   0.506277 0.577003 0.549572 -0.099995
C24   C     C_3   0.444957 0.532653 0.025032 -0.138826
C25   C     C_1   0.389537 0.389173 0.778760 0.071573
C26   C     C_1   0.610448 0.610832 0.221249 0.071469
C27   C     C_3   0.471526 0.554620 0.975249 0.268020
C28   C     C_3   0.528436 0.445383 0.024769 0.268132
C29   C     C_3   0.463320 0.462819 0.926544 -0.035671
C30   C     C_3   0.536642 0.537179 0.073470 -0.035837
C31   C     C_1   0.422937 0.422364 0.845472 0.052706
C32   C     C_1   0.577036 0.577633 0.154538 0.052477
C33   C     C_3   0.076359 0.003821 0.548025 0.113240
C34   C     C_3   0.493723 0.422997 0.450428 -0.100011
C35   C     C_3   0.923641 0.996179 0.451975 0.113224
C36   C     C_3   0.018814 0.924546 0.479060 -0.129731
C37   C     C_3   0.981186 0.075454 0.520940 -0.129734
C38   C     C_3   0.947836 0.949165 0.499225 0.034453
C39   C     C_3   0.052164 0.050835 0.500775 0.034475
C40   C     C_R   0.391763 0.108315 0.499959 0.532231
C41   C     C_R   0.608236 0.891684 0.500041 0.532229
C42   C     C_3   0.004844 0.027641 0.568372 -0.127330
C43   C     C_3   0.995156 0.972359 0.431628 -0.127330
C44   C     C_3   0.529575 0.064808 0.567796 -0.129659
C45   C     C_3   0.010651 0.053558 0.974923 -0.104907
C46   C     C_3   0.470425 0.935191 0.432204 -0.129735
C47   C     C_3   0.573471 0.039132 0.517377 0.090524
C48   C     C_3   0.426529 0.960868 0.482623 0.090511
C49   C     C_3   0.551116 0.948958 0.500280 0.038857
C50   C     C_3   0.448884 0.051042 0.499720 0.038849
C51   C     C_3   0.507624 0.973498 0.550632 -0.107466
C52   C     C_3   0.492376 0.026501 0.449368 -0.107535
C53   C     C_R   0.108343 0.391797 0.500078 0.508445
C54   C     C_R   0.891657 0.608203 0.499922 0.508438
C55   C     C_R   0.108584 0.108205 0.500188 0.524679
C56   C     C_3   0.989351 0.946439 0.025077 -0.105024
C57   C     C_R   0.891416 0.891795 0.499812 0.524677
C58   C     C_R   0.391762 0.391663 0.499901 0.509223
C59   C     C_R   0.608238 0.608336 0.500099 0.509212
C60   C     C_3   0.425574 0.520885 0.481223 -0.121420
C61   C     C_3   0.574426 0.479115 0.518777 -0.121424
C62   C     C_3   0.471087 0.496127 0.431986 -0.118229
C63   C     C_3   0.528913 0.503873 0.568014 -0.118215
C64   C     C_3   0.550917 0.551309 0.500292 0.057730
C65   C     C_3   0.449082 0.448691 0.499708 0.057734
C66   C     C_3   0.967037 0.065799 0.025021 -0.105479
C67   C     C_3   0.032965 0.934199 0.974979 -0.105651
C68   C     C_1   0.110755 0.110532 0.221084 0.037389
H1    H     H_    0.448456 0.494027 0.376258 0.136751
H2    H     H_    0.446987 0.881056 0.376780 0.145840
H3    H     H_    0.514361 0.950814 0.591983 0.164485
H4    H     H_    0.485639 0.049186 0.408017 0.164405
H5    H     H_    0.363520 0.536926 0.465832 0.129857
H6    H     H_    0.636480 0.463074 0.534168 0.129849
H7    H     H_    0.512285 0.641085 0.590272 0.152721
H8    H     H_    0.487715 0.358915 0.409728 0.152676
H9    H     H_    0.940106 0.120034 0.046292 0.146964
H10   H     H_    0.059896 0.879964 0.953707 0.146607
H11   H     H_    0.019341 0.097098 0.953605 0.147309
H12   H     H_    0.551544 0.505973 0.623742 0.136768
H13   H     H_    0.980661 0.902899 0.046395 0.147224
H14   H     H_    0.007358 0.573147 0.624226 0.133383
H15   H     H_    0.992642 0.426853 0.375774 0.133506
H16   H     H_    0.141158 0.577798 0.588944 0.153349
H17   H     H_    0.858842 0.422202 0.411056 0.153401
H18   H     H_    0.035616 0.601279 0.464065 0.130590
H19   H     H_    0.964384 0.398721 0.535935 0.130586
H20   H     H_    0.562468 0.241108 0.008755 0.383333
H21   H     H_    0.428911 0.756979 0.991004 0.382208
H22   H     H_    0.599718 0.439824 0.954134 0.166854
H23   H     H_    0.400249 0.560175 0.045875 0.166382
H24   H     H_    0.033542 0.861891 0.461983 0.144960
H25   H     H_    0.966458 0.138109 0.538017 0.144958
H26   H     H_    0.008077 0.049495 0.624463 0.149911
H27   H     H_    0.991923 0.950505 0.375537 0.149916
H28   H     H_    0.553013 0.118943 0.623220 0.145991
I1    I     I_    0.664135 0.655682 0.063821 -0.178044
I2    I     I_    0.335794 0.344329 0.936161 -0.181430
I3    I     I_    0.196376 0.005759 0.625595 -0.221173
I4    I     I_    0.803624 0.994241 0.374406 -0.220756
I5    I     I_    0.691197 0.101130 0.544916 -0.316576
I6    I     I_    0.308802 0.898869 0.455084 -0.316690
I7    I     I_    0.790851 0.935563 0.937375 -0.277633
I8    I     I_    0.209151 0.064434 0.062624 -0.279549
O1    O     O_3   0.250010 0.250010 0.500010 -0.460977
O2    O     O_R   0.893710 0.832180 0.664370 -0.532620
O3    O     O_R   0.332200 0.393690 0.664400 -0.521252
O4    O     O_R   0.667800 0.606310 0.335600 -0.521216
O5    O     O_R   0.229300 0.167820 0.335610 -0.525734
O6    O     O_R   0.770700 0.832180 0.664390 -0.525679
O7    O     O_R   0.358130 0.123520 0.543120 -0.511554
O8    O     O_R   0.641870 0.876480 0.456880 -0.511594
O9    O     O_R   0.080390 0.314990 0.456920 -0.537932
O10   O     O_R   0.919610 0.685010 0.543080 -0.537971
O11   O     O_R   0.185040 0.123520 0.543150 -0.503817
O12   O     O_3   0.749990 0.749990 0.499990 -0.460967
O13   O     O_R   0.814960 0.876480 0.456850 -0.503827
O14   O     O_R   0.358080 0.419590 0.543080 -0.536817
O15   O     O_R   0.641920 0.580410 0.456920 -0.536824
O16   O     O_R   0.080420 0.141920 0.456950 -0.537755
O17   O     O_R   0.919580 0.858080 0.543050 -0.537760
O18   O     O_R   0.376490 0.315000 0.456880 -0.542499
O19   O     O_R   0.623510 0.685000 0.543120 -0.542496
O20   O     O_2   0.659806 0.399585 0.104179 -0.261773
O21   O     O_2   0.529081 0.368270 0.106069 -0.243598
O22   O     O_3   0.544904 0.279473 0.986356 -0.480374
O23   O     O_R   0.376520 0.141930 0.456900 -0.542211
O24   O     O_2   0.470392 0.631795 0.893805 -0.238100
O25   O     O_2   0.339930 0.600126 0.895965 -0.267607
O26   O     O_3   0.454715 0.720529 0.013582 -0.479729
O27   O     O_R   0.623480 0.858070 0.543100 -0.542174
O28   O     O_R   0.184990 0.419580 0.543110 -0.540197
O29   O     O_R   0.815010 0.580420 0.456890 -0.540190
O30   O     O_R   0.332220 0.270690 0.664420 -0.527366
O31   O     O_R   0.667780 0.729310 0.335580 -0.527422
O32   O     O_R   0.106290 0.167820 0.335630 -0.532551
S1    S     S_3+6 0.567795 0.372691 0.058702 0.056405
S2    S     S_3+6 0.431941 0.627257 0.941311 0.056299
Zn1   Zn    Zn3+2 0.307090 0.219220 0.438420 0.961023
Zn2   Zn    Zn3+2 0.692910 0.780780 0.561580 0.961081
Zn3   Zn    Zn3+2 0.280820 0.192930 0.561610 0.998486
Zn4   Zn    Zn3+2 0.719180 0.807070 0.438390 0.998433
Zn5   Zn    Zn3+2 0.131340 0.219220 0.438450 0.960944
Zn6   Zn    Zn3+2 0.868660 0.780780 0.561550 0.960858
Zn7   Zn    Zn3+2 0.280790 0.368660 0.561580 0.962527
Zn8   Zn    Zn3+2 0.719210 0.631340 0.438420 0.962519

loop_
_geom_bond_atom_site_label_1
_geom_bond_atom_site_label_2
_ccdc_geom_bond_type
C3    I8    S    
C25   C31   T    
O12   Zn8   S    
C63   C65   S    
C10   H17   S    
C26   C32   T    
C47   I5    S    
C6    C45   S    
C27   C29   S    
C14   C18   S    
C5    C56   S    
C24   C27   S    
C58   O14   A    
C17   O6    A    
O11   Zn3   S    
C56   H13   S    
C47   C49   S    
C20   C30   S    
O15   Zn8   S    
C15   C19   S    
C67   H10   S    
C46   C49   S    
C11   C19   S    
C59   C64   S    
C18   H18   S    
C51   H3    S    
C13   C18   S    
C44   H28   S    
C33   C42   S    
C15   C53   S    
C57   O13   A    
C22   C29   S    
O18   Zn1   S    
C38   C42   S    
O32   Zn5   S    
C19   H19   S    
O1    Zn3   S    
O3    Zn7   S    
C11   C14   S    
O1    Zn1   S    
C4    I7    S    
C46   C52   S    
C60   H5    S    
C34   C62   S    
C33   C36   S    
C60   C62   S    
O8    Zn4   S    
C37   C42   S    
C61   C63   S    
O24   S2    D    
C62   C64   S    
O27   Zn2   S    
C7    C68   T    
O12   Zn6   S    
O31   Zn4   S    
C39   C55   S    
C20   I1    S    
C49   C51   S    
C41   O8    A    
C43   H27   S    
C16   C68   S    
C35   C43   S    
C44   C47   S    
C63   H12   S    
C36   H24   S    
C23   C63   S    
O1    Zn7   S    
C22   C28   S    
C4    C56   S    
C2    C17   S    
C1    C25   S    
O17   Zn6   S    
O16   Zn5   S    
O23   Zn1   S    
C34   C65   S    
C41   C49   S    
C53   O9    A    
C16   O5    A    
C40   O7    A    
O4    Zn8   S    
C55   O16   A    
C48   C51   S    
C11   H14   S    
C59   O19   A    
C23   C60   S    
C46   C48   S    
C58   O18   A    
C27   S2    S    
O25   S2    D    
O20   S1    D    
C35   C38   S    
C4    C6    S    
C10   C14   S    
C41   O27   A    
C39   C43   S    
O21   S1    D    
C54   O29   A    
C21   C29   S    
O19   Zn2   S    
C3    C45   S    
C34   C61   S    
H21   O26   S    
O9    Zn5   S    
C62   H1    S    
C12   C26   S    
C33   I3    S    
O10   Zn6   S    
C61   C64   S    
C52   H4    S    
C12   O31   A    
C38   C57   S    
C5    C7    S    
C58   C65   S    
C50   C52   S    
C10   C19   S    
O22   S1    S    
C48   I6    S    
C22   H22   S    
C37   H25   S    
C45   H11   S    
C53   O28   A    
C33   C39   S    
C48   C50   S    
C9    C11   S    
C1    O3    A    
O12   Zn4   S    
C44   C51   S    
C23   C64   S    
C14   C54   S    
C21   C28   S    
C20   C22   S    
C60   C65   S    
H20   O22   S    
C13   C15   S    
O28   Zn7   S    
C35   I4    S    
C16   O32   A    
C24   H23   S    
C12   O4    A    
C44   C50   S    
C66   H9    S    
C6    C67   S    
C59   O15   A    
C35   C37   S    
C42   H26   S    
O14   Zn7   S    
C3    C67   S    
C28   S1    S    
C23   H7    S    
C5    C66   S    
C3    C5    S    
C10   C13   S    
O1    Zn5   S    
C6    C8    S    
O2    Zn6   S    
C47   C52   S    
C20   C27   S    
C61   H6    S    
C56   C67   S    
C13   H15   S    
O5    Zn1   S    
C36   C38   S    
O13   Zn4   S    
C9    C15   S    
C28   C30   S    
C37   C39   S    
C17   O2    A    
O30   Zn3   S    
C30   C32   S    
C21   I2    S    
C40   O23   A    
C55   O11   A    
C40   C50   S    
C54   O10   A    
O6    Zn2   S    
C24   C30   S    
C46   H2    S    
O7    Zn3   S    
C9    H16   S    
C57   O17   A    
C9    C18   S    
C4    C66   S    
C29   C31   S    
C21   C24   S    
C2    C8    T    
C45   C66   S    
C36   C43   S    
O29   Zn8   S    
C1    O30   A    
C34   H8    S    
O12   Zn2   S    
O26   S2    S    
