data_mof_unit_12066.cif
_audit_creation_date              2013-03-05T15:45:40-0500
_audit_creation_method            fapswitch 2.2
_symmetry_space_group_name_H-M    P1
_symmetry_Int_Tables_number       1
_space_group_crystal_system       triclinic
_cell_length_a                    15.101968
_cell_length_b                    11.042279
_cell_length_c                    9.800446
_cell_angle_alpha                 111.139703
_cell_angle_beta                  97.466512
_cell_angle_gamma                 91.166287
_cell_volume                      1507.41743687

loop_
_atom_site_label
_atom_site_type_symbol
_atom_site_description
_atom_site_fract_x
_atom_site_fract_y
_atom_site_fract_z
_atom_type_partial_charge
O1    O     O_R   0.508410 0.332340 0.577400 -0.583666
O2    O     O_R   0.491590 0.667660 0.422600 -0.582401
O3    O     O_R   0.481780 0.295500 0.332650 -0.568534
O4    O     O_R   0.518220 0.704500 0.667350 -0.568747
C1    C     C_R   0.493422 0.254106 0.440653 0.862503
C2    C     C_R   0.506554 0.745892 0.559348 0.866414
O5    O     O_R   0.383570 0.518390 0.622380 -0.588408
O6    O     O_R   0.616430 0.481610 0.377620 -0.589708
O7    O     O_R   0.356940 0.481550 0.377630 -0.567227
O8    O     O_R   0.643060 0.518450 0.622370 -0.561033
C3    C     C_R   0.328866 0.498371 0.502162 0.811264
C4    C     C_R   0.671121 0.501871 0.498010 0.805693
Cu1   Cu    Cu3+1 0.515770 0.521810 0.644910 0.964423
Cu2   Cu    Cu3+1 0.484230 0.478190 0.355090 0.961178
C5    C     C_R   0.807902 0.552935 0.401273 0.136251
C6    C     C_R   0.192572 0.456150 0.605451 0.137342
C7    C     C_R   0.767576 0.503396 0.494438 -0.128475
C8    C     C_R   0.232658 0.500813 0.508142 -0.127597
C9    C     C_R   0.820098 0.458196 0.591754 -0.190222
C10   C     C_R   0.180422 0.548523 0.412869 -0.189989
C11   C     C_R   0.913141 0.462948 0.601580 -0.004290
C12   C     C_R   0.088323 0.555900 0.413557 -0.001748
C13   C     C_R   0.953967 0.509324 0.505928 -0.014342
C14   C     C_R   0.047393 0.508916 0.508610 -0.013532
C15   C     C_R   0.901355 0.554910 0.406418 0.075692
C16   C     C_R   0.099663 0.459948 0.605167 0.077319
C17   C     C_R   0.966103 0.419145 0.702044 0.335468
C18   C     C_R   0.035867 0.605960 0.318564 0.325390
C19   C     C_R   0.058244 0.416157 0.700808 -0.185327
C20   C     C_R   0.943154 0.602711 0.314256 -0.177266
H1    H     H_    0.786972 0.416683 0.657913 0.205804
H2    H     H_    0.212686 0.579397 0.337369 0.209539
H3    H     H_    0.097555 0.381500 0.778037 0.216772
H4    H     H_    0.904129 0.640426 0.239641 0.224871
H5    H     H_    0.486056 0.864635 0.368242 0.183865
H6    H     H_    0.513711 0.135354 0.631762 0.182823
C21   C     C_2   0.489815 0.114798 0.407188 -0.333289
C22   C     C_2   0.510096 0.885197 0.592811 -0.334164
C23   C     C_2   0.501540 0.069559 0.516636 -0.141364
C24   C     C_2   0.498269 0.930432 0.483366 -0.135315
H7    H     H_    0.522352 0.951277 0.707735 0.157189
H8    H     H_    0.477602 0.048720 0.292261 0.158596
H9    H     H_    0.442558 0.414485 0.845560 0.153846
H10   H     H_    0.557618 0.585267 0.154389 0.154337
N1    N     N_2   0.460520 0.445420 0.137370 -0.281753
N2    N     N_2   0.539480 0.554580 0.862630 -0.279383
C25   C     C_2   0.506973 0.511217 0.081303 -0.062768
C26   C     C_2   0.493121 0.488653 0.918671 -0.065184
H11   H     H_    0.587017 0.624563 0.934545 0.207224
H12   H     H_    0.412912 0.375541 0.065478 0.203898
N3    N     N_3   0.755664 0.604283 0.304004 -0.592470
H13   H     H_    0.715667 0.674098 0.364557 0.220753
H14   H     H_    0.715401 0.528247 0.221403 0.251825
N4    N     N_3   0.244241 0.402288 0.700796 -0.599206
H15   H     H_    0.286480 0.476480 0.782355 0.247308
H16   H     H_    0.282031 0.329992 0.638469 0.225124
N5    N     N_R   0.928117 0.379077 0.807565 0.127446
O9    O     O_R   0.878011 0.455580 0.895083 -0.339702
O10   O     O_R   0.956509 0.278449 0.834843 -0.336693
N6    N     N_R   0.075400 0.662824 0.227855 0.118781
O11   O     O_R   0.138266 0.756527 0.287731 -0.355852
O12   O     O_R   0.037756 0.638731 0.092673 -0.309283

loop_
_geom_bond_atom_site_label_1
_geom_bond_atom_site_label_2
_geom_bond_distance
_ccdc_geom_bond_type
C4    C7    1.461517 S    
O5    C3    1.292766 A    
O7    Cu2   1.962875 S    
C2    C22   1.450800 S    
C3    C8    1.462096 S    
C1    C21   1.450823 S    
C17   C19   1.394095 A    
H9    C26   1.084579 S    
C8    C10   1.397139 A    
C25   C26   1.506997 S    
H10   C25   1.084591 S    
O5    Cu1   1.977994 S    
O6    C4    1.293504 A    
C9    H1    1.081734 S    
C18   C20   1.394630 A    
H5    C24   1.088144 S    
C11   C17   1.413392 A    
C21   C23   1.331233 D    
C12   C18   1.413212 A    
Cu1   Cu2   2.679330 S    
N6    O12   1.301178 A    
C22   C24   1.331235 D    
O7    C3    1.295370 A    
N2    H11   1.030716 S    
N5    O9    1.301535 A    
O2    C2    1.292948 A    
O3    Cu2   1.947856 S    
O8    C4    1.294216 A    
N1    H12   1.030713 S    
C16   C19   1.403796 A    
C10   H2    1.081674 S    
O1    C1    1.292958 A    
C12   C14   1.415714 A    
O4    C2    1.289992 A    
C9    C11   1.394502 A    
C10   C12   1.395667 A    
Cu2   N1    2.012784 S    
C5    N3    1.437085 S    
N4    H16   1.045720 S    
N1    C25   1.299752 D    
C11   C13   1.415906 A    
C6    C16   1.404261 A    
Cu1   N2    2.012784 S    
O2    Cu2   1.949437 S    
C6    N4    1.437364 S    
N5    O10   1.301493 A    
O1    Cu1   1.949437 S    
C20   H4    1.083122 S    
C13   C14   1.407875 A    
N3    H13   1.045691 S    
C23   C24   1.449254 S    
N2    C26   1.299740 D    
C19   H3    1.083112 S    
C21   H8    1.087561 S    
C13   C15   1.415897 A    
C18   N6    1.437467 S    
C22   H7    1.087559 S    
C6    C8    1.412922 A    
C17   N5    1.438116 S    
O4    Cu1   1.947854 S    
C5    C7    1.412455 A    
N4    H15   1.044444 S    
C15   C20   1.404058 A    
O6    Cu2   1.977994 S    
C5    C15   1.405100 A    
C7    C9    1.396678 A    
H6    C23   1.088144 S    
N3    H14   1.044533 S    
C14   C16   1.415376 A    
N6    O11   1.301378 A    
O3    C1    1.289990 A    
O8    Cu1   1.962875 S    
