data_mof_unit_6346.cif
_audit_creation_date              2013-03-05T16:46:30-0500
_audit_creation_method            fapswitch 2.2
_symmetry_space_group_name_H-M    P1
_symmetry_Int_Tables_number       1
_space_group_crystal_system       triclinic
_cell_length_a                    10.504364
_cell_length_b                    8.940189
_cell_length_c                    8.11568
_cell_angle_alpha                 90.000014
_cell_angle_beta                  103.377749
_cell_angle_gamma                 89.999845
_cell_volume                      741.47124953

loop_
_atom_site_label
_atom_site_type_symbol
_atom_site_description
_atom_site_fract_x
_atom_site_fract_y
_atom_site_fract_z
_atom_type_partial_charge
O1    O     O_R   0.499990 0.285340 0.636850 -0.616565
O2    O     O_R   0.500010 0.714660 0.363150 -0.600535
O3    O     O_R   0.500010 0.285340 0.363150 -0.616564
O4    O     O_R   0.499990 0.714660 0.636850 -0.600534
C1    C     C_R   0.500000 0.217979 0.500000 0.907057
C2    C     C_R   0.500000 0.782016 0.500000 0.955936
O5    O     O_R   0.317810 0.500000 0.585760 -0.610089
O6    O     O_R   0.682190 0.500000 0.414240 -0.610097
O7    O     O_R   0.317820 0.500000 0.312020 -0.567709
O8    O     O_R   0.682180 0.500000 0.687980 -0.567701
C3    C     C_R   0.256111 0.496490 0.430532 0.833038
C4    C     C_R   0.743889 0.496490 0.569468 0.833034
Zn1   Zn    Zn3+2 0.499990 0.500000 0.682780 1.064313
Zn2   Zn    Zn3+2 0.500010 0.500000 0.317220 1.064307
H1    H     H_    0.864955 0.324244 0.401462 0.193964
H2    H     H_    0.135048 0.324245 0.598546 0.193963
C5    C     C_2   0.115125 0.473774 0.391693 0.134319
C6    C     C_2   0.884876 0.473781 0.608308 0.134312
C7    C     C_2   0.068489 0.384169 0.497513 -0.205742
C8    C     C_2   0.931513 0.384172 0.502491 -0.205764
C9    C     C_1   0.500000 0.065177 0.500000 -0.155430
C10   C     C_1   0.500000 0.934825 0.500000 -0.150795
N1    N     N_1   0.500020 0.500000 0.073650 0.010373
N2    N     N_1   0.499980 0.500000 0.926350 0.010375
N3    N     N_R   0.967583 0.552176 0.748608 0.239396
O9    O     O_R   0.923315 0.670026 0.811160 -0.311770
O10   O     O_R   0.081776 0.499828 0.824133 -0.341353
N4    N     N_R   0.032415 0.552157 0.251385 0.239390
O11   O     O_R   0.076664 0.670027 0.188852 -0.311777
O12   O     O_R   0.918249 0.499765 0.175824 -0.341350

loop_
_geom_bond_atom_site_label_1
_geom_bond_atom_site_label_2
_geom_bond_distance
_ccdc_geom_bond_type
Zn2   N1    1.976761 S    
N1    N2    1.195343 T    
O3    Zn2   1.954967 S    
N3    O10   1.301286 A    
C7    C8    1.448730 S    
O6    C4    1.276819 A    
N4    O12   1.301273 A    
C9    C10   1.165378 T    
O5    C3    1.276818 A    
O7    C3    1.278570 A    
O2    C2    1.263396 A    
C6    N3    1.443864 S    
O8    C4    1.278570 A    
H2    C7    1.087597 S    
O1    C1    1.263416 A    
N4    O11   1.301242 A    
C5    C7    1.346832 D    
C6    C8    1.346837 D    
H1    C8    1.087597 S    
O2    Zn2   1.954966 S    
O1    Zn1   1.954967 S    
C2    C10   1.366140 S    
O5    Zn1   1.893383 S    
C1    C9    1.366077 S    
O4    C2    1.263395 A    
C4    C6    1.455278 S    
O4    Zn1   1.954966 S    
O7    Zn2   1.904468 S    
C3    C5    1.455277 S    
O6    Zn2   1.893385 S    
N3    O9    1.301246 A    
C5    N4    1.443856 S    
Zn1   N2    1.976760 S    
O3    C1    1.263417 A    
O8    Zn1   1.904468 S    
