data_mof_unit_49471.cif
_audit_creation_date              2012-12-10T17:22:10-0500
_audit_creation_method            fapswitch 2.2
_symmetry_space_group_name_H-M    P1
_symmetry_Int_Tables_number       1
_space_group_crystal_system       triclinic
_cell_length_a                    15.891063
_cell_length_b                    10.84355
_cell_length_c                    9.615581
_cell_angle_alpha                 91.254104
_cell_angle_beta                  90.432439
_cell_angle_gamma                 94.069718
_cell_volume                      1652.27127403

loop_
_atom_site_label
_atom_site_type_symbol
_atom_type_description
_atom_site_fract_x
_atom_site_fract_y
_atom_site_fract_z
_atom_type_partial_charge
C1    C     C_R   0.503851 0.262661 0.498279 0.879294
C2    C     C_3   0.951472 0.511107 0.662700 0.217405
C3    C     C_3   0.916581 0.500878 0.505686 0.083528
C4    C     C_3   0.954919 0.607639 0.411113 0.168630
C5    C     C_3   0.053290 0.608447 0.407687 -0.203097
C6    C     C_1   0.824268 0.499812 0.503357 0.101223
C7    C     C_1   0.175509 0.501522 0.499721 0.085951
C8    C     C_1   0.250922 0.500537 0.498931 -0.142308
C9    C     C_R   0.594477 0.123398 0.712018 0.189497
C10   C     C_R   0.603645 0.068363 0.841074 -0.233817
C11   C     C_R   0.554743 0.961525 0.872353 -0.287829
C12   C     C_R   0.340409 0.499543 0.499602 0.823516
C13   C     C_R   0.503965 0.899426 0.768859 0.453953
C14   C     C_R   0.507123 0.943173 0.630385 -0.035765
C15   C     C_R   0.537248 0.066636 0.611306 -0.021869
C16   C     C_R   0.507351 0.127931 0.494053 -0.114126
C17   C     C_R   0.467477 0.058777 0.382428 0.076782
C18   C     C_R   0.458789 0.929624 0.387727 0.078625
C19   C     C_R   0.482055 0.870654 0.509707 -0.105989
C20   C     C_R   0.634857 0.648747 0.137718 0.221256
C21   C     C_R   0.703228 0.694074 0.056145 0.125976
C22   C     C_R   0.694540 0.696294 0.914364 -0.317221
C23   C     C_R   0.492624 0.736754 0.502537 0.847065
C24   C     C_R   0.621495 0.646663 0.852891 -0.136985
C25   C     C_R   0.561182 0.572211 0.925461 0.139628
C26   C     C_R   0.563903 0.572545 0.075260 0.053958
C27   C     C_R   0.441341 0.430404 0.072060 0.509551
C28   C     C_R   0.442055 0.430568 0.923452 -0.147068
C29   C     C_R   0.659463 0.499242 0.500499 0.802548
C30   C     C_3   0.053076 0.528616 0.658481 0.308349
C31   C     C_3   0.042182 0.376193 0.439682 0.091181
C32   C     C_3   0.943539 0.376606 0.438736 0.067621
C33   C     C_1   0.748866 0.499302 0.501863 -0.161215
C34   C     C_3   0.083128 0.502395 0.502379 0.103617
Cu1   Cu    Cu3+1 0.499990 0.499990 0.640660 0.967299
Cu2   Cu    Cu3+1 0.500010 0.500010 0.359340 1.025958
H1    H     H_    0.929131 0.589918 0.303844 0.162751
H2    H     H_    0.646134 0.111613 0.919260 0.161304
H3    H     H_    0.556510 0.927032 0.977105 0.135239
H4    H     H_    0.742507 0.744304 0.852072 0.165856
H5    H     H_    0.615764 0.669489 0.747027 0.212269
H6    H     H_    0.394957 0.373700 0.864864 0.142947
H7    H     H_    0.065444 0.365022 0.331691 0.138711
H8    H     H_    0.916875 0.297838 0.499621 0.202421
H9    H     H_    0.080856 0.699005 0.448082 0.218406
N1    N     N_R   0.500800 0.501210 0.147910 -0.189028
N2    N     N_R   0.500820 0.501290 0.852040 -0.194857
O1    O     O_R   0.499990 0.319640 0.618810 -0.582098
O2    O     O_R   0.500000 0.319660 0.381240 -0.519081
O3    O     O_R   0.379430 0.499990 0.618840 -0.562627
O4    O     O_R   0.379440 0.500020 0.381260 -0.526783
O5    O     O_R   0.500000 0.680340 0.618760 -0.566724
O6    O     O_R   0.500010 0.680360 0.381190 -0.537550
O7    O     O_R   0.620560 0.499980 0.618740 -0.605254
O8    O     O_R   0.620570 0.500010 0.381160 -0.560354
N3    N     N_3   0.921898 0.397680 0.736656 -0.619362
H10   H     H_    0.929620 0.411621 0.844146 0.235566
H11   H     H_    0.954105 0.320486 0.709930 0.221490
N4    N     N_3   0.083884 0.656046 0.701790 -0.568251
H12   H     H_    0.049713 0.723926 0.657648 0.229781
H13   H     H_    0.077365 0.668076 0.809352 0.246225
N5    N     N_3   0.916229 0.614596 0.741000 -0.605738
H14   H     H_    0.914246 0.694850 0.684746 0.272600
H15   H     H_    0.853605 0.590307 0.767738 0.236882
N6    N     N_3   0.435634 0.119823 0.263941 -0.525288
H16   H     H_    0.465546 0.089602 0.174288 0.218790
H17   H     H_    0.370731 0.097704 0.254494 0.226331
N7    N     N_3   0.648677 0.229995 0.679666 -0.580875
H18   H     H_    0.643131 0.296480 0.758903 0.248116
H19   H     H_    0.710919 0.204590 0.681787 0.215977
O9    O     O_3   0.443585 0.807828 0.804682 -0.699587
H20   H     H_    0.448816 0.791273 0.905327 0.311933
N8    N     N_3   0.422411 0.857904 0.271936 -0.563994
H21   H     H_    0.459350 0.874889 0.184026 0.206935
H22   H     H_    0.361439 0.884058 0.252827 0.219385
O10   O     O_3   0.381343 0.358550 0.142217 -0.691209
H23   H     H_    0.343346 0.312690 0.073684 0.291498
N9    N     N_3   0.094142 0.447526 0.756407 -0.559359
H24   H     H_    0.072338 0.461340 0.857503 0.205328
H25   H     H_    0.086449 0.353702 0.732331 0.272046
N10   N     N_3   0.633701 0.705487 0.272444 -0.505124
H26   H     H_    0.626974 0.800058 0.260557 0.202039
H27   H     H_    0.691219 0.697588 0.323960 0.233954
N11   N     N_3   0.777529 0.754074 0.120264 -0.606006
H28   H     H_    0.783391 0.845958 0.088691 0.226874
H29   H     H_    0.829827 0.710267 0.083603 0.232350
O11   O     O_3   0.068169 0.274256 0.512059 -0.759749
H30   H     H_    0.050179 0.199065 0.455573 0.339706
O12   O     O_3   0.907659 0.353340 0.305036 -0.737652
H31   H     H_    0.942949 0.396460 0.234427 0.311373
N12   N     N_3   0.083347 0.603153 0.263241 -0.615542
H32   H     H_    0.148943 0.600798 0.261377 0.243567
H33   H     H_    0.056678 0.526685 0.207289 0.201833
O13   O     O_3   0.929539 0.724017 0.453193 -0.767226
H34   H     H_    0.944301 0.781836 0.377003 0.343719

loop_
_geom_bond_atom_site_label_1
_geom_bond_atom_site_label_2
_ccdc_geom_bond_type
O11   H30   S    
C28   N2    A    
N8    H21   S    
Cu1   Cu2   S    
C3    C6    S    
Cu1   N2    S    
N10   H26   S    
C7    C8    T    
C31   H7    S    
N11   H29   S    
N9    H25   S    
C29   O7    A    
C15   C16   A    
C29   C33   S    
N3    H10   S    
C18   C19   A    
N5    H15   S    
Cu2   O6    S    
N11   H28   S    
C31   C32   S    
C16   C17   A    
N6    H17   S    
Cu2   N1    S    
C9    C10   A    
C25   N2    A    
N4    H12   S    
C13   C14   A    
C5    C34   S    
Cu1   O7    S    
C24   H5    S    
N8    H22   S    
O13   H34   S    
Cu1   O1    S    
N10   H27   S    
C23   O6    A    
N4    H13   S    
C31   O11   S    
C30   C34   S    
C24   C25   A    
N12   H32   S    
N9    H24   S    
N7    H18   S    
C29   O8    A    
C25   C26   A    
C5    H9    S    
C19   C23   S    
N5    H14   S    
N12   H33   S    
C32   O12   S    
C21   N11   S    
C8    C12   S    
C22   H4    S    
C30   N4    S    
C20   C21   A    
Cu1   O3    S    
C17   C18   A    
C32   H8    S    
C31   C34   S    
C1    C16   S    
O10   H23   S    
C11   H3    S    
C5    N12   S    
Cu2   O4    S    
C4    O13   S    
C27   N1    A    
C18   N8    S    
C7    C34   S    
C22   C24   A    
C27   O10   S    
Cu1   O5    S    
C12   O4    A    
C14   C19   A    
C4    C5    S    
C12   O3    A    
C1    O1    A    
C13   O9    S    
C17   N6    S    
C6    C33   T    
C2    C30   S    
C10   H2    S    
C2    C3    S    
C9    C15   A    
C9    N7    S    
O9    H20   S    
Cu2   O8    S    
C2    N3    S    
C11   C13   A    
C23   O5    A    
C20   C26   A    
C28   H6    S    
N3    H11   S    
C3    C32   S    
C10   C11   A    
C26   N1    A    
C30   N9    S    
C2    N5    S    
C4    H1    S    
N7    H19   S    
N6    H16   S    
C27   C28   A    
C14   C15   A    
O12   H31   S    
C21   C22   A    
C1    O2    A    
Cu2   O2    S    
C3    C4    S    
C20   N10   S    
