data_mof_unit_49485.cif
_audit_creation_date              2012-12-11T15:26:36-0500
_audit_creation_method            fapswitch 2.2
_symmetry_space_group_name_H-M    P1
_symmetry_Int_Tables_number       1
_space_group_crystal_system       triclinic
_cell_length_a                    7.273036
_cell_length_b                    12.353797
_cell_length_c                    28.967386
_cell_angle_alpha                 89.99986
_cell_angle_beta                  89.999954
_cell_angle_gamma                 89.999879
_cell_volume                      2602.70834401

loop_
_atom_site_label
_atom_site_type_symbol
_atom_type_description
_atom_site_fract_x
_atom_site_fract_y
_atom_site_fract_z
_atom_type_partial_charge
O1    O     O_R   0.647170 0.849180 0.201220 -0.543331
O2    O     O_R   0.352830 0.150820 0.798780 -0.543331
O3    O     O_R   0.352830 0.150820 0.701220 -0.543334
O4    O     O_R   0.647170 0.849180 0.298780 -0.543334
O5    O     O_R   0.147170 0.650820 0.298780 -0.543334
O6    O     O_R   0.852830 0.349180 0.701220 -0.543334
O7    O     O_R   0.852830 0.349180 0.798780 -0.543332
O8    O     O_R   0.147170 0.650820 0.201220 -0.543332
O9    O     O_R   0.317430 0.862210 0.298450 -0.519157
O10   O     O_R   0.682570 0.137790 0.701550 -0.519157
O11   O     O_R   0.682570 0.137790 0.798450 -0.519156
O12   O     O_R   0.317430 0.862210 0.201550 -0.519156
O13   O     O_R   0.817430 0.637790 0.201550 -0.519158
O14   O     O_R   0.182570 0.362210 0.798450 -0.519158
O15   O     O_R   0.182570 0.362210 0.701550 -0.519157
O16   O     O_R   0.817430 0.637790 0.298450 -0.519157
C1    C     C_R   0.486599 0.887215 0.313226 0.748587
C2    C     C_R   0.513400 0.112785 0.686774 0.748588
C3    C     C_R   0.513400 0.112783 0.813225 0.748600
C4    C     C_R   0.486600 0.887217 0.186775 0.748600
C5    C     C_R   0.986600 0.612784 0.186775 0.748605
C6    C     C_R   0.013400 0.387216 0.813225 0.748605
C7    C     C_R   0.013400 0.387215 0.686774 0.748587
C8    C     C_R   0.986599 0.612785 0.313226 0.748587
H1    H     H_    0.861310 0.582844 0.691612 0.125654
H2    H     H_    0.138690 0.417156 0.308388 0.125654
H3    H     H_    0.138634 0.417138 0.191614 0.125650
H4    H     H_    0.861366 0.582862 0.808385 0.125650
H5    H     H_    0.361359 0.917139 0.808386 0.125651
H6    H     H_    0.638641 0.082861 0.191614 0.125651
H7    H     H_    0.638691 0.082843 0.308388 0.125655
H8    H     H_    0.361309 0.917157 0.691612 0.125655
O17   O     O_3   0.480630 0.680630 0.250000 -0.388298
O18   O     O_3   0.519370 0.319370 0.750000 -0.388298
O19   O     O_3   0.980630 0.819370 0.250000 -0.388297
O20   O     O_3   0.019370 0.180630 0.750000 -0.388297
V1    V     V_3+5 0.205800 0.762860 0.250000 1.585267
V2    V     V_3+5 0.794200 0.237140 0.750000 1.585267
V3    V     V_3+5 0.705800 0.737140 0.250000 1.585265
V4    V     V_3+5 0.294200 0.262860 0.750000 1.585265
C9    C     C_R   0.003521 0.534534 0.350910 -0.092623
C10   C     C_R   0.996479 0.465466 0.649090 -0.092623
C11   C     C_R   0.996482 0.465466 0.850910 -0.092613
C12   C     C_R   0.003517 0.534534 0.149090 -0.092613
C13   C     C_R   0.503517 0.965467 0.149090 -0.092617
C14   C     C_R   0.496483 0.034533 0.850910 -0.092617
C15   C     C_R   0.496479 0.034534 0.649090 -0.092621
C16   C     C_R   0.503521 0.965466 0.350910 -0.092622
C17   C     C_R   0.120464 0.364704 0.379068 0.001292
C18   C     C_R   0.879535 0.635295 0.620931 0.001292
C19   C     C_R   0.879585 0.635308 0.879066 0.001293
C20   C     C_R   0.120415 0.364692 0.120933 0.001293
C21   C     C_R   0.620415 0.135309 0.120933 0.001290
C22   C     C_R   0.379585 0.864691 0.879067 0.001290
C23   C     C_R   0.379536 0.864705 0.620932 0.001291
C24   C     C_R   0.620464 0.135295 0.379068 0.001291
C25   C     C_R   0.097078 0.438310 0.343233 -0.297945
C26   C     C_R   0.902921 0.561690 0.656767 -0.297945
C27   C     C_R   0.902961 0.561702 0.843231 -0.297963
C28   C     C_R   0.097039 0.438298 0.156769 -0.297963
C29   C     C_R   0.597042 0.061702 0.156768 -0.297957
C30   C     C_R   0.402958 0.938298 0.843232 -0.297957
C31   C     C_R   0.402921 0.938311 0.656767 -0.297946
C32   C     C_R   0.597079 0.061689 0.343233 -0.297946
C33   C     C_R   0.944617 0.561061 0.395313 0.600310
C34   C     C_R   0.055383 0.438939 0.604687 0.600310
C35   C     C_R   0.055365 0.438930 0.895313 0.600310
C36   C     C_R   0.944635 0.561070 0.104687 0.600310
C37   C     C_R   0.444631 0.938932 0.104687 0.600301
C38   C     C_R   0.555369 0.061068 0.895313 0.600301
C39   C     C_R   0.555382 0.061061 0.604687 0.600313
C40   C     C_R   0.444618 0.938939 0.395313 0.600313
C41   C     C_R   0.005087 0.500662 0.434289 -0.063757
C42   C     C_R   0.994912 0.499338 0.565711 -0.063757
C43   C     C_R   0.994913 0.499336 0.934288 -0.063760
C44   C     C_R   0.005087 0.500664 0.065712 -0.063760
C45   C     C_R   0.505085 0.999338 0.065712 -0.063758
C46   C     C_R   0.494915 0.000662 0.934288 -0.063758
C47   C     C_R   0.494912 0.000662 0.565711 -0.063755
C48   C     C_R   0.505088 0.999338 0.434289 -0.063755
C49   C     C_R   0.078136 0.395642 0.425271 -0.029008
C50   C     C_R   0.921863 0.604358 0.574729 -0.029008
C51   C     C_R   0.921896 0.604365 0.925270 -0.029008
C52   C     C_R   0.078104 0.395635 0.074730 -0.029008
C53   C     C_R   0.578101 0.104366 0.074730 -0.029003
C54   C     C_R   0.421899 0.895634 0.925270 -0.029003
C55   C     C_R   0.421863 0.895643 0.574729 -0.029010
C56   C     C_R   0.578137 0.104357 0.425271 -0.029010
C57   C     C_R   0.987701 0.537944 0.481404 -0.013697
C58   C     C_R   0.012299 0.462056 0.518596 -0.013697
C59   C     C_R   0.012289 0.462054 0.981405 -0.013683
C60   C     C_R   0.987711 0.537946 0.018595 -0.013683
C61   C     C_R   0.487710 0.962055 0.018596 -0.013687
C62   C     C_R   0.512290 0.037945 0.981404 -0.013687
C63   C     C_R   0.512299 0.037943 0.518595 -0.013696
C64   C     C_R   0.487701 0.962056 0.481404 -0.013696
C65   C     C_R   0.046867 0.351561 0.506735 -0.119472
C66   C     C_R   0.953133 0.648439 0.493264 -0.119472
C67   C     C_R   0.953170 0.648445 0.006734 -0.119503
C68   C     C_R   0.046830 0.351555 0.993266 -0.119503
C69   C     C_R   0.546827 0.148444 0.993265 -0.119502
C70   C     C_R   0.453172 0.851555 0.006735 -0.119502
C71   C     C_R   0.453132 0.851561 0.493265 -0.119470
C72   C     C_R   0.546868 0.148439 0.506735 -0.119470
C73   C     C_R   0.094791 0.322278 0.461901 0.576020
C74   C     C_R   0.905209 0.677722 0.538099 0.576020
C75   C     C_R   0.905256 0.677731 0.961899 0.575989
C76   C     C_R   0.094744 0.322269 0.038101 0.575989
C77   C     C_R   0.594738 0.177732 0.038100 0.575999
C78   C     C_R   0.405262 0.822268 0.961900 0.575999
C79   C     C_R   0.405208 0.822278 0.538099 0.576020
C80   C     C_R   0.594792 0.177722 0.461901 0.576020
F1    F     F_    0.146867 0.217966 0.454185 -0.705174
F2    F     F_    0.853133 0.782034 0.545815 -0.705174
F3    F     F_    0.853205 0.782050 0.954182 -0.705165
F4    F     F_    0.146795 0.217950 0.045818 -0.705165
F5    F     F_    0.646780 0.282051 0.045817 -0.705164
F6    F     F_    0.353219 0.717949 0.954183 -0.705164
F7    F     F_    0.353132 0.717967 0.545816 -0.705174
F8    F     F_    0.646868 0.282033 0.454184 -0.705174
C81   C     C_1   0.171186 0.256076 0.365827 0.450231
N1    N     N_1   0.207747 0.168762 0.354752 -0.336921
C82   C     C_1   0.828814 0.743923 0.634173 0.450231
N2    N     N_1   0.792253 0.831238 0.645248 -0.336921
C83   C     C_1   0.828880 0.743940 0.865825 0.450216
N3    N     N_1   0.792330 0.831257 0.854751 -0.336902
C84   C     C_1   0.171120 0.256060 0.134175 0.450216
N4    N     N_1   0.207670 0.168742 0.145249 -0.336902
C85   C     C_1   0.671121 0.243940 0.134174 0.450214
N5    N     N_1   0.707673 0.331258 0.145248 -0.336904
C86   C     C_1   0.328879 0.756059 0.865826 0.450214
N6    N     N_1   0.292327 0.668742 0.854752 -0.336904
C87   C     C_1   0.328815 0.756077 0.634174 0.450230
N7    N     N_1   0.292255 0.668763 0.645249 -0.336921
C88   C     C_1   0.671184 0.243923 0.365826 0.450230
N8    N     N_1   0.707744 0.331237 0.354751 -0.336921
F9    F     F_    0.186809 0.362082 0.601407 -0.689619
F10   F     F_    0.813190 0.637917 0.398593 -0.689620
F11   F     F_    0.813238 0.637943 0.101407 -0.689630
F12   F     F_    0.186761 0.362056 0.898593 -0.689631
F13   F     F_    0.686776 0.137938 0.898593 -0.689621
F14   F     F_    0.313224 0.862062 0.101407 -0.689621
F15   F     F_    0.313190 0.862084 0.398593 -0.689620
F16   F     F_    0.686810 0.137915 0.601407 -0.689620
C89   C     C_1   0.020150 0.261182 0.537657 0.524292
N9    N     N_1   0.002891 0.187150 0.561703 -0.214167
C90   C     C_1   0.979850 0.738818 0.462343 0.524291
N10   N     N_1   0.997109 0.812850 0.438297 -0.214168
C91   C     C_1   0.979901 0.738824 0.037653 0.524314
N11   N     N_1   0.997169 0.812858 0.061699 -0.214135
C92   C     C_1   0.020099 0.261176 0.962346 0.524314
N12   N     N_1   0.002831 0.187142 0.938301 -0.214135
C93   C     C_1   0.520099 0.238822 0.962344 0.524308
N13   N     N_1   0.502834 0.312854 0.938297 -0.214142
C94   C     C_1   0.479901 0.761178 0.037656 0.524308
N14   N     N_1   0.497166 0.687145 0.061703 -0.214142
C95   C     C_1   0.479850 0.761182 0.462344 0.524289
N15   N     N_1   0.497111 0.687150 0.438297 -0.214169
C96   C     C_1   0.520150 0.238817 0.537656 0.524289
N16   N     N_1   0.502889 0.312850 0.561703 -0.214169

loop_
_geom_bond_atom_site_label_1
_geom_bond_atom_site_label_2
_ccdc_geom_bond_type
C40   F15   S    
C61   C62   A    
O5    V1    S    
C38   C46   A    
C37   C45   A    
C63   C64   A    
C1    C16   S    
C43   C51   A    
C2    C15   S    
C44   C52   A    
C47   C55   A    
C89   N9    T    
C3    C14   S    
C77   F5    S    
C82   N2    T    
C22   C86   S    
C67   C91   S    
O11   C3    A    
O17   V3    S    
C7    C10   S    
C74   F2    S    
O18   V4    S    
C73   F1    S    
C54   C78   A    
C12   C28   A    
C53   C77   A    
H3    C28   S    
C96   N16   T    
C15   C31   A    
C24   C56   A    
C55   C79   A    
C66   C90   S    
O6    C7    A    
C69   C77   A    
C34   C42   A    
C33   C41   A    
O3    C2    A    
C71   C79   A    
C21   C85   S    
C17   C49   A    
O12   V1    S    
C20   C52   A    
C20   C28   A    
C21   C29   A    
C95   N15   T    
C90   N10   T    
C62   C69   A    
C38   F13   S    
C23   C31   A    
C92   N12   T    
O6    V2    S    
C59   C68   A    
C48   C64   A    
C58   C65   A    
C4    C13   S    
C43   C59   A    
C65   C73   A    
C46   C54   A    
O15   C7    A    
C45   C53   A    
O16   C8    A    
C8    C9    S    
C10   C26   A    
C22   C54   A    
C16   C40   A    
C41   C49   A    
C20   C84   S    
C68   C92   S    
C49   C73   A    
C68   C76   A    
C14   C38   A    
C13   C37   A    
C19   C83   S    
C88   N8    T    
C34   F9    S    
C59   C60   A    
C80   F8    S    
C71   C95   S    
C9    C33   A    
C22   C30   A    
C37   F14   S    
C23   C87   S    
O14   V4    S    
C39   C47   A    
C18   C26   A    
O11   V2    S    
C11   C35   A    
C47   C63   A    
C35   F12   S    
C5    C12   S    
C6    C11   S    
O4    V3    S    
C69   C93   S    
C17   C81   S    
O12   C4    A    
O9    V1    S    
O8    C5    A    
O13   C5    A    
C78   F6    S    
C15   C39   A    
C81   N1    T    
C44   C60   A    
O4    C1    A    
C79   F7    S    
O9    C1    A    
C14   C30   A    
O3    V4    S    
C87   N7    T    
C12   C36   A    
C35   C43   A    
H1    C26   S    
C33   F10   S    
C72   C96   S    
C84   N4    T    
C19   C51   A    
C24   C88   S    
C63   C72   A    
C18   C50   A    
C72   C80   A    
C85   N5    T    
C42   C50   A    
H4    C27   S    
H5    C30   S    
O1    C4    A    
O19   V1    S    
O2    C3    A    
C65   C89   S    
H7    C32   S    
C18   C82   S    
H8    C31   S    
C61   C70   A    
C17   C25   A    
C46   C62   A    
C11   C27   A    
C36   C44   A    
O7    C6    A    
C67   C75   A    
C66   C74   A    
C57   C66   A    
O10   V2    S    
C76   F4    S    
O20   V2    S    
C93   N13   T    
C41   C57   A    
C40   C48   A    
C91   N11   T    
C45   C61   A    
O14   C6    A    
C24   C32   A    
C83   N3    T    
O5    C8    A    
O10   C2    A    
C70   C78   A    
C42   C58   A    
C13   C29   A    
C52   C76   A    
O7    V2    S    
C51   C75   A    
C75   F3    S    
C50   C74   A    
C23   C55   A    
H2    C25   S    
O15   V4    S    
O13   V3    S    
C16   C32   A    
O1    V3    S    
O16   V3    S    
C9    C25   A    
C56   C80   A    
O2    V4    S    
C19   C27   A    
C48   C56   A    
O8    V1    S    
H6    C29   S    
C94   N14   T    
C10   C34   A    
C36   F11   S    
C21   C53   A    
C57   C58   A    
C64   C71   A    
C70   C94   S    
C86   N6    T    
C60   C67   A    
C39   F16   S    
