data_mof_unit_29282.cif
_audit_creation_date              2012-12-11T15:29:46-0500
_audit_creation_method            fapswitch 2.2
_symmetry_space_group_name_H-M    P1
_symmetry_Int_Tables_number       1
_space_group_crystal_system       triclinic
_cell_length_a                    13.49737
_cell_length_b                    13.500894
_cell_length_c                    27.573042
_cell_angle_alpha                 90.464039
_cell_angle_beta                  89.999631
_cell_angle_gamma                 59.984616
_cell_volume                      4350.51466586

loop_
_atom_site_label
_atom_site_type_symbol
_atom_type_description
_atom_site_fract_x
_atom_site_fract_y
_atom_site_fract_z
_atom_type_partial_charge
C1    C     C_R   0.620331 0.101136 0.569897 0.548336
C2    C     C_1   0.649816 0.704161 0.657778 -0.058238
C3    C     C_3   0.091115 0.132682 0.737380 -0.101586
C4    C     C_R   0.599771 0.779201 0.568435 0.546815
C5    C     C_3   0.183185 0.059336 0.775365 -0.100379
C6    C     C_1   0.097624 0.200201 0.900259 -0.016103
C7    C     C_1   0.229693 0.137567 0.617089 -0.015243
C8    C     C_3   0.055426 0.241215 0.768759 -0.101436
C9    C     C_3   0.147926 0.167698 0.805892 0.052674
C10   C     C_3   0.143870 0.262314 0.741962 -0.098989
C11   C     C_3   0.179163 0.154069 0.711354 0.052626
C12   C     C_1   0.631349 0.731525 0.615883 -0.014801
C13   C     C_3   0.235900 0.189060 0.779796 -0.101877
C14   C     C_3   0.271693 0.080509 0.748463 -0.103138
C15   C     C_1   0.125408 0.181008 0.858190 -0.058791
C16   C     C_R   0.277792 0.121613 0.569384 0.546781
C17   C     C_1   0.201751 0.146401 0.659104 -0.058320
C18   C     C_3   0.629200 0.276591 0.738790 -0.101462
C19   C     C_3   0.555089 0.258350 0.776735 -0.100048
C20   C     C_1   0.691549 0.206874 0.901357 -0.015721
C21   C     C_1   0.635626 0.133119 0.617821 -0.015378
C22   C     C_3   0.737148 0.203922 0.769815 -0.101430
C23   C     C_3   0.699340 0.560779 0.767081 -0.101479
C24   C     C_3   0.662880 0.185411 0.806927 0.052720
C25   C     C_3   0.758662 0.094159 0.742563 -0.099179
C26   C     C_3   0.650963 0.166975 0.712307 0.052578
C27   C     C_3   0.684635 0.075865 0.780390 -0.102100
C28   C     C_R   0.621095 0.099750 0.431104 0.538180
C29   C     C_3   0.576659 0.148468 0.749394 -0.103184
C30   C     C_1   0.674551 0.196008 0.859265 -0.058616
C31   C     C_1   0.643977 0.152037 0.659962 -0.058416
C32   C     C_R   0.635955 0.732234 0.381482 -0.017046
C33   C     C_R   0.689170 0.777398 0.352617 -0.140728
C34   C     C_3   0.679591 0.654410 0.804364 0.052681
C35   C     C_R   0.702120 0.755080 0.303501 -0.181278
C36   C     C_R   0.665165 0.684771 0.282653 0.014100
C37   C     C_R   0.621003 0.630113 0.312032 0.269701
C38   C     C_R   0.603503 0.657431 0.361414 -0.112003
C39   C     C_R   0.573929 0.704871 0.202750 -0.060468
C40   C     C_R   0.601241 0.778479 0.430141 0.544512
C41   C     C_R   0.583660 0.682045 0.153251 -0.115236
C42   C     C_R   0.788430 0.609566 0.157963 -0.123507
C43   C     C_R   0.778834 0.630157 0.207446 -0.109459
C44   C     C_R   0.672553 0.672543 0.230175 0.071259
C45   C     C_3   0.590210 0.648401 0.740038 -0.099064
C46   C     C_R   0.691928 0.629155 0.131106 0.022868
C47   C     C_R   0.226132 0.137367 0.383323 0.023253
C48   C     C_R   0.248759 0.041220 0.355102 -0.123342
C49   C     C_R   0.225476 0.052509 0.305869 -0.122417
C50   C     C_R   0.176787 0.160423 0.284314 0.036596
C51   C     C_R   0.146201 0.257746 0.313222 -0.108812
C52   C     C_R   0.279182 0.120072 0.430954 0.540619
C53   C     C_R   0.171549 0.246186 0.362439 -0.123816
C54   C     C_R   0.177769 0.249089 0.205525 -0.120134
C55   C     C_R   0.149762 0.267146 0.156615 -0.127468
C56   C     C_3   0.663742 0.682795 0.709920 0.052709
C57   C     C_R   0.094313 0.121736 0.158649 -0.120126
C58   C     C_R   0.120383 0.105174 0.207562 -0.111666
C59   C     C_R   0.159014 0.171109 0.231709 0.038640
C60   C     C_R   0.104025 0.206351 0.133330 0.023675
C61   C     C_R   0.635483 0.136333 0.383072 0.026309
C62   C     C_R   0.538032 0.219971 0.358817 -0.108101
C63   C     C_R   0.541932 0.235931 0.309445 -0.083746
C64   C     C_3   0.772750 0.595571 0.736171 -0.101364
C65   C     C_R   0.644142 0.171103 0.283623 0.065737
C66   C     C_R   0.743899 0.093732 0.308515 -0.095675
C67   C     C_3   0.570678 0.741564 0.778052 -0.102103
C68   C     C_R   0.739359 0.075599 0.357893 -0.124359
C69   C     C_R   0.715800 0.088602 0.201439 -0.129168
C70   C     C_R   0.731690 0.103171 0.152834 -0.126075
C71   C     C_R   0.599971 0.307063 0.161132 -0.109003
C72   C     C_R   0.584503 0.292471 0.209795 -0.069978
C73   C     C_R   0.646822 0.184015 0.230861 0.032793
C74   C     C_R   0.678207 0.213264 0.133051 0.017437
C75   C     C_R   0.049842 0.234887 0.947965 0.545057
C76   C     C_3   0.753249 0.688777 0.774320 -0.100293
C77   C     C_R   0.711963 0.561870 0.946419 0.543898
C78   C     C_3   0.644011 0.776435 0.747195 -0.103169
C79   C     C_R   0.722588 0.224153 0.949091 0.543853
C80   C     C_R   0.047933 0.243541 0.086307 0.544847
C81   C     C_R   0.709190 0.572203 0.084257 0.546350
C82   C     C_R   0.719159 0.232509 0.087030 0.546238
C83   C     C_1   0.697312 0.607483 0.898620 -0.016179
C84   C     C_1   0.688330 0.633676 0.856570 -0.059190
Cr1   Cr    Cr6+3 0.417550 0.169090 0.500530 1.023818
Cr2   Cr    Cr6+3 0.669180 0.913420 0.499920 1.025227
Cr3   Cr    Cr6+3 0.413260 0.917540 0.499520 1.026260
Cr4   Cr    Cr6+3 0.909770 0.175810 0.018240 1.022335
Cr5   Cr    Cr6+3 0.913300 0.427650 0.016090 1.021947
Cr6   Cr    Cr6+3 0.657770 0.431010 0.016900 1.026628
H1    H     H_    0.819871 0.705819 0.789062 0.104154
H2    H     H_    0.803532 0.226723 0.778788 0.099433
H3    H     H_    0.713787 0.836637 0.367298 0.150238
H4    H     H_    0.855518 0.535358 0.718449 0.103593
H5    H     H_    0.490603 0.743068 0.219996 0.143301
H6    H     H_    0.508025 0.699250 0.132983 0.126833
H7    H     H_    0.737387 0.796137 0.281365 0.114581
H8    H     H_    0.855030 0.607855 0.228378 0.109585
H9    H     H_    0.872970 0.569321 0.141722 0.134505
H10   H     H_    0.563807 0.621784 0.384106 0.140725
H11   H     H_    0.292157 0.955979 0.370184 0.141036
H12   H     H_    0.295653 0.211808 0.797661 0.103224
H13   H     H_    0.210982 0.298349 0.223165 0.102372
H14   H     H_    0.158752 0.332259 0.137717 0.125886
H15   H     H_    0.621187 0.865481 0.738371 0.100684
H16   H     H_    0.250615 0.976022 0.284361 0.110422
H17   H     H_    0.104665 0.044872 0.226920 0.109565
H18   H     H_    0.058935 0.073667 0.141671 0.134817
H19   H     H_    0.105287 0.342351 0.297571 0.111624
H20   H     H_    0.153112 0.321434 0.383647 0.127584
H21   H     H_    0.456228 0.267959 0.377147 0.132125
H22   H     H_    0.760875 0.003312 0.216396 0.098587
H23   H     H_    0.127238 0.345907 0.727699 0.104539
H24   H     H_    0.790894 0.029219 0.131504 0.127201
H25   H     H_    0.463670 0.295746 0.291272 0.100480
H26   H     H_    0.529336 0.367281 0.231445 0.189110
H27   H     H_    0.487850 0.801772 0.795737 0.103101
H28   H     H_    0.557458 0.392889 0.146650 0.149239
H29   H     H_    0.824856 0.045349 0.289625 0.107207
H30   H     H_    0.815574 0.010949 0.375820 0.125766
H31   H     H_    0.523541 0.631330 0.725367 0.104675
H32   H     H_    0.722077 0.471757 0.775898 0.098953
H33   H     H_    0.199774 0.975828 0.789704 0.104191
H34   H     H_    0.966100 0.307681 0.777690 0.099320
H35   H     H_    0.031359 0.110008 0.719471 0.103557
H36   H     H_    0.361034 0.014136 0.739499 0.100411
H37   H     H_    0.521992 0.471535 0.347657 0.339360
H38   H     H_    0.471300 0.325501 0.791378 0.104376
H39   H     H_    0.606904 0.358849 0.721231 0.103211
H40   H     H_    0.510357 0.125573 0.740389 0.100410
H41   H     H_    0.706996 0.993546 0.797911 0.103228
H42   H     H_    0.842521 0.026978 0.727981 0.104536
O1    O     O_R   0.301780 0.195490 0.553940 -0.506410
O2    O     O_R   0.636050 0.541380 0.962520 -0.508201
O3    O     O_R   0.666480 0.323610 0.968170 -0.495408
O4    O     O_R   0.522450 0.158840 0.550250 -0.493028
O5    O     O_R   0.817280 0.156800 0.072180 -0.520334
O6    O     O_R   0.005110 0.187160 0.067410 -0.504083
O7    O     O_R   0.026450 0.340060 0.069950 -0.520841
O8    O     O_R   0.808300 0.527240 0.065170 -0.506243
O9    O     O_R   0.634070 0.548770 0.069460 -0.515313
O10   O     O_R   0.664650 0.330470 0.067300 -0.501760
O11   O     O_3   0.826940 0.344820 0.017080 -0.244019
O12   O     O_R   0.658840 0.818280 0.449970 -0.502899
O13   O     O_R   0.694460 0.003360 0.553820 -0.505172
O14   O     O_R   0.657750 0.819520 0.549120 -0.493606
O15   O     O_R   0.501990 0.803120 0.552700 -0.506030
O16   O     O_R   0.318230 0.023430 0.549370 -0.493221
O17   O     O_R   0.302950 0.194150 0.446980 -0.521690
O18   O     O_R   0.523540 0.157600 0.451100 -0.504866
O19   O     O_R   0.695630 0.002030 0.446860 -0.522979
O20   O     O_2   0.472325 0.582721 0.268287 -0.356227
O21   O     O_2   0.675397 0.455869 0.249859 -0.256115
O22   O     O_3   0.600089 0.436886 0.333730 -0.519397
O23   O     O_R   0.503160 0.801780 0.445740 -0.518043
O24   O     O_R   0.319320 0.022190 0.450230 -0.503949
O25   O     O_3   0.499990 0.000010 0.499990 -0.248844
O26   O     O_R   0.819250 0.149410 0.965240 -0.508325
O27   O     O_R   0.006940 0.180310 0.968270 -0.495091
O28   O     O_R   0.028420 0.332670 0.963010 -0.507182
O29   O     O_R   0.810130 0.520390 0.966030 -0.495454
S1    S     S_3+6 0.591010 0.525223 0.289058 -0.032186

loop_
_geom_bond_atom_site_label_1
_geom_bond_atom_site_label_2
_ccdc_geom_bond_type
C53   H20   S    
C75   O28   A    
C81   O8    A    
C66   C68   A    
C63   C65   A    
C28   O18   A    
C23   C45   S    
C27   C29   S    
C27   H41   S    
C1    O13   A    
C35   C36   A    
C18   C26   S    
C43   H8    S    
C82   O10   A    
C2    C12   T    
C79   O26   A    
Cr2   O12   S    
C6    C75   S    
C39   C41   A    
C20   C30   T    
C70   H24   S    
C1    C21   S    
C21   C31   T    
C5    C9    S    
C62   C63   A    
Cr3   O15   S    
C78   H15   S    
C50   C59   S    
C36   C37   A    
C76   C78   S    
C18   C19   S    
C82   O5    A    
C35   H7    S    
Cr6   O2    S    
C69   H22   S    
C80   O6    A    
C41   H6    S    
C77   C83   S    
C19   H38   S    
C65   C73   S    
C58   H17   S    
C42   C46   A    
Cr4   O27   S    
C9    C13   S    
Cr1   O18   S    
C33   C35   A    
C6    C15   T    
C60   C80   S    
C62   H21   S    
C83   C84   T    
C45   C56   S    
C52   O17   A    
C7    C17   T    
C22   C25   S    
C45   C67   S    
C41   C46   A    
C24   C27   S    
C40   O23   A    
C69   C73   A    
C32   C38   A    
C4    C12   S    
C1    O4    A    
Cr4   O11   S    
Cr6   O11   S    
C56   C78   S    
C47   C53   A    
C63   H25   S    
C28   C61   S    
C23   C34   S    
C81   O9    A    
Cr2   O19   S    
C26   C31   S    
C51   H19   S    
C13   C14   S    
C61   C62   A    
C67   C78   S    
C34   C84   S    
C74   C82   S    
C16   O1    A    
Cr2   O14   S    
H37   O22   S    
Cr5   O29   S    
C23   H32   S    
Cr1   O17   S    
C54   C59   A    
C77   O29   A    
Cr3   O16   S    
C54   H13   S    
C38   H10   S    
C3    C8    S    
C71   H28   S    
C8    C9    S    
C57   C60   A    
Cr1   O4    S    
C45   H31   S    
C25   C26   S    
Cr5   O11   S    
C4    O15   A    
C55   H14   S    
Cr3   O25   S    
C51   C53   A    
C47   C52   S    
C43   C44   A    
C70   C74   A    
C37   C38   A    
C46   C81   S    
C47   C48   A    
Cr5   O8    S    
C4    O14   A    
C56   C64   S    
C50   C51   A    
C64   C76   S    
C67   H27   S    
Cr4   O6    S    
C5    C14   S    
Cr6   O10   S    
C10   H23   S    
C26   C29   S    
C23   C64   S    
C49   C50   A    
Cr4   O26   S    
C66   H29   S    
C40   O12   A    
C7    C16   S    
Cr3   O23   S    
C36   C44   S    
C52   O24   A    
C42   C43   A    
C39   C44   A    
C19   C29   S    
Cr2   O13   S    
Cr5   O28   S    
Cr5   O7    S    
C75   O27   A    
C5    H33   S    
C54   C55   A    
C11   C17   S    
C20   C79   S    
C18   C22   S    
C58   C59   A    
O22   S1    S    
C8    H34   S    
C72   C73   A    
C3    C5    S    
C10   C13   S    
C33   H3    S    
C34   C67   S    
C71   C74   A    
C3    H35   S    
C49   H16   S    
C25   C27   S    
C80   O7    A    
C79   O3    A    
C72   H26   S    
C14   H36   S    
O21   S1    D    
C16   O16   A    
C32   C33   A    
C19   C24   S    
C39   H5    S    
C64   H4    S    
C71   C72   A    
C2    C56   S    
C42   H9    S    
C68   H30   S    
Cr6   O3    S    
C61   C68   A    
C57   C58   A    
C48   C49   A    
C48   H11   S    
C11   C14   S    
C22   C24   S    
C32   C40   S    
C9    C15   S    
C69   C70   A    
Cr2   O25   S    
C24   C30   S    
Cr4   O5    S    
Cr6   O9    S    
C3    C11   S    
C10   C11   S    
C76   H1    S    
C29   H40   S    
C57   H18   S    
C28   O19   A    
C8    C10   S    
C65   C66   A    
C77   O2    A    
Cr1   O1    S    
Cr1   O25   S    
C22   H2    S    
Cr3   O24   S    
C18   H39   S    
C13   H12   S    
C55   C60   A    
C25   H42   S    
O20   S1    D    
C34   C76   S    
C37   S1    S    
