data_mof_unit_16813.cif
_audit_creation_date              2013-03-05T15:49:33-0500
_audit_creation_method            fapswitch 2.2
_symmetry_space_group_name_H-M    P1
_symmetry_Int_Tables_number       1
_space_group_crystal_system       triclinic
_cell_length_a                    25.287648
_cell_length_b                    7.22255
_cell_length_c                    21.79443
_cell_angle_alpha                 90.000059
_cell_angle_beta                  110.191314
_cell_angle_gamma                 90.000022
_cell_volume                      3735.93899804

loop_
_atom_site_label
_atom_site_type_symbol
_atom_site_description
_atom_site_fract_x
_atom_site_fract_y
_atom_site_fract_z
_atom_type_partial_charge
O1    O     O_R   0.554350 0.505270 0.581390 -0.590973
O2    O     O_R   0.445650 0.005270 0.418610 -0.590973
O3    O     O_R   0.553380 0.177580 0.454800 -0.549545
O4    O     O_R   0.446620 0.677580 0.545200 -0.549545
C1    C     C_R   0.565894 0.344275 0.438366 1.008978
C2    C     C_R   0.434106 0.844275 0.561634 1.008978
O5    O     O_R   0.560970 0.175640 0.583140 -0.558102
O6    O     O_R   0.439030 0.675640 0.416860 -0.558102
O7    O     O_R   0.453290 0.004120 0.547860 -0.557882
O8    O     O_R   0.546710 0.504120 0.452140 -0.557882
C3    C     C_R   0.576215 0.344368 0.607575 0.932429
C4    C     C_R   0.423785 0.844368 0.392425 0.932430
O9    O     O_3   0.464660 0.338800 0.488280 -0.260694
O10   O     O_3   0.535340 0.838800 0.511720 -0.260694
V1    V     V_3+5 0.506560 0.064420 0.502170 1.314325
V2    V     V_3+5 0.493440 0.564420 0.497830 1.314325
C5    C     C_R   0.151067 0.020155 0.287506 -0.142103
C6    C     C_R   0.848933 0.520155 0.712494 -0.142103
H1    H     H_    0.068998 0.074763 0.218616 0.121143
H2    H     H_    0.931002 0.574763 0.781384 0.121144
H3    H     H_    0.138502 0.071523 0.327022 0.140019
H4    H     H_    0.861498 0.571524 0.672978 0.140018
C7    C     C_R   0.122059 0.943812 0.172452 -0.120837
C8    C     C_R   0.877941 0.443812 0.827548 -0.120838
C9    C     C_R   0.396437 0.851212 0.272526 -0.064158
C10   C     C_R   0.603563 0.351212 0.727473 -0.064159
C11   C     C_R   0.357623 0.874324 0.209895 -0.095903
C12   C     C_R   0.642377 0.374324 0.790105 -0.095902
C13   C     C_R   0.300558 0.894666 0.200134 -0.157291
C14   C     C_R   0.699442 0.394665 0.799866 -0.157288
C15   C     C_R   0.280308 0.885844 0.252895 0.095426
C16   C     C_R   0.719692 0.385843 0.747105 0.095425
C17   C     C_R   0.320992 0.879606 0.317505 0.020745
C18   C     C_R   0.679008 0.379606 0.682495 0.020745
C19   C     C_R   0.221474 0.903838 0.243502 0.013426
C20   C     C_R   0.778526 0.403838 0.756498 0.013426
C21   C     C_R   0.206625 0.961163 0.298036 0.069533
C22   C     C_R   0.793375 0.461163 0.701964 0.069533
C23   C     C_R   0.247630 0.960204 0.361872 0.253554
C24   C     C_R   0.752370 0.460205 0.638128 0.253553
C25   C     C_R   0.303260 0.909774 0.370890 -0.152982
C26   C     C_R   0.696740 0.409775 0.629110 -0.152983
C27   C     C_R   0.176641 0.871603 0.182172 0.197937
C28   C     C_R   0.823359 0.371602 0.817828 0.197939
C29   C     C_R   0.110595 0.020677 0.225218 -0.217480
C30   C     C_R   0.889405 0.520677 0.774782 -0.217481
C31   C     C_R   0.379217 0.854403 0.326965 -0.165208
C32   C     C_R   0.620783 0.354403 0.673034 -0.165209
H5    H     H_    0.440567 0.839280 0.278674 0.185524
H6    H     H_    0.559433 0.339280 0.721326 0.185524
H7    H     H_    0.273126 0.926728 0.151122 0.163148
H8    H     H_    0.726875 0.426727 0.848878 0.163151
H9    H     H_    0.372031 0.880455 0.168577 0.140416
H10   H     H_    0.627969 0.380454 0.831423 0.140418
H11   H     H_    0.333680 0.906313 0.420113 0.112303
H12   H     H_    0.666320 0.406314 0.579887 0.112303
C33   C     C_R   0.099049 0.784627 0.857548 -0.143612
C34   C     C_R   0.900952 0.284632 0.142454 -0.143648
H13   H     H_    0.067824 0.679080 0.854717 0.151211
H14   H     H_    0.932179 0.179092 0.145287 0.151199
C35   C     C_R   0.132129 0.768026 0.817499 0.327982
C36   C     C_R   0.867872 0.268030 0.182502 0.327991
C37   C     C_R   0.172081 0.907927 0.819152 0.022945
C38   C     C_R   0.827917 0.407923 0.180845 0.022949
C39   C     C_R   0.177380 0.059331 0.861606 -0.302706
C40   C     C_R   0.822615 0.559321 0.138387 -0.302699
H15   H     H_    0.208515 0.165334 0.864721 0.180606
H16   H     H_    0.791477 0.665315 0.135269 0.180614
C41   C     C_R   0.145361 0.072970 0.902921 0.371057
C42   C     C_R   0.854634 0.572961 0.097073 0.371050
C43   C     C_R   0.104683 0.935442 0.900211 -0.345073
C44   C     C_R   0.895316 0.435441 0.099787 -0.345059
N1    N     N_R   0.230535 0.060324 0.762809 -0.077371
N2    N     N_R   0.769462 0.560320 0.237187 -0.077370
N3    N     N_R   0.265254 0.055976 0.728617 -0.068226
N4    N     N_R   0.734743 0.555973 0.271380 -0.068225
C45   C     C_R   0.280559 0.892526 0.708763 0.171288
C46   C     C_R   0.719439 0.392523 0.291235 0.171288
N5    N     N_R   0.258869 0.733788 0.723730 -0.073306
N6    N     N_R   0.741130 0.233786 0.276269 -0.073306
N7    N     N_R   0.224221 0.738311 0.758008 -0.067680
N8    N     N_R   0.775779 0.238308 0.241990 -0.067678
C47   C     C_R   0.209188 0.901489 0.778408 0.147580
C48   C     C_R   0.790810 0.401486 0.221589 0.147579
C49   C     C_R   0.311111 0.756136 0.621596 -0.276694
C50   C     C_R   0.688888 0.256135 0.378402 -0.276693
H17   H     H_    0.274390 0.667150 0.609138 0.174869
H18   H     H_    0.725609 0.167148 0.390860 0.174868
C51   C     C_R   0.347946 0.737648 0.586475 0.353458
C52   C     C_R   0.652053 0.237648 0.413524 0.353459
C53   C     C_R   0.395862 0.853542 0.600889 -0.485045
C54   C     C_R   0.604137 0.353541 0.399110 -0.485045
C55   C     C_R   0.406398 0.984016 0.652463 0.381803
C56   C     C_R   0.593601 0.484015 0.347536 0.381803
C57   C     C_R   0.369350 0.999535 0.688593 0.134593
C58   C     C_R   0.630649 0.499533 0.311405 0.134593
C59   C     C_R   0.320681 0.885845 0.672143 -0.001721
C60   C     C_R   0.679317 0.385842 0.327855 -0.001721
O11   O     O_R   0.953220 0.285790 0.047790 -0.589941
O12   O     O_R   0.046780 0.785790 0.952210 -0.589937
O13   O     O_R   0.939020 0.617570 0.916840 -0.574895
O14   O     O_R   0.060980 0.117570 0.083160 -0.574898
C61   C     C_R   0.923528 0.448557 0.892543 0.933260
C62   C     C_R   0.076472 0.948557 0.107457 0.933252
O15   O     O_R   0.946600 0.615450 0.045180 -0.558098
O16   O     O_R   0.053400 0.115450 0.954820 -0.558096
O17   O     O_R   0.054370 0.786770 0.081410 -0.597794
O18   O     O_R   0.945630 0.286770 0.918590 -0.597795
C63   C     C_R   0.933797 0.446794 0.061021 0.976970
C64   C     C_R   0.066202 0.946794 0.938979 0.976961
O19   O     O_3   0.035300 0.454160 0.011680 -0.270180
O20   O     O_3   0.964700 0.954160 0.988320 -0.270183
V3    V     V_3+5 0.993450 0.728620 0.997830 1.217618
V4    V     V_3+5 0.006550 0.228620 0.002170 1.217617
C65   C     C_3   0.122405 0.602778 0.772607 -0.946275
H19   H     H_    0.113624 0.649342 0.721490 0.240614
H20   H     H_    0.159888 0.510936 0.788364 0.268989
H21   H     H_    0.085828 0.518719 0.773317 0.237192
C66   C     C_3   0.877598 0.102789 0.227397 -0.946303
H22   H     H_    0.886377 0.149360 0.278512 0.240622
H23   H     H_    0.840117 0.010939 0.211641 0.268990
H24   H     H_    0.914177 0.018736 0.226689 0.237190
N9    N     N_R   0.156980 0.222032 0.949359 0.242830
O21   O     O_R   0.169005 0.385940 0.933117 -0.404050
O22   O     O_R   0.165125 0.187535 0.010561 -0.411459
N10   N     N_R   0.843011 0.722013 0.050630 0.242829
O23   O     O_R   0.830966 0.885906 0.066860 -0.404038
O24   O     O_R   0.834879 0.687507 0.989431 -0.411466
N11   N     N_R   0.334916 0.602948 0.535129 0.230397
O25   O     O_R   0.362815 0.448006 0.544979 -0.340942
O26   O     O_R   0.286974 0.612684 0.487207 -0.432455
N12   N     N_R   0.665084 0.102949 0.464870 0.230397
O27   O     O_R   0.637185 0.948006 0.455021 -0.340942
O28   O     O_R   0.713026 0.112685 0.512791 -0.432455
N13   N     N_R   0.456021 0.096890 0.669695 0.228638
O29   O     O_R   0.451576 0.275867 0.663172 -0.395522
O30   O     O_R   0.505610 0.020087 0.689330 -0.437987
N14   N     N_R   0.543979 0.596888 0.330305 0.228638
O31   O     O_R   0.548423 0.775866 0.336828 -0.395523
O32   O     O_R   0.494389 0.520087 0.310671 -0.437987
C67   C     C_3   0.383604 0.127849 0.747075 -0.837174
H25   H     H_    0.379287 0.053307 0.789661 0.231080
H26   H     H_    0.427531 0.179443 0.763270 0.266472
H27   H     H_    0.354982 0.249361 0.735002 0.252576
C68   C     C_3   0.616394 0.627845 0.252923 -0.837172
H28   H     H_    0.620710 0.553302 0.210337 0.231080
H29   H     H_    0.572467 0.679438 0.236728 0.266471
H30   H     H_    0.645016 0.749357 0.264995 0.252576
C69   C     C_3   0.233210 0.012269 0.421397 -0.851652
H31   H     H_    0.199888 0.918745 0.425888 0.245225
H32   H     H_    0.270183 0.001219 0.467266 0.257728
H33   H     H_    0.218304 0.157884 0.417143 0.243921
C70   C     C_3   0.766790 0.512270 0.578603 -0.851651
H34   H     H_    0.800111 0.418747 0.574112 0.245225
H35   H     H_    0.729817 0.501221 0.532734 0.257729
H36   H     H_    0.781696 0.657885 0.582857 0.243920
C71   C     C_3   0.183219 0.741705 0.130676 -0.916042
H37   H     H_    0.181311 0.820338 0.086174 0.253044
H38   H     H_    0.222413 0.658727 0.148744 0.254941
H39   H     H_    0.149006 0.637129 0.117273 0.271281
C72   C     C_3   0.816781 0.241703 0.869324 -0.916038
H40   H     H_    0.818689 0.320336 0.913826 0.253049
H41   H     H_    0.777587 0.158726 0.851256 0.254942
H42   H     H_    0.850994 0.137128 0.882726 0.271279

loop_
_geom_bond_atom_site_label_1
_geom_bond_atom_site_label_2
_geom_bond_distance
_ccdc_geom_bond_type
C34   C36   1.407128 A    
C40   H16   1.083402 S    
C37   C39   1.408653 A    
O12   C64   1.332062 A    
C71   H37   1.110525 S    
C7    C29   1.394592 A    
C11   C13   1.391859 A    
O13   V3    1.994078 S    
O1    C3    1.328200 A    
O2    C4    1.328198 A    
C68   H30   1.109889 S    
O11   V4    1.975691 S    
C72   H40   1.110523 S    
C7    C27   1.421312 A    
N9    O21   1.301356 A    
C23   C25   1.399788 A    
C39   C41   1.406873 A    
O5    C3    1.332517 A    
C58   C68   1.515320 S    
N10   O23   1.301344 A    
N2    N4    1.333713 A    
O16   V4    1.995146 S    
C16   C20   1.435980 A    
O15   V3    1.995146 S    
C19   C21   1.425877 A    
C5    C29   1.389694 A    
C69   H32   1.111168 S    
O16   C64   1.336036 A    
C46   N6    1.358372 A    
N9    O22   1.301560 A    
C41   N9    1.436830 S    
C34   H14   1.083869 S    
C65   H19   1.110300 S    
O11   C63   1.332062 A    
C43   C64   1.495001 S    
C51   N11   1.432764 S    
C41   C43   1.416465 A    
O6    V2    1.994099 S    
O18   V4    1.982577 S    
C33   C35   1.407129 A    
C35   C37   1.420518 A    
C25   H11   1.083308 S    
C36   C38   1.420516 A    
C72   H41   1.107769 S    
C49   C51   1.401266 A    
C38   C48   1.498783 S    
N12   O27   1.300619 A    
C39   H15   1.083403 S    
C58   C60   1.418747 A    
C35   C65   1.508673 S    
C15   C17   1.429431 A    
C45   C59   1.492556 S    
C61   O18   1.334554 A    
C70   H35   1.111167 S    
C19   C27   1.442236 A    
C9    C31   1.398035 A    
C10   C32   1.398035 A    
C56   C58   1.421123 A    
C52   N12   1.432764 S    
C42   N10   1.436838 S    
C24   C26   1.399788 A    
C55   C57   1.421120 A    
N1    N3    1.333714 A    
C3    C32   1.483515 S    
C2    O7    1.326207 A    
C4    C31   1.483515 S    
C6    C30   1.389694 A    
C54   C56   1.419763 A    
O20   V3    1.766651 S    
N7    C47   1.359360 A    
C68   H28   1.110471 S    
C49   H17   1.083995 S    
C21   C23   1.419505 A    
C18   C26   1.400867 A    
C68   H29   1.107565 S    
N4    C46   1.358766 A    
C14   C16   1.412456 A    
O17   V3    1.982575 S    
N13   O29   1.301085 A    
C49   C59   1.402064 A    
N6    N8    1.333706 A    
C50   C52   1.401266 A    
C69   H33   1.110248 S    
N5    N7    1.333702 A    
C12   H10   1.082620 S    
C65   H20   1.109799 S    
C5    H3    1.081308 S    
H1    C29   1.084099 S    
C37   C47   1.498785 S    
C67   H26   1.107564 S    
C38   C40   1.408653 A    
O4    V2    1.994843 S    
O14   C62   1.334467 A    
C46   C60   1.492555 S    
O14   V4    1.994080 S    
C53   C55   1.419764 A    
C52   C54   1.415898 A    
C7    C62   1.486411 S    
O6    C4    1.332518 A    
C65   H21   1.110971 S    
C11   H9    1.082624 S    
C45   N5    1.358371 A    
O1    V2    1.983720 S    
C5    C21   1.409074 A    
C33   C43   1.407103 A    
C70   H36   1.110248 S    
C26   H12   1.083307 S    
O2    V1    1.983721 S    
N3    C45   1.358765 A    
C36   C66   1.508674 S    
C66   H23   1.109799 S    
N14   O32   1.301118 A    
O4    C2    1.325214 A    
C57   C67   1.515322 S    
C71   H39   1.108987 S    
N8    C48   1.359359 A    
C56   N14   1.433507 S    
C15   C19   1.435978 A    
C24   C70   1.511261 S    
C20   C28   1.442235 A    
C51   C53   1.415897 A    
C28   C72   1.515382 S    
C20   C22   1.425879 A    
O3    C1    1.325213 A    
C72   H42   1.108988 S    
O3    V1    1.994844 S    
N11   O25   1.300618 A    
C13   H7    1.079055 S    
C66   H24   1.110972 S    
N13   O30   1.301120 A    
C14   H8    1.079055 S    
C44   C63   1.495002 S    
N10   O24   1.301558 A    
C6    H4    1.081310 S    
O12   V3    1.975691 S    
N2    C48   1.360044 A    
C27   C71   1.515382 S    
C71   H38   1.107770 S    
C66   H22   1.110300 S    
C57   C59   1.418746 A    
C55   N13   1.433506 S    
C67   H27   1.109889 S    
C9    C11   1.389122 A    
C23   C69   1.511262 S    
C10   C12   1.389124 A    
O13   C61   1.334467 A    
C8    C61   1.486410 S    
C8    C30   1.394592 A    
C10   H6    1.080511 S    
C6    C22   1.409073 A    
C17   C25   1.400866 A    
C1    O8    1.326205 A    
C13   C15   1.412458 A    
O8    V2    1.980370 S    
C67   H25   1.110469 S    
C22   C24   1.419506 A    
C34   C44   1.407104 A    
C40   C42   1.406876 A    
O15   C63   1.336036 A    
C8    C28   1.421311 A    
O5    V1    1.994097 S    
C17   C31   1.426179 A    
C12   C14   1.391859 A    
O19   V4    1.766650 S    
C50   H18   1.083997 S    
O7    V1    1.980369 S    
C50   C60   1.402063 A    
C9    H5    1.080513 S    
C1    C54   1.497624 S    
C33   H13   1.083868 S    
N14   O31   1.301085 A    
C18   C32   1.426178 A    
N12   O28   1.300562 A    
O9    V2    1.767442 S    
O10   V1    1.767442 S    
C42   C44   1.416466 A    
C70   H34   1.110318 S    
C69   H31   1.110317 S    
N1    C47   1.360044 A    
C62   O17   1.334553 A    
H2    C30   1.084099 S    
C2    C53   1.497623 S    
C16   C18   1.429431 A    
N11   O26   1.300563 A    
