data_mof_unit_56118.cif
_audit_creation_date              2012-12-10T20:31:04-0500
_audit_creation_method            fapswitch 2.2
_symmetry_space_group_name_H-M    P1
_symmetry_Int_Tables_number       1
_space_group_crystal_system       triclinic
_cell_length_a                    14.993182
_cell_length_b                    10.657745
_cell_length_c                    9.860382
_cell_angle_alpha                 89.979696
_cell_angle_beta                  89.884505
_cell_angle_gamma                 90.159232
_cell_volume                      1575.61566671

loop_
_atom_site_label
_atom_site_type_symbol
_atom_type_description
_atom_site_fract_x
_atom_site_fract_y
_atom_site_fract_z
_atom_type_partial_charge
C1    C     C_R   0.494300 0.260251 0.500266 0.884638
C2    C     C_R   0.907348 0.535342 0.381289 0.118800
C3    C     C_R   0.953092 0.425726 0.734173 -0.220406
C4    C     C_R   0.045770 0.424897 0.733877 -0.217997
C5    C     C_R   0.092443 0.461426 0.617209 0.121127
C6    C     C_R   0.046295 0.498797 0.499446 0.059851
C7    C     C_R   0.092968 0.536308 0.381780 0.119823
C8    C     C_R   0.046777 0.572580 0.264987 -0.215685
C9    C     C_R   0.954086 0.571817 0.264640 -0.219419
C10   C     C_R   0.184691 0.461225 0.616085 -0.263719
C11   C     C_R   0.230728 0.499510 0.499889 -0.067354
C12   C     C_R   0.326616 0.499859 0.500060 0.877559
C13   C     C_R   0.185237 0.537192 0.383272 -0.257083
C14   C     C_R   0.501091 0.064142 0.621133 0.097088
C15   C     C_R   0.477737 0.128841 0.503844 -0.244386
C16   C     C_R   0.439126 0.062939 0.393715 0.429503
C17   C     C_R   0.446076 0.933048 0.392257 -0.221965
C18   C     C_R   0.485508 0.871479 0.502383 -0.204666
C19   C     C_R   0.504136 0.936653 0.620830 0.147031
C20   C     C_3   0.585160 0.933035 0.708765 -0.480406
C21   C     C_3   0.581899 0.075249 0.709110 -0.444347
C22   C     C_R   0.447262 0.417640 0.071479 0.263477
C23   C     C_R   0.498290 0.740047 0.500084 0.908756
C24   C     C_R   0.557732 0.573221 0.071784 -0.135378
C25   C     C_R   0.557721 0.573260 0.927758 -0.135483
C26   C     C_R   0.447294 0.417706 0.928798 0.227234
C27   C     C_3   0.348162 0.411191 0.923384 -0.530572
C28   C     C_3   0.348000 0.411090 0.076970 -0.508876
C29   C     C_R   0.673336 0.499987 0.499871 0.892154
C30   C     C_R   0.815060 0.535000 0.382155 -0.258750
C31   C     C_R   0.769144 0.499540 0.499636 -0.073107
C32   C     C_R   0.814601 0.463530 0.616926 -0.266017
C33   C     C_R   0.906863 0.462482 0.617584 0.119063
C34   C     C_R   0.953500 0.498819 0.499417 0.061205
H1    H     H_    0.779060 0.563557 0.291988 0.155839
H2    H     H_    0.422323 0.881213 0.304876 0.188422
H3    H     H_    0.570934 0.890922 0.809713 0.206579
H4    H     H_    0.644538 0.894456 0.655545 0.195811
H5    H     H_    0.565858 0.115372 0.810299 0.211168
H6    H     H_    0.639416 0.119692 0.656051 0.197684
H7    H     H_    0.603029 0.634298 0.126022 0.147027
H8    H     H_    0.602985 0.634396 0.873201 0.146495
H9    H     H_    0.318231 0.497577 0.879938 0.219335
H10   H     H_    0.324153 0.321520 0.878758 0.205580
H11   H     H_    0.317862 0.497146 0.120602 0.209259
H12   H     H_    0.778251 0.435234 0.707188 0.160484
H13   H     H_    0.323425 0.321526 0.121036 0.223731
H14   H     H_    0.917625 0.397666 0.825193 0.148060
H15   H     H_    0.080903 0.396221 0.824666 0.150647
H16   H     H_    0.220463 0.430168 0.705067 0.154071
H17   H     H_    0.221481 0.568457 0.294289 0.151667
H18   H     H_    0.082289 0.601246 0.174220 0.148422
H19   H     H_    0.919003 0.599920 0.173607 0.146294
N1    N     N_R   0.499390 0.499140 0.142800 -0.114475
N2    N     N_R   0.499390 0.499180 0.857150 -0.111434
O1    O     O_R   0.500010 0.316790 0.614690 -0.613639
O2    O     O_R   0.500000 0.316760 0.385350 -0.598777
O3    O     O_R   0.367850 0.499990 0.614680 -0.625158
O4    O     O_R   0.367840 0.499950 0.385340 -0.636205
O5    O     O_R   0.500000 0.683240 0.614650 -0.611900
O6    O     O_R   0.499990 0.683210 0.385310 -0.626393
O7    O     O_R   0.632160 0.500050 0.614660 -0.629175
O8    O     O_R   0.632150 0.500010 0.385320 -0.623264
Zn1   Zn    Zn3+2 0.500010 0.500020 0.653130 0.944921
Zn2   Zn    Zn3+2 0.499990 0.499980 0.346870 0.950194
O9    O     O_3   0.397949 0.120734 0.285706 -0.764681
H20   H     H_    0.370897 0.199626 0.318983 0.331719

loop_
_geom_bond_atom_site_label_1
_geom_bond_atom_site_label_2
_ccdc_geom_bond_type
C25   H8    S    
C2    C9    A    
C7    C13   A    
C11   C12   S    
O1    Zn1   S    
C28   H13   S    
C6    C7    A    
C1    C15   S    
C17   H2    S    
C1    O2    A    
C20   H4    S    
C8    H18   S    
C19   C20   S    
C21   H5    S    
O5    Zn1   S    
C4    H15   S    
C2    C30   A    
C12   O3    A    
N2    Zn1   S    
C2    C34   A    
O8    Zn2   S    
O9    H20   S    
C24   C25   A    
C5    C10   A    
C22   N1    A    
N1    Zn2   S    
C22   C28   S    
C4    C5    A    
O4    Zn2   S    
C29   C31   S    
C20   H3    S    
C11   C13   A    
C30   C31   A    
C26   C27   S    
C5    C6    A    
C21   H6    S    
C24   H7    S    
C30   H1    S    
C15   C16   A    
C14   C19   A    
C14   C21   S    
C29   O8    A    
C26   N2    A    
C33   C34   A    
O6    Zn2   S    
O3    Zn1   S    
C23   O5    A    
C28   H11   S    
C16   O9    S    
C10   C11   A    
C3    C33   A    
C24   N1    A    
C18   C23   S    
C10   H16   S    
C27   H9    S    
C3    H14   S    
C23   O6    A    
C9    H19   S    
C20   C21   S    
C6    C34   A    
C17   C18   A    
C18   C19   A    
C22   C26   A    
C27   C28   S    
C13   H17   S    
C7    C8    A    
C29   O7    A    
C16   C17   A    
O7    Zn1   S    
C14   C15   A    
C12   O4    A    
C32   H12   S    
C27   H10   S    
C1    O1    A    
C31   C32   A    
C3    C4    A    
C25   N2    A    
C32   C33   A    
O2    Zn2   S    
C8    C9    A    
