data_mof_unit_64026.cif
_audit_creation_date              2012-12-10T20:39:22-0500
_audit_creation_method            fapswitch 2.2
_symmetry_space_group_name_H-M    P1
_symmetry_Int_Tables_number       1
_space_group_crystal_system       triclinic
_cell_length_a                    21.640116
_cell_length_b                    21.617311
_cell_length_c                    24.701836
_cell_angle_alpha                 115.851595
_cell_angle_beta                  116.179675
_cell_angle_gamma                 90.153028
_cell_volume                      9056.08764009

loop_
_atom_site_label
_atom_site_type_symbol
_atom_type_description
_atom_site_fract_x
_atom_site_fract_y
_atom_site_fract_z
_atom_type_partial_charge
C1    C     C_R   0.065725 0.567207 0.634514 0.921589
C2    C     C_R   0.382885 0.227353 0.571202 -0.182032
C3    C     C_R   0.441029 0.692226 0.444068 -0.006635
C4    C     C_R   0.671118 0.893389 0.617026 -0.108934
C5    C     C_R   0.030835 0.317584 0.289687 -0.110590
C6    C     C_R   0.725674 0.951437 0.675207 -0.092187
C7    C     C_R   0.720680 0.987776 0.735249 -0.099158
C8    C     C_R   0.660991 0.966308 0.737106 -0.144913
C9    C     C_R   0.606003 0.908775 0.678804 -0.174015
C10   C     C_R   0.610858 0.871988 0.618491 0.091456
C11   C     C_R   0.567025 0.290423 0.339051 0.701172
C12   C     C_R   0.531535 0.272643 0.367666 -0.219802
C13   C     C_R   0.361979 0.220604 0.614826 -0.094445
C14   C     C_R   0.569359 0.281371 0.434575 -0.056188
C15   C     C_R   0.644074 0.306927 0.472520 0.403137
C16   C     C_R   0.679036 0.323440 0.442557 -0.314495
C17   C     C_R   0.411782 0.218588 0.673754 -0.215615
C18   C     C_R   0.258983 0.446514 0.453352 -0.173957
C19   C     C_R   0.482617 0.223517 0.689269 -0.210141
C20   C     C_R   0.503801 0.230005 0.645680 0.668713
C21   C     C_R   0.453811 0.231659 0.586092 -0.003407
C22   C     C_R   0.314326 0.506729 0.501047 -0.175301
C23   C     C_R   0.307820 0.567513 0.550667 -0.154027
C24   C     C_R   0.244946 0.565104 0.554075 0.400474
C25   C     C_R   0.029475 0.256644 0.296018 -0.175713
C26   C     C_R   0.188656 0.503284 0.504193 -0.210978
C27   C     C_R   0.196034 0.444028 0.454343 -0.011387
C28   C     C_R   0.424224 0.646786 0.655364 0.025311
C29   C     C_R   0.477774 0.708902 0.694093 -0.126780
C30   C     C_R   0.471139 0.759481 0.672284 -0.104308
C31   C     C_R   0.121162 0.501188 0.501978 0.980720
C32   C     C_R   0.410555 0.748452 0.612154 -0.121071
C33   C     C_R   0.356738 0.686523 0.573428 -0.138754
C34   C     C_R   0.363854 0.634563 0.593944 0.187264
C35   C     C_R   0.091869 0.670738 0.745592 -0.169302
C36   C     C_R   0.640650 0.315784 0.376468 -0.273425
C37   C     C_R   0.127319 0.706493 0.817451 -0.153926
C38   C     C_R   0.175315 0.677292 0.854120 0.063324
C39   C     C_R   0.186784 0.611571 0.817967 -0.043687
C40   C     C_R   0.150027 0.575084 0.746173 -0.094901
C41   C     C_R   0.102839 0.604755 0.709752 -0.048557
C42   C     C_R   0.283161 0.784431 0.069465 0.294995
C43   C     C_R   0.932702 0.432720 0.365362 0.896942
C44   C     C_R   0.213171 0.715007 0.929761 0.333572
C45   C     C_R   0.286414 0.857815 0.181527 -0.144393
C46   C     C_R   0.322574 0.893363 0.253389 -0.179522
C47   C     C_R   0.527675 0.199733 0.463768 0.642396
C48   C     C_R   0.394322 0.894593 0.289767 -0.031033
C49   C     C_R   0.429326 0.859367 0.253437 -0.175588
C50   C     C_R   0.392910 0.822980 0.181590 -0.151284
C51   C     C_R   0.321278 0.822191 0.145135 0.080354
C52   C     C_R   0.950212 0.436824 0.665426 -0.188260
C53   C     C_R   0.895101 0.437747 0.608349 -0.171052
C54   C     C_R   0.871025 0.499577 0.615562 -0.057689
C55   C     C_R   0.880505 0.500414 0.501011 0.853702
C56   C     C_R   0.903565 0.560913 0.680614 0.585504
C57   C     C_R   0.958805 0.559888 0.737690 -0.298264
C58   C     C_R   0.501050 0.187411 0.501607 -0.195513
C59   C     C_R   0.981943 0.497654 0.730439 0.403247
C60   C     C_R   0.745291 0.501053 0.554901 -0.137902
C61   C     C_R   0.687414 0.504585 0.501139 -0.110814
C62   C     C_R   0.694144 0.509703 0.448896 0.010342
C63   C     C_R   0.758303 0.506670 0.449391 -0.250544
C64   C     C_R   0.815092 0.500846 0.501904 -0.069831
C65   C     C_R   0.809761 0.499353 0.555970 0.076687
C66   C     C_R   0.608190 0.473357 0.325458 -0.114412
C67   C     C_R   0.082486 0.256239 0.354484 -0.212674
C68   C     C_R   0.553300 0.484732 0.275761 -0.101770
C69   C     C_R   0.475778 0.239373 0.540005 0.004005
C70   C     C_R   0.527194 0.545064 0.296067 -0.120051
C71   C     C_R   0.556138 0.594310 0.366097 -0.114315
C72   C     C_R   0.610816 0.583040 0.415958 -0.106947
C73   C     C_R   0.636916 0.522183 0.395960 0.122088
C74   C     C_R   0.901350 0.426824 0.253141 0.613645
C75   C     C_R   0.866069 0.389768 0.181354 -0.245911
C76   C     C_R   0.823348 0.321064 0.145420 -0.011017
C77   C     C_R   0.816717 0.289531 0.182218 -0.164696
C78   C     C_R   0.852687 0.326117 0.254041 -0.280048
C79   C     C_R   0.137504 0.316980 0.407432 0.509850
C80   C     C_R   0.474771 0.301963 0.537311 -0.164732
C81   C     C_R   0.894912 0.395025 0.289931 -0.169767
C82   C     C_R   0.715954 0.213003 0.930158 0.323124
C83   C     C_R   0.785879 0.282654 0.069816 0.321164
C84   C     C_R   0.710854 0.182045 0.818750 -0.253021
C85   C     C_R   0.675144 0.146821 0.746962 0.693402
C86   C     C_R   0.605551 0.105238 0.710049 -0.155243
C87   C     C_R   0.572369 0.099602 0.745843 -0.318180
C88   C     C_R   0.608509 0.134258 0.817646 -0.177950
C89   C     C_R   0.677968 0.175777 0.854556 -0.012824
C90   C     C_R   0.497939 0.620329 0.499882 0.856854
C91   C     C_R   0.501391 0.313944 0.499785 -0.137729
C92   C     C_R   0.138259 0.379031 0.401224 -0.005373
C93   C     C_R   0.379952 0.503298 0.500076 0.904483
C94   C     C_R   0.500658 0.379949 0.499964 0.916226
C95   C     C_R   0.620515 0.501537 0.500242 0.855609
C96   C     C_R   0.500302 0.120381 0.500549 0.969568
C97   C     C_R   0.432499 0.932457 0.365316 0.855647
C98   C     C_R   0.500460 0.880461 0.501000 0.862709
C99   C     C_R   0.567482 0.067385 0.634613 0.947462
C100  C     C_R   0.308112 0.555486 0.259968 -0.122235
C101  C     C_R   0.365607 0.611760 0.316504 -0.161713
C102  C     C_R   0.530176 0.264148 0.464533 -0.045151
C103  C     C_R   0.379802 0.632459 0.384076 0.139464
C104  C     C_R   0.084591 0.378714 0.342220 -0.232370
C105  C     C_R   0.334848 0.596547 0.393877 -0.091409
C106  C     C_R   0.277458 0.540295 0.337282 -0.111612
C107  C     C_R   0.264111 0.519744 0.270347 -0.105894
C108  C     C_R   0.444570 0.757166 0.445920 -0.255446
C109  C     C_R   0.500344 0.814979 0.501548 -0.057342
C110  C     C_R   0.553384 0.810229 0.557477 -0.012410
C111  C     C_R   0.550159 0.745814 0.556307 -0.236175
C112  C     C_R   0.495311 0.686797 0.499827 -0.094282
F1    F     F_    0.881393 0.621463 0.688848 -0.651627
F2    F     F_    0.943133 0.492816 0.286372 -0.652785
F3    F     F_    0.708357 0.154368 0.713906 -0.604808
F4    F     F_    0.529942 0.283082 0.274904 -0.664667
F5    F     F_    0.552077 0.149571 0.426857 -0.634340
F6    F     F_    0.572958 0.235549 0.661905 -0.634988
H1    H     H_    0.987493 0.209452 0.255318 0.161061
H2    H     H_    0.294590 0.920413 0.280436 0.163521
H3    H     H_    0.484641 0.859408 0.280514 0.161455
H4    H     H_    0.080733 0.208152 0.357996 0.183697
H5    H     H_    0.421036 0.796138 0.154639 0.155380
H6    H     H_    0.967220 0.388270 0.659115 0.171959
H7    H     H_    0.870205 0.389776 0.558782 0.192746
H8    H     H_    0.982816 0.607381 0.787573 0.212474
H9    H     H_    0.740002 0.498420 0.595559 0.173679
H10   H     H_    0.764578 0.510154 0.409496 0.152761
H11   H     H_    0.627668 0.426202 0.309133 0.145783
H12   H     H_    0.512760 0.807383 0.702265 0.125831
H13   H     H_    0.530915 0.446702 0.221493 0.150628
H14   H     H_    0.484649 0.553730 0.257545 0.131414
H15   H     H_    0.536197 0.641192 0.381775 0.134752
H16   H     H_    0.632658 0.621523 0.470090 0.115679
H17   H     H_    0.871866 0.415133 0.153947 0.187969
H18   H     H_    0.784374 0.236384 0.155572 0.171091
H19   H     H_    0.847129 0.300725 0.281527 0.188062
H20   H     H_    0.764499 0.213759 0.846249 0.189665
H21   H     H_    0.518825 0.067624 0.718299 0.189708
H22   H     H_    0.084899 0.425703 0.336636 0.172300
H23   H     H_    0.405329 0.787866 0.595537 0.144260
H24   H     H_    0.581901 0.128989 0.844195 0.173518
H25   H     H_    0.219703 0.476128 0.226536 0.143250
H26   H     H_    0.297730 0.539526 0.208095 0.146571
H27   H     H_    0.399437 0.638737 0.307673 0.121977
H28   H     H_    0.344919 0.611393 0.445291 0.093383
H29   H     H_    0.243497 0.512540 0.345382 0.138536
H30   H     H_    0.403585 0.762987 0.404002 0.150720
H31   H     H_    0.591487 0.741526 0.599084 0.175356
H32   H     H_    0.675704 0.865201 0.570918 0.136849
H33   H     H_    0.771926 0.968091 0.673835 0.148739
H34   H     H_    0.309700 0.678841 0.527312 0.136658
H35   H     H_    0.990224 0.317376 0.243889 0.157903
H36   H     H_    0.762959 0.032645 0.780277 0.143595
H37   H     H_    0.657174 0.994508 0.783607 0.153886
H38   H     H_    0.559693 0.892984 0.680539 0.128392
H39   H     H_    0.668154 0.329531 0.354282 0.175548
H40   H     H_    0.474387 0.252869 0.338092 0.178948
H41   H     H_    0.736095 0.342767 0.470402 0.199258
H42   H     H_    0.454690 0.342218 0.565772 0.175314
H43   H     H_    0.265153 0.400608 0.415500 0.185999
H44   H     H_    0.343825 0.228622 0.525581 0.221305
H45   H     H_    0.055210 0.694092 0.718012 0.174172
H46   H     H_    0.307173 0.216998 0.602967 0.190169
H47   H     H_    0.395547 0.213485 0.707549 0.171475
H48   H     H_    0.521160 0.222626 0.735287 0.174732
H49   H     H_    0.429833 0.607964 0.672773 0.132950
H50   H     H_    0.524466 0.717779 0.740962 0.129034
H51   H     H_    0.089171 0.407556 0.755417 0.360968
H52   H     H_    0.265232 0.414551 0.573172 0.372082
H53   H     H_    0.668135 0.415601 0.608368 0.343226
H54   H     H_    0.303586 0.729026 0.721327 0.388911
H55   H     H_    0.117796 0.757253 0.844234 0.164354
H56   H     H_    0.223238 0.587784 0.845121 0.178024
H57   H     H_    0.159253 0.524223 0.719109 0.181652
H58   H     H_    0.231060 0.857665 0.154519 0.158028
N1    N     N_R   0.273428 0.699357 0.965407 -0.160450
N2    N     N_R   0.307929 0.733608 0.034030 -0.164032
N3    N     N_R   0.222736 0.799900 0.033822 -0.162855
N4    N     N_R   0.188450 0.765923 0.965178 -0.156509
N5    N     N_R   0.729304 0.226939 0.034064 -0.171337
N6    N     N_R   0.694816 0.192820 0.965414 -0.177463
N7    N     N_R   0.772724 0.268476 0.965940 -0.156005
N8    N     N_R   0.806947 0.302806 0.034529 -0.164584
O1    O     O_R   0.050920 0.499230 0.601880 -0.626963
O2    O     O_R   0.448240 0.091390 0.499970 -0.649887
O3    O     O_R   0.500800 0.948920 0.398140 -0.613288
O4    O     O_R   0.050930 0.602630 0.601850 -0.581371
O5    O     O_R   0.397350 0.948880 0.398140 -0.628408
O6    O     O_R   0.551760 0.908280 0.500030 -0.636504
O7    O     O_R   0.448310 0.908240 0.500020 -0.623195
O8    O     O_R   0.602650 0.050790 0.601860 -0.551754
O9    O     O_R   0.499200 0.050750 0.601860 -0.644612
O10   O     O_R   0.091620 0.448300 0.500020 -0.588594
O11   O     O_R   0.091620 0.551700 0.499990 -0.566003
O12   O     O_R   0.528760 0.620350 0.557510 -0.623974
O13   O     O_R   0.949070 0.397370 0.398150 -0.632483
O14   O     O_R   0.949080 0.500770 0.398120 -0.564691
O15   O     O_R   0.908380 0.448300 0.500010 -0.644969
O16   O     O_R   0.908380 0.551700 0.499980 -0.617819
O17   O     O_R   0.471270 0.562870 0.442500 -0.610170
O18   O     O_2   0.081894 0.567042 0.864534 -0.269170
O19   O     O_2   0.014722 0.448340 0.818967 -0.241915
O20   O     O_3   0.110522 0.459160 0.785209 -0.556260
O21   O     O_2   0.184374 0.247462 0.480253 -0.295956
O22   O     O_2   0.272334 0.313899 0.476202 -0.373666
O23   O     O_R   0.379630 0.471280 0.442490 -0.625508
O24   O     O_3   0.218076 0.384504 0.553359 -0.521861
O25   O     O_2   0.689265 0.247586 0.553819 -0.167955
O26   O     O_2   0.771122 0.352395 0.588480 -0.315757
O27   O     O_3   0.662481 0.369703 0.607603 -0.499421
O28   O     O_2   0.191217 0.678428 0.593215 -0.281484
O29   O     O_2   0.203747 0.606318 0.649581 -0.340154
O30   O     O_3   0.315653 0.692146 0.688655 -0.560169
O31   O     O_R   0.437130 0.528760 0.557500 -0.633438
O32   O     O_R   0.471240 0.379700 0.442490 -0.625469
O33   O     O_R   0.528730 0.437170 0.557500 -0.608257
O34   O     O_R   0.562870 0.471280 0.442500 -0.603614
O35   O     O_R   0.620370 0.528760 0.557510 -0.623805
O36   O     O_R   0.551690 0.091430 0.499980 -0.518033
S1    S     S_3+6 0.047973 0.494188 0.802718 0.045973
S2    S     S_3+6 0.204796 0.313714 0.479864 0.002825
S3    S     S_3+6 0.694447 0.318537 0.557027 0.065117
S4    S     S_3+6 0.237410 0.636633 0.621996 0.019764
Zn1   Zn    Zn3+2 0.000000 0.430960 0.500020 1.014082
Zn2   Zn    Zn3+2 0.000000 0.569040 0.499980 1.092419
Zn3   Zn    Zn3+2 0.461610 0.461640 0.423210 1.006145
Zn4   Zn    Zn3+2 0.538390 0.538400 0.576790 0.979180
Zn5   Zn    Zn3+2 0.569070 0.999860 0.500000 1.086507
Zn6   Zn    Zn3+2 0.430930 0.999810 0.500000 0.976471

loop_
_geom_bond_atom_site_label_1
_geom_bond_atom_site_label_2
_ccdc_geom_bond_type
C66   C68   A    
C87   C88   A    
C67   H4    S    
C75   C76   A    
C96   O36   A    
O20   S1    S    
C93   O31   A    
C19   C20   A    
C25   C67   A    
C90   C112  S    
C98   O6    A    
C44   N4    A    
C20   F6    S    
C7    C8    A    
C54   C65   S    
C77   C78   A    
C56   C57   A    
C38   C44   S    
C48   C97   S    
C101  H27   S    
C26   C27   A    
C29   C30   A    
C82   C89   S    
O36   Zn5   S    
C13   H46   S    
O10   Zn1   S    
C28   C29   A    
C35   C37   A    
C37   C38   A    
C24   C26   A    
O4    Zn2   S    
C85   C86   A    
C99   O8    A    
O29   S4    D    
C75   H17   S    
C14   C102  S    
C106  C107  A    
C45   C51   A    
O24   S2    S    
C15   C16   A    
C74   F2    S    
C25   H1    S    
O21   S2    D    
O22   S2    D    
C95   O34   A    
C108  C109  A    
O19   S1    D    
O17   Zn3   S    
O31   Zn4   S    
C2    C13   A    
C8    H37   S    
C58   C96   S    
C110  C111  A    
C59   S1    S    
C28   H49   S    
C17   C19   A    
C55   O15   A    
C111  C112  A    
C9    H38   S    
C8    C9    A    
C83   N5    A    
C48   C49   A    
C95   O35   A    
C23   C24   A    
C62   C73   S    
C70   C71   A    
C77   H18   S    
O35   Zn4   S    
C30   C32   A    
H51   O20   S    
C9    C10   A    
C42   N3    A    
C63   H10   S    
C42   C51   S    
C66   H11   S    
C88   C89   A    
C97   O5    A    
C5    C104  A    
C49   H3    S    
C26   C31   S    
C101  C103  A    
C98   C109  S    
C16   H41   S    
O18   S1    D    
C2    H44   S    
O9    Zn6   S    
C39   H56   S    
H54   O30   S    
C111  H31   S    
C76   C83   S    
C88   H24   S    
C50   C51   A    
C54   C56   A    
C24   S4    S    
O8    Zn5   S    
C46   C48   A    
O32   Zn3   S    
C74   C75   A    
C18   C27   A    
O12   Zn4   S    
C96   O2    A    
C85   F3    S    
C67   C79   A    
C76   C77   A    
C4    C6    A    
C100  H26   S    
C45   H58   S    
C39   C40   A    
C86   C87   A    
C98   O7    A    
N5    N6    A    
C66   C73   A    
C37   H55   S    
C82   N7    A    
C94   O33   A    
C35   H45   S    
C106  H29   S    
C104  H22   S    
C21   C69   S    
C60   C61   A    
C68   H13   S    
N7    N8    A    
H52   O24   S    
C62   C63   A    
C86   C99   S    
C52   C59   A    
C40   H57   S    
H53   O27   S    
C72   H16   S    
C55   O16   A    
C3    C112  A    
C56   F1    S    
C23   C34   S    
O1    Zn1   S    
C55   C64   S    
C2    C21   A    
C70   H14   S    
C33   C34   A    
C32   H23   S    
C46   H2    S    
C27   C92   S    
C103  C105  A    
C108  H30   S    
O16   Zn2   S    
C84   C85   A    
C11   F4    S    
O15   Zn1   S    
C80   H42   S    
C79   C92   A    
N3    N4    A    
C53   H7    S    
C36   H39   S    
C5    C25   A    
C6    H33   S    
O23   Zn3   S    
C40   C41   A    
C19   H48   S    
O25   S3    D    
C12   C14   A    
C60   C65   A    
C49   C50   A    
C43   C81   S    
C22   C93   S    
C84   C89   A    
C43   O13   A    
C4    C10   A    
C93   O23   A    
C78   H19   S    
O34   Zn3   S    
C57   H8    S    
C52   C53   A    
C29   H50   S    
C79   S2    S    
O28   S4    D    
C1    O4    A    
C3    C103  S    
C97   O3    A    
C82   N6    A    
C11   C36   A    
C100  C107  A    
O26   S3    D    
O11   Zn2   S    
C18   C22   A    
C60   H9    S    
C50   H5    S    
C1    C41   S    
C87   H21   S    
C72   C73   A    
C33   H34   S    
C44   N1    A    
C71   H15   S    
C31   O10   A    
O14   Zn2   S    
C11   C12   A    
C61   C95   S    
C58   C69   A    
C53   C54   A    
C6    C7    A    
O2    Zn6   S    
C1    O1    A    
C3    C108  A    
C4    H32   S    
C105  C106  A    
C99   O9    A    
C94   O32   A    
C13   C17   A    
O6    Zn5   S    
C32   C33   A    
C90   O17   A    
C80   C91   A    
O5    Zn6   S    
C71   C72   A    
C30   H12   S    
C109  C110  A    
C64   C65   A    
C47   C58   A    
C31   O11   A    
C52   H6    S    
C78   C81   A    
C38   C39   A    
C7    H36   S    
C42   N2    A    
O7    Zn6   S    
C5    H35   S    
C105  H28   S    
C100  C101  A    
C18   H43   S    
C83   N8    A    
C10   C110  S    
C43   O14   A    
C22   C23   A    
C28   C34   A    
C15   S3    S    
C61   C62   A    
C35   C41   A    
C57   C59   A    
C92   C104  A    
O33   Zn4   S    
C84   H20   S    
C63   C64   A    
O3    Zn5   S    
C45   C46   A    
C47   F5    S    
C90   O12   A    
C20   C21   A    
C68   C70   A    
N1    N2    A    
C47   C102  A    
C14   C15   A    
C69   C80   A    
C17   H47   S    
C74   C81   A    
C91   C102  A    
C12   H40   S    
C107  H25   S    
C16   C36   A    
O27   S3    S    
O30   S4    S    
C91   C94   S    
O13   Zn1   S    
