data_mof_unit_60711.cif
_audit_creation_date              2012-12-10T19:00:43-0500
_audit_creation_method            fapswitch 2.2
_symmetry_space_group_name_H-M    P1
_symmetry_Int_Tables_number       1
_space_group_crystal_system       triclinic
_cell_length_a                    37.20501
_cell_length_b                    30.26264
_cell_length_c                    21.287736
_cell_angle_alpha                 90.001072
_cell_angle_beta                  54.474974
_cell_angle_gamma                 89.999658
_cell_volume                      19506.9053206

loop_
_atom_site_label
_atom_site_type_symbol
_atom_type_description
_atom_site_fract_x
_atom_site_fract_y
_atom_site_fract_z
_atom_type_partial_charge
C1    C     C_R   0.913719 0.500023 0.085719 0.882138
C2    C     C_3   0.971856 0.467709 0.758038 -0.436250
C3    C     C_R   0.489025 0.657401 0.456214 -0.201436
C4    C     C_R   0.010967 0.157402 0.543801 -0.201440
C5    C     C_R   0.989037 0.157400 0.456194 -0.201437
C6    C     C_R   0.500000 0.413676 0.499999 0.858437
C7    C     C_R   1.000000 0.913676 0.499999 0.858434
C8    C     C_R   0.962516 0.702998 0.558466 -0.181555
C9    C     C_R   0.037478 0.702996 0.441528 -0.181559
C10   C     C_R   0.462516 0.202998 0.558467 -0.181557
C11   C     C_R   0.537478 0.202996 0.441530 -0.181556
C12   C     C_R   0.962405 0.657191 0.558225 -0.172222
C13   C     C_3   0.528129 0.967698 0.241973 -0.436222
C14   C     C_R   0.037591 0.657189 0.441771 -0.172215
C15   C     C_R   0.462404 0.157191 0.558226 -0.172229
C16   C     C_R   0.537591 0.157190 0.441772 -0.172222
C17   C     C_R   0.999998 0.634160 0.499999 -0.021191
C18   C     C_R   0.499998 0.134160 0.500000 -0.021215
C19   C     C_R   0.511229 0.703213 0.543401 -0.184047
C20   C     C_R   0.488776 0.703214 0.456602 -0.184050
C21   C     C_R   0.011218 0.203215 0.543411 -0.184049
C22   C     C_R   0.988789 0.203213 0.456578 -0.184049
C23   C     C_R   0.999997 0.725917 0.499997 0.109215
C24   C     C_3   0.471846 0.967718 0.758049 -0.436242
C25   C     C_R   0.499997 0.225917 0.499998 0.109218
C26   C     C_R   0.511530 0.296793 0.433622 -0.178747
C27   C     C_R   0.488463 0.296794 0.566376 -0.178745
C28   C     C_R   0.011530 0.796793 0.433621 -0.178747
C29   C     C_R   0.988464 0.796794 0.566375 -0.178745
C30   C     C_R   0.511296 0.342602 0.433731 -0.191792
C31   C     C_R   0.488700 0.342603 0.566268 -0.191789
C32   C     C_R   0.011296 0.842602 0.433730 -0.191791
C33   C     C_R   0.988701 0.842603 0.566267 -0.191792
C34   C     C_R   0.499999 0.365680 0.499999 -0.027746
C35   C     C_3   0.040352 0.507734 0.187979 0.389164
C36   C     C_R   0.999999 0.865680 0.499999 -0.027745
C37   C     C_R   0.500003 0.726098 0.500002 0.112096
C38   C     C_R   0.000004 0.226098 0.499993 0.112101
C39   C     C_R   0.962187 0.296890 0.519303 -0.177319
C40   C     C_R   0.037821 0.296890 0.480680 -0.177310
C41   C     C_R   0.462180 0.796890 0.519340 -0.177307
C42   C     C_R   0.537823 0.796890 0.480669 -0.177317
C43   C     C_3   0.971456 0.531834 0.258624 -0.367085
C44   C     C_3   0.028496 0.531877 0.741427 -0.367102
C45   C     C_3   0.471517 0.031892 0.258562 -0.367104
C46   C     C_3   0.959639 0.507669 0.812033 0.389192
C47   C     C_3   0.528505 0.031868 0.741417 -0.367096
C48   C     C_3   0.013305 0.539404 0.256012 0.541276
C49   C     C_3   0.986634 0.539382 0.744055 0.541223
C50   C     C_3   0.513382 0.039378 0.255931 0.541204
C51   C     C_3   0.486646 0.039386 0.744043 0.541223
C52   C     C_3   0.000544 0.500021 0.310426 -0.176849
C53   C     C_3   0.999457 0.500019 0.689574 -0.176857
C54   C     C_3   0.500543 0.000021 0.310426 -0.176856
C55   C     C_3   0.499456 0.000020 0.689574 -0.176858
C56   C     C_3   0.958451 0.492001 0.313886 -0.290810
C57   C     C_3   0.540364 0.007653 0.187963 0.389195
C58   C     C_3   0.041564 0.492065 0.686098 -0.290772
C59   C     C_3   0.458432 0.992086 0.313905 -0.290773
C60   C     C_3   0.541561 0.992052 0.686101 -0.290783
C61   C     C_3   0.032426 0.611395 0.215596 -0.315969
C62   C     C_3   0.967407 0.611345 0.784587 -0.316106
C63   C     C_3   0.532636 0.111334 0.215377 -0.316152
C64   C     C_3   0.467441 0.111355 0.784552 -0.316089
C65   C     C_3   0.629324 0.587235 0.284770 -0.301130
C66   C     C_3   0.370645 0.587206 0.715349 -0.301180
C67   C     C_3   0.129324 0.087233 0.284764 -0.301133
C68   C     C_3   0.459641 0.007682 0.812031 0.389185
C69   C     C_3   0.870655 0.087228 0.715284 -0.301167
C70   C     C_3   0.964082 0.389390 0.292079 0.085480
C71   C     C_3   0.999055 0.352933 0.253889 -0.333400
C72   C     C_3   0.994103 0.320677 0.313614 -0.972345
C73   C     C_3   0.036076 0.389436 0.707767 0.085479
C74   C     C_3   0.001150 0.352937 0.745944 -0.333358
C75   C     C_3   0.006119 0.320682 0.686202 -0.972442
C76   C     C_3   0.463879 0.889455 0.292270 0.085479
C77   C     C_3   0.498790 0.852941 0.254102 -0.333350
C78   C     C_3   0.493810 0.820686 0.313852 -0.972460
C79   C     C_3   0.998991 0.499830 0.190040 -0.159705
C80   C     C_3   0.536046 0.889427 0.707793 0.085481
C81   C     C_3   0.501111 0.852936 0.745969 -0.333374
C82   C     C_3   0.506078 0.820681 0.686229 -0.972412
C83   C     C_3   0.115280 0.516317 0.126948 0.094317
C84   C     C_3   0.158266 0.529447 0.050616 -0.328131
C85   C     C_3   0.197150 0.529151 0.056691 -0.967977
C86   C     C_3   0.884700 0.516171 0.873081 0.094269
C87   C     C_3   0.841683 0.529148 0.949486 -0.328051
C88   C     C_3   0.802803 0.528852 0.943402 -0.967983
C89   C     C_3   0.615305 0.016134 0.126911 0.094254
C90   C     C_3   0.001013 0.499830 0.809956 -0.159675
C91   C     C_3   0.658331 0.029062 0.050483 -0.328039
C92   C     C_3   0.697209 0.028775 0.056573 -0.967992
C93   C     C_3   0.384705 0.016206 0.873075 0.094274
C94   C     C_3   0.341692 0.029203 0.949472 -0.328060
C95   C     C_3   0.302813 0.028921 0.943386 -0.967985
C96   C     C_3   0.498986 0.999833 0.190045 -0.159665
C97   C     C_R   0.086281 0.500022 0.914280 0.882129
C98   C     C_3   0.501013 0.999829 0.809957 -0.159680
C99   C     C_R   0.797389 0.539587 0.186085 -0.191671
C100  C     C_R   0.202608 0.539581 0.813934 -0.191712
C101  C     C_R   0.297390 0.039587 0.186084 -0.191673
C102  C     C_R   0.702609 0.039582 0.813925 -0.191663
C103  C     C_R   0.843134 0.539378 0.141401 -0.195423
C104  C     C_R   0.156864 0.539372 0.858622 -0.195430
C105  C     C_R   0.343134 0.039378 0.141399 -0.195423
C106  C     C_R   0.656865 0.039374 0.858609 -0.195418
C107  C     C_R   0.865775 0.500106 0.131948 -0.019721
C108  C     C_R   0.413719 0.000023 0.085719 0.882159
C109  C     C_R   0.134225 0.500104 0.868046 -0.019721
C110  C     C_R   0.365775 0.000106 0.131949 -0.019721
C111  C     C_R   0.634225 0.000103 0.868052 -0.019715
C112  C     C_R   0.842307 0.460946 0.166800 -0.196665
C113  C     C_R   0.157694 0.460948 0.833160 -0.196623
C114  C     C_R   0.342306 0.960947 0.166806 -0.196637
C115  C     C_R   0.657694 0.960944 0.833191 -0.196660
C116  C     C_R   0.796546 0.461241 0.211816 -0.179274
C117  C     C_R   0.203454 0.461243 0.788139 -0.179234
C118  C     C_R   0.296546 0.961242 0.211822 -0.179270
C119  C     C_R   0.586281 0.000022 0.914281 0.882163
C120  C     C_R   0.703454 0.961237 0.788174 -0.179282
C121  C     C_R   0.774006 0.500602 0.221866 0.148365
C122  C     C_R   0.225993 0.500599 0.778121 0.148376
C123  C     C_R   0.274006 0.000603 0.221869 0.148365
C124  C     C_R   0.725993 0.000597 0.778134 0.148363
C125  C     C_R   0.999242 0.499954 0.122358 0.967693
C126  C     C_R   0.000762 0.499954 0.877638 0.967761
C127  C     C_R   0.499237 0.999955 0.122363 0.967783
C128  C     C_R   0.500761 0.999954 0.877638 0.967750
C129  C     C_R   0.702952 0.482053 0.344245 -0.176748
C130  C     C_3   0.986317 0.460752 0.244634 0.544752
C131  C     C_R   0.297050 0.482067 0.655731 -0.176759
C132  C     C_R   0.202952 0.982055 0.344249 -0.176749
C133  C     C_R   0.797049 0.982052 0.655750 -0.176747
C134  C     C_R   0.657214 0.482451 0.390933 -0.269149
C135  C     C_R   0.342788 0.482465 0.609049 -0.269144
C136  C     C_R   0.157214 0.982452 0.390935 -0.269148
C137  C     C_R   0.842787 0.982451 0.609063 -0.269152
C138  C     C_R   0.634170 0.501876 0.364451 -0.151477
C139  C     C_R   0.365829 0.501874 0.635549 -0.151487
C140  C     C_R   0.134170 0.001876 0.364452 -0.151477
C141  C     C_3   0.013750 0.460773 0.755297 0.544713
C142  C     C_R   0.865830 0.001874 0.635550 -0.151477
C143  C     C_R   0.657271 0.522363 0.291362 0.537182
C144  C     C_R   0.342725 0.522342 0.708656 0.537186
C145  C     C_R   0.157271 0.022362 0.291361 0.537180
C146  C     C_R   0.842727 0.022355 0.708646 0.537186
C147  C     C_R   0.703194 0.521199 0.244399 -0.270462
C148  C     C_R   0.296802 0.521178 0.755613 -0.270464
C149  C     C_R   0.203194 0.021198 0.244399 -0.270460
C150  C     C_R   0.796804 0.021190 0.755608 -0.270479
C151  C     C_R   0.725999 0.501172 0.270781 0.035901
C152  C     C_3   0.486233 0.960781 0.244717 0.544701
C153  C     C_R   0.274000 0.501169 0.729210 0.035906
C154  C     C_R   0.225999 0.001173 0.270784 0.035901
C155  C     C_R   0.774000 0.001166 0.729220 0.035909
C156  C     C_R   0.000002 0.365739 0.499995 -0.030590
C157  C     C_R   0.500001 0.865739 0.500002 -0.030573
C158  C     C_R   0.000004 0.274006 0.499991 0.118797
C159  C     C_R   0.500002 0.774006 0.500005 0.118790
C160  C     C_R   0.499996 0.273875 0.499999 0.113526
C161  C     C_R   0.999997 0.773875 0.499998 0.113528
C162  C     C_R   0.999999 0.586233 0.500000 0.907111
C163  C     C_3   0.513737 0.960768 0.755310 0.544720
C164  C     C_R   0.500000 0.086233 0.500000 0.907087
C165  C     C_R   0.962049 0.342689 0.519905 -0.209658
C166  C     C_R   0.037957 0.342690 0.480081 -0.209699
C167  C     C_R   0.462042 0.842689 0.519939 -0.209698
C168  C     C_R   0.537960 0.842689 0.480068 -0.209673
C169  C     C_R   0.000216 0.500228 0.378174 0.966217
C170  C     C_R   0.999784 0.500227 0.621826 0.966198
C171  C     C_R   0.500216 0.000227 0.378174 0.966192
C172  C     C_R   0.499784 0.000227 0.621826 0.966201
C173  C     C_R   0.000000 0.413689 0.499999 0.848739
C174  C     C_3   0.028198 0.467755 0.241907 -0.436294
C175  C     C_R   0.500000 0.913689 0.500000 0.848739
C176  C     C_R   0.500001 0.634318 0.500001 -0.035919
C177  C     C_R   0.000001 0.134319 0.499999 -0.035930
C178  C     C_R   0.500000 0.586319 0.500000 0.844327
C179  C     C_R   1.000000 0.086319 0.500000 0.844328
C180  C     C_R   0.586253 0.500583 0.413359 0.895141
C181  C     C_R   0.413746 0.500583 0.586641 0.895149
C182  C     C_R   0.086253 0.000583 0.413359 0.895142
C183  C     C_R   0.913746 0.000583 0.586641 0.895152
C184  C     C_R   0.510979 0.657400 0.543788 -0.201439
H1    H     H_    0.778719 0.430810 0.238617 0.134742
H2    H     H_    0.360165 0.466993 0.552725 0.175262
H3    H     H_    0.032551 0.367824 0.221636 0.221868
H4    H     H_    0.999353 0.338097 0.353584 0.276773
H5    H     H_    0.019125 0.294021 0.284002 0.267250
H6    H     H_    0.960701 0.305499 0.347272 0.260387
H7    H     H_    0.069098 0.374277 0.681490 0.153731
H8    H     H_    0.036653 0.404392 0.659205 0.123814
H9    H     H_    0.004417 0.334614 0.787640 0.227692
H10   H     H_    0.967635 0.367787 0.778244 0.221886
H11   H     H_    0.000825 0.338091 0.646280 0.276769
H12   H     H_    0.981134 0.293994 0.715803 0.267249
H13   H     H_    0.139839 0.966968 0.447246 0.175250
H14   H     H_    0.039541 0.305547 0.652495 0.260398
H15   H     H_    0.430851 0.874309 0.318552 0.153734
H16   H     H_    0.463308 0.904410 0.340827 0.123821
H17   H     H_    0.495516 0.834620 0.212412 0.227692
H18   H     H_    0.532312 0.867776 0.221796 0.221888
H19   H     H_    0.499110 0.838093 0.353770 0.276764
H20   H     H_    0.518786 0.793989 0.284258 0.267252
H21   H     H_    0.460382 0.805565 0.347563 0.260402
H22   H     H_    0.569063 0.874259 0.681524 0.153734
H23   H     H_    0.536630 0.904385 0.659224 0.123808
H24   H     H_    0.860163 0.966969 0.552748 0.175252
H25   H     H_    0.504368 0.834611 0.787674 0.227695
H26   H     H_    0.467599 0.867794 0.778259 0.221882
H27   H     H_    0.500794 0.838093 0.646296 0.276772
H28   H     H_    0.481085 0.794000 0.715830 0.267249
H29   H     H_    0.539496 0.805537 0.652533 0.260395
H30   H     H_    0.119285 0.482566 0.142890 0.144479
H31   H     H_    0.108538 0.540290 0.172344 0.175067
H32   H     H_    0.165133 0.505992 0.004626 0.239655
H33   H     H_    0.154687 0.563114 0.033971 0.222002
H34   H     H_    0.191378 0.553028 0.101328 0.265341
H35   H     H_    0.720966 0.535819 0.187344 0.151829
H36   H     H_    0.227738 0.538804 0.000325 0.270487
H37   H     H_    0.201837 0.495564 0.071899 0.266601
H38   H     H_    0.880773 0.482443 0.856944 0.144455
H39   H     H_    0.891389 0.540220 0.827820 0.175136
H40   H     H_    0.834866 0.505605 0.995337 0.239637
H41   H     H_    0.845186 0.562784 0.966339 0.222058
H42   H     H_    0.808519 0.552824 0.898924 0.265342
H43   H     H_    0.772189 0.538378 0.999830 0.270528
H44   H     H_    0.798200 0.495296 0.927963 0.266580
H45   H     H_    0.619211 0.982416 0.143108 0.144446
H46   H     H_    0.279027 0.535783 0.812681 0.151840
H47   H     H_    0.608631 0.040211 0.172129 0.175161
H48   H     H_    0.665136 0.005488 0.004677 0.239629
H49   H     H_    0.654848 0.062687 0.033563 0.222076
H50   H     H_    0.691508 0.052782 0.100998 0.265341
H51   H     H_    0.727830 0.038259 0.000125 0.270536
H52   H     H_    0.701789 0.995232 0.072087 0.266577
H53   H     H_    0.380764 0.982478 0.856958 0.144456
H54   H     H_    0.391403 0.040250 0.827800 0.175133
H55   H     H_    0.334864 0.005666 0.995337 0.239634
H56   H     H_    0.345208 0.062840 0.966307 0.222054
H57   H     H_    0.220967 0.035817 0.187343 0.151831
H58   H     H_    0.308540 0.052886 0.898891 0.265340
H59   H     H_    0.272203 0.038463 0.999806 0.270521
H60   H     H_    0.298195 0.995365 0.927969 0.266583
H61   H     H_    0.779031 0.035805 0.812668 0.151820
H62   H     H_    0.932548 0.360009 0.534965 0.154677
H63   H     H_    0.067457 0.360010 0.465021 0.154691
H64   H     H_    0.432538 0.860008 0.535017 0.154697
H65   H     H_    0.221282 0.430815 0.761313 0.134733
H66   H     H_    0.567464 0.860009 0.464988 0.154687
H67   H     H_    0.519710 0.720842 0.577428 0.136596
H68   H     H_    0.480295 0.720844 0.422576 0.136602
H69   H     H_    0.019690 0.220845 0.577450 0.136599
H70   H     H_    0.980318 0.220841 0.422536 0.136591
H71   H     H_    0.519676 0.640104 0.577748 0.156629
H72   H     H_    0.480327 0.640106 0.422253 0.156632
H73   H     H_    0.019655 0.140107 0.577777 0.156635
H74   H     H_    0.980348 0.140104 0.422221 0.156638
H75   H     H_    0.933320 0.720581 0.603644 0.133723
H76   H     H_    0.278719 0.930811 0.238627 0.134741
H77   H     H_    0.066674 0.720578 0.396350 0.133722
H78   H     H_    0.433319 0.220580 0.603645 0.133723
H79   H     H_    0.566674 0.220578 0.396352 0.133722
H80   H     H_    0.933185 0.639833 0.603812 0.158847
H81   H     H_    0.066812 0.639831 0.396184 0.158830
H82   H     H_    0.433184 0.139833 0.603813 0.158845
H83   H     H_    0.566812 0.139831 0.396186 0.158855
H84   H     H_    0.948654 0.557391 0.263154 0.172615
H85   H     H_    0.051256 0.557470 0.736942 0.172645
H86   H     H_    0.448767 0.057496 0.263039 0.172651
H87   H     H_    0.721282 0.930806 0.761365 0.134744
H88   H     H_    0.551274 0.057453 0.736924 0.172639
H89   H     H_    0.932778 0.279279 0.534545 0.132400
H90   H     H_    0.067230 0.279279 0.465437 0.132413
H91   H     H_    0.432768 0.779278 0.534601 0.132417
H92   H     H_    0.567235 0.779279 0.465409 0.132408
H93   H     H_    0.520240 0.279206 0.382208 0.133311
H94   H     H_    0.479753 0.279208 0.617790 0.133312
H95   H     H_    0.020240 0.779207 0.382207 0.133307
H96   H     H_    0.979754 0.779208 0.617789 0.133312
H97   H     H_    0.520255 0.359901 0.381949 0.156435
H98   H     H_    0.720383 0.466987 0.365489 0.145131
H99   H     H_    0.479742 0.359903 0.618049 0.156438
H100  H     H_    0.020255 0.859901 0.381949 0.156434
H101  H     H_    0.979743 0.859902 0.618048 0.156436
H102  H     H_    0.925123 0.484687 0.366834 0.172092
H103  H     H_    0.074903 0.484802 0.633139 0.172119
H104  H     H_    0.425090 0.984839 0.366867 0.172127
H105  H     H_    0.574898 0.984779 0.633143 0.172114
H106  H     H_    0.050690 0.442128 0.238179 0.155888
H107  H     H_    0.949406 0.442048 0.761722 0.155870
H108  H     H_    0.550570 0.942027 0.238297 0.155864
H109  H     H_    0.279621 0.467014 0.634471 0.145129
H110  H     H_    0.449387 0.942064 0.761740 0.155875
H111  H     H_    0.780235 0.570263 0.193858 0.131132
H112  H     H_    0.219762 0.570253 0.806186 0.131139
H113  H     H_    0.280235 0.070263 0.193854 0.131133
H114  H     H_    0.719764 0.070256 0.806160 0.131128
H115  H     H_    0.860705 0.569878 0.114380 0.157874
H116  H     H_    0.139291 0.569868 0.885671 0.157900
H117  H     H_    0.360706 0.069877 0.114375 0.157878
H118  H     H_    0.639293 0.069873 0.885638 0.157867
H119  H     H_    0.859230 0.430265 0.159955 0.160660
H120  H     H_    0.220382 0.966990 0.365495 0.145132
H121  H     H_    0.140771 0.430271 0.839981 0.160656
H122  H     H_    0.359230 0.930266 0.159963 0.160667
H123  H     H_    0.640770 0.930264 0.840028 0.160665
H124  H     H_    0.999715 0.620097 0.228597 0.165757
H125  H     H_    0.055409 0.600372 0.154635 0.191438
H126  H     H_    0.046461 0.641865 0.222322 0.185945
H127  H     H_    0.000110 0.620105 0.771570 0.165796
H128  H     H_    0.944457 0.600283 0.845532 0.191406
H129  H     H_    0.953310 0.641789 0.777934 0.185961
H130  H     H_    0.499935 0.120110 0.228400 0.165808
H131  H     H_    0.779619 0.966988 0.634502 0.145131
H132  H     H_    0.555577 0.100261 0.154435 0.191392
H133  H     H_    0.546749 0.141770 0.222015 0.185967
H134  H     H_    0.500146 0.120104 0.771536 0.165793
H135  H     H_    0.444486 0.100301 0.845501 0.191407
H136  H     H_    0.453354 0.141804 0.777888 0.185960
H137  H     H_    0.609140 0.591599 0.348564 0.146173
H138  H     H_    0.611166 0.603128 0.263995 0.197622
H139  H     H_    0.661600 0.604507 0.256944 0.147533
H140  H     H_    0.390817 0.591604 0.651563 0.146194
H141  H     H_    0.388803 0.603084 0.736135 0.197621
H142  H     H_    0.639839 0.466965 0.447243 0.175249
H143  H     H_    0.338359 0.604467 0.743220 0.147534
H144  H     H_    0.109140 0.091598 0.348557 0.146177
H145  H     H_    0.111167 0.103124 0.263987 0.197621
H146  H     H_    0.161601 0.104505 0.256937 0.147534
H147  H     H_    0.890832 0.091608 0.651495 0.146184
H148  H     H_    0.888812 0.103117 0.736063 0.197622
H149  H     H_    0.838372 0.104491 0.743136 0.147540
H150  H     H_    0.931082 0.374188 0.318317 0.153737
H151  H     H_    0.963471 0.404353 0.340671 0.123785
H152  H     H_    0.995830 0.334602 0.212151 0.227704
O1    O     O_R   0.934530 0.463050 0.065470 -0.627503
O2    O     O_R   0.434520 0.499990 0.618000 -0.566538
O3    O     O_R   0.065480 0.999990 0.382000 -0.566555
O4    O     O_R   0.934520 0.999990 0.618000 -0.566549
O5    O     O_R   0.500000 0.434520 0.552520 -0.628734
O6    O     O_R   0.500000 0.434520 0.447480 -0.628738
O7    O     O_R   0.000000 0.934520 0.552520 -0.628736
O8    O     O_R   0.000000 0.934520 0.447480 -0.628738
O9    O     O_R   0.934550 0.536970 0.065450 -0.632974
O10   O     O_R   0.065450 0.536970 0.934550 -0.632951
O11   O     O_R   0.434550 0.036970 0.065450 -0.632967
O12   O     O_R   0.065470 0.463050 0.934530 -0.627500
O13   O     O_R   0.565450 0.036970 0.934550 -0.632978
O14   O     O_R   0.000010 0.463050 0.093020 -0.586735
O15   O     O_R   0.999990 0.463050 0.906980 -0.586740
O16   O     O_R   0.500010 0.963050 0.093020 -0.586736
O17   O     O_R   0.499990 0.963050 0.906980 -0.586742
O18   O     O_R   0.000020 0.536970 0.093000 -0.636611
O19   O     O_R   0.999980 0.536970 0.907000 -0.636671
O20   O     O_R   0.500020 0.036970 0.093000 -0.636687
O21   O     O_R   0.499980 0.036970 0.907000 -0.636658
O22   O     O_R   0.036960 0.565440 0.463030 -0.623643
O23   O     O_R   0.434530 0.963050 0.065470 -0.627494
O24   O     O_R   0.963040 0.565440 0.536970 -0.623607
O25   O     O_R   0.536960 0.065440 0.463030 -0.623610
O26   O     O_R   0.463040 0.065440 0.536970 -0.623628
O27   O     O_R   0.036960 0.499960 0.370010 -0.623585
O28   O     O_R   0.963040 0.499960 0.629990 -0.623519
O29   O     O_R   0.536960 0.999960 0.370010 -0.623498
O30   O     O_R   0.463040 0.999960 0.629990 -0.623530
O31   O     O_R   0.963040 0.499940 0.443930 -0.632645
O32   O     O_R   0.036960 0.499940 0.556070 -0.632684
O33   O     O_R   0.463040 0.999940 0.443930 -0.632699
O34   O     O_R   0.565470 0.963050 0.934530 -0.627495
O35   O     O_R   0.536960 0.999940 0.556070 -0.632678
O36   O     O_R   0.036980 0.434490 0.463020 -0.633324
O37   O     O_R   0.963020 0.434490 0.536980 -0.633331
O38   O     O_R   0.536980 0.934490 0.463020 -0.633334
O39   O     O_R   0.463020 0.934490 0.536980 -0.633331
O40   O     O_R   0.500030 0.565470 0.552480 -0.623805
O41   O     O_R   0.499970 0.565470 0.447520 -0.623795
O42   O     O_R   0.000030 0.065470 0.552480 -0.623797
O43   O     O_R   0.999970 0.065470 0.447520 -0.623801
O44   O     O_3   0.028113 0.579422 0.267617 -0.622171
O45   O     O_R   0.565480 0.500000 0.487030 -0.636180
O46   O     O_3   0.971761 0.579378 0.732522 -0.622161
O47   O     O_3   0.528272 0.079367 0.267449 -0.622159
O48   O     O_3   0.471785 0.079387 0.732497 -0.622166
O49   O     O_3   0.635275 0.542157 0.264250 -0.593255
O50   O     O_3   0.364718 0.542117 0.735789 -0.593236
O51   O     O_3   0.135276 0.042154 0.264247 -0.593254
O52   O     O_3   0.864722 0.042145 0.735764 -0.593249
O53   O     O_3   0.971321 0.420042 0.235507 -0.625186
O54   O     O_3   0.028813 0.420089 0.764357 -0.625228
O55   O     O_3   0.471152 0.920105 0.235672 -0.625236
O56   O     O_R   0.434520 0.500000 0.512970 -0.636184
O57   O     O_3   0.528787 0.920078 0.764381 -0.625219
O58   O     O_3   0.081023 0.516711 0.117026 -0.657280
O59   O     O_3   0.918954 0.516574 0.883009 -0.657301
O60   O     O_3   0.581051 0.016537 0.116982 -0.657308
O61   O     O_3   0.418959 0.016600 0.883003 -0.657297
O62   O     O_R   0.065480 1.000000 0.487030 -0.636179
O63   O     O_R   0.934520 0.000000 0.512970 -0.636181
O64   O     O_R   0.565480 0.499990 0.382000 -0.566556
Zn1   Zn    Zn3+2 1.000000 0.450650 0.000000 1.003504
Zn2   Zn    Zn3+2 0.499990 0.500000 0.429890 0.972914
Zn3   Zn    Zn3+2 0.000010 1.000000 0.570110 0.972920
Zn4   Zn    Zn3+2 0.999990 0.000000 0.429890 0.972913
Zn5   Zn    Zn3+2 0.500000 0.950650 0.000000 1.003500
Zn6   Zn    Zn3+2 0.000000 0.549370 0.000000 0.939397
Zn7   Zn    Zn3+2 0.500000 0.049370 0.000000 0.939374
Zn8   Zn    Zn3+2 0.049370 0.499970 0.450630 0.947313
Zn9   Zn    Zn3+2 0.950630 0.499970 0.549370 0.947381
Zn10  Zn    Zn3+2 0.549370 0.999970 0.450630 0.947369
Zn11  Zn    Zn3+2 0.450630 0.999970 0.549370 0.947335
Zn12  Zn    Zn3+2 0.500010 0.500000 0.570110 0.972920

loop_
_geom_bond_atom_site_label_1
_geom_bond_atom_site_label_2
_ccdc_geom_bond_type
C150  H61   S    
C81   H25   S    
C105  C110  A    
C74   H10   S    
C133  C137  A    
C144  O50   S    
C107  C112  A    
C142  C146  A    
C99   C103  A    
C42   C159  A    
O15   Zn1   S    
C4    C177  A    
C136  C140  A    
C89   O60   S    
C77   H18   S    
C130  C174  S    
C135  C139  A    
C47   C98   S    
C69   H148  S    
C65   H137  S    
C138  C143  A    
C88   H43   S    
C118  H76   S    
C22   C38   A    
C29   C33   A    
C100  C104  A    
C60   C163  S    
C93   O61   S    
C131  H109  S    
C73   C74   S    
C184  H71   S    
C97   O10   A    
C19   C37   A    
C146  C150  A    
C170  O28   A    
C47   H88   S    
C26   C160  A    
C179  O43   A    
C135  H2    S    
C126  O19   A    
C6    O6    A    
O45   Zn12  S    
C100  H112  S    
C99   C121  A    
C42   H92   S    
C60   H105  S    
C162  O22   A    
O6    Zn2   S    
C157  C168  A    
C69   H147  S    
C156  C173  S    
C116  C121  A    
C27   C31   A    
C28   C32   A    
C64   H135  S    
C73   O54   S    
C59   C152  S    
C79   C130  S    
C92   H52   S    
C171  O33   A    
C10   H78   S    
C96   C127  S    
C114  H122  S    
O5    Zn12  S    
C39   C165  A    
C31   H99   S    
C101  H113  S    
C70   H150  S    
C156  C166  A    
C90   C126  S    
C105  H117  S    
C89   H47   S    
C178  O41   A    
C53   C170  S    
O27   Zn8   S    
C33   H101  S    
O1    Zn1   S    
C35   O58   S    
O13   Zn7   S    
C148  C153  A    
C106  C111  A    
C55   C172  S    
O36   Zn8   S    
C13   C54   S    
C75   H14   S    
C176  C184  A    
C45   C59   S    
C50   C57   S    
C7    O7    A    
C71   H3    S    
C65   H139  S    
C2    C53   S    
C140  C145  A    
C70   O53   S    
C24   H110  S    
C53   C58   S    
C116  H1    S    
C139  C181  S    
C27   C160  A    
C97   O12   A    
O11   Zn7   S    
C58   C141  S    
C52   C56   S    
C45   C50   S    
C49   C53   S    
C51   C55   S    
C68   C98   S    
C78   H21   S    
C90   C141  S    
O23   Zn5   S    
C130  O53   S    
C121  C151  S    
C3    C176  A    
C48   C52   S    
O26   Zn11  S    
C173  O37   A    
C103  C107  A    
C169  O27   A    
C8    C12   A    
C123  C154  S    
C15   C18   A    
C80   H22   S    
C137  C142  A    
C66   H140  S    
C66   H143  S    
O40   Zn12  S    
C85   H34   S    
C15   H82   S    
C33   C36   A    
C68   O61   S    
C173  O36   A    
C181  O56   A    
C32   C36   A    
C1    O1    A    
C20   H68   S    
C13   C57   S    
C11   C25   A    
C62   H128  S    
C167  H64   S    
C96   C152  S    
C111  C119  S    
C12   H80   S    
C1    O9    A    
C88   H42   S    
C21   C38   A    
C93   H53   S    
C177  C179  S    
C65   O49   S    
C89   C91   S    
C110  C114  A    
C143  O49   S    
C132  C136  A    
C75   H12   S    
C176  C178  S    
C70   H151  S    
C14   C17   A    
O33   Zn11  S    
C69   O52   S    
C178  O40   A    
C152  O55   S    
C72   H6    S    
C28   C161  A    
C82   H28   S    
C54   C59   S    
O20   Zn7   S    
C45   H86   S    
C127  O20   A    
C30   C34   A    
C78   H19   S    
C91   C92   S    
C170  O32   A    
C9    C23   A    
C140  C182  S    
O3    Zn4   S    
C64   H134  S    
C117  C122  A    
C82   H29   S    
C97   C109  S    
C94   H55   S    
C83   C84   S    
C104  H116  S    
O8    Zn4   S    
C31   C34   A    
C73   H7    S    
C1    C107  S    
C61   O44   S    
C113  C117  A    
C10   C25   A    
O9    Zn6   S    
C26   C30   A    
C150  C155  A    
C39   C158  A    
C122  C153  S    
C66   H141  S    
C148  H46   S    
C86   H39   S    
C52   C174  S    
C112  C116  A    
C83   H30   S    
C134  H142  S    
O18   Zn6   S    
O39   Zn11  S    
O12   Zn1   S    
C115  H123  S    
C165  H62   S    
C64   O48   S    
C76   H15   S    
C77   H17   S    
C19   C184  A    
C102  H114  S    
C56   H102  S    
C145  O51   S    
C168  H66   S    
C91   H49   S    
C146  O52   S    
C37   C159  S    
C106  H118  S    
O2    Zn12  S    
C71   C72   S    
C20   C37   A    
C19   H67   S    
C61   H126  S    
C180  O64   A    
C147  C151  A    
C35   C79   S    
C71   H152  S    
C108  C110  S    
O25   Zn10  S    
C129  H98   S    
C73   H8    S    
C21   H69   S    
C119  O13   A    
C13   H108  S    
C124  C155  S    
C164  O25   A    
C125  O14   A    
C85   H37   S    
C56   C130  S    
C44   H85   S    
C137  H24   S    
C87   C88   S    
C4    H73   S    
C7    C36   S    
C81   H26   S    
O10   Zn6   S    
C157  C167  A    
C98   C163  S    
C67   H146  S    
C77   C78   S    
C103  H115  S    
C46   C49   S    
C50   C54   S    
C40   C158  A    
C64   H136  S    
C85   H36   S    
C129  C151  A    
C99   H111  S    
C183  O63   A    
C169  O31   A    
C3    H72   S    
C171  O29   A    
C183  O4    A    
C18   C164  S    
C44   C58   S    
C57   C96   S    
C12   C17   A    
C48   O44   S    
C70   C71   S    
O24   Zn9   S    
C8    C23   A    
C14   H81   S    
C144  C148  A    
C95   H60   S    
C39   H89   S    
O14   Zn1   S    
C98   C128  S    
C142  C183  S    
C74   H9    S    
C24   C55   S    
C55   C60   S    
C127  O16   A    
C102  C124  A    
C35   C48   S    
C42   C168  A    
C27   H94   S    
O63   Zn4   S    
C84   C85   S    
C38   C158  S    
C65   H138  S    
C117  H65   S    
C86   C87   S    
C80   C81   S    
C47   C51   S    
C50   O47   S    
O21   Zn7   S    
C30   H97   S    
C63   O47   S    
C6    C34   S    
C172  O35   A    
C66   O50   S    
C149  C154  A    
C11   C16   A    
C69   H149  S    
C25   C160  S    
C3    C20   A    
C163  O57   S    
O29   Zn10  S    
C136  H13   S    
C6    O5    A    
C51   O48   S    
C94   H56   S    
O37   Zn9   S    
C24   C163  S    
C133  H131  S    
C80   O57   S    
C28   H95   S    
C67   H144  S    
O4    Zn3   S    
C63   H133  S    
O62   Zn3   S    
C13   C152  S    
C52   C169  S    
C83   H31   S    
C128  O21   A    
C46   C90   S    
C59   H104  S    
C92   H51   S    
C87   H40   S    
C156  C165  A    
C62   H129  S    
C76   O55   S    
C118  C123  A    
C175  O38   A    
C94   C95   S    
C84   H33   S    
C24   C68   S    
C95   H58   S    
C125  O18   A    
O43   Zn4   S    
C132  H120  S    
C62   O46   S    
O17   Zn5   S    
O41   Zn2   S    
C32   H100  S    
C108  O11   A    
C26   H93   S    
C145  C149  A    
C57   O60   S    
C75   H11   S    
C44   C49   S    
C180  O45   A    
C93   C94   S    
C7    O8    A    
C9    C14   A    
C138  C180  S    
C81   C82   S    
C88   H44   S    
C2    C46   S    
C29   H96   S    
C143  C147  A    
C101  C123  A    
C120  H87   S    
O7    Zn3   S    
C86   O59   S    
C166  H63   S    
C78   H20   S    
C131  C135  A    
C10   C15   A    
C104  C109  A    
C43   C79   S    
C112  H119  S    
C63   H132  S    
C108  O23   A    
C179  O42   A    
C72   H4    S    
O30   Zn11  S    
C47   C60   S    
C41   C159  A    
C5    C22   A    
C87   H41   S    
C172  O30   A    
C113  H121  S    
O32   Zn8   S    
O38   Zn10  S    
C11   H79   S    
C43   C48   S    
C40   C166  A    
C109  C113  A    
C132  C154  A    
C182  O62   A    
C58   H103  S    
C101  C105  A    
O19   Zn6   S    
C67   O51   S    
C74   C75   S    
O28   Zn9   S    
C16   H83   S    
C29   C161  A    
C131  C153  A    
C76   C77   S    
O64   Zn2   S    
C76   H16   S    
C62   H127  S    
C83   O58   S    
C9    H77   S    
C46   O59   S    
C2    H107  S    
C139  C144  A    
C61   H125  S    
C40   H90   S    
C93   H54   S    
C175  O39   A    
O42   Zn3   S    
C49   O46   S    
O31   Zn9   S    
C5    C177  A    
C114  C118  A    
C157  C175  S    
C16   C18   A    
C182  O3    A    
O35   Zn10  S    
C119  O34   A    
C164  O26   A    
C72   H5    S    
C44   C90   S    
C61   H124  S    
C82   H27   S    
C126  O15   A    
C133  C155  A    
C35   C174  S    
C54   C171  S    
C162  O24   A    
C181  O2    A    
C41   H91   S    
C134  C138  A    
C67   H145  S    
C141  O54   S    
C91   H48   S    
C63   H130  S    
C8    H75   S    
C43   H84   S    
C4    C21   A    
O16   Zn5   S    
C41   C167  A    
C92   H50   S    
C5    H74   S    
C102  C106  A    
C100  C122  A    
C51   C68   S    
C79   C125  S    
O56   Zn2   S    
C129  C134  A    
C22   H70   S    
C147  H35   S    
C17   C162  S    
C84   H32   S    
C43   C56   S    
C80   H23   S    
C149  H57   S    
C115  C120  A    
C174  H106  S    
C95   H59   S    
C2    C141  S    
C111  C115  A    
C86   H38   S    
O34   Zn5   S    
C89   H45   S    
C45   C96   S    
C120  C124  A    
O22   Zn8   S    
C128  O17   A    
C23   C161  S    
