data_mof_unit_24936.cif
_audit_creation_date              2012-12-10T16:51:32-0500
_audit_creation_method            fapswitch 2.2
_symmetry_space_group_name_H-M    P1
_symmetry_Int_Tables_number       1
_space_group_crystal_system       triclinic
_cell_length_a                    7.813028
_cell_length_b                    8.571147
_cell_length_c                    12.649229
_cell_angle_alpha                 92.520364
_cell_angle_beta                  102.58284
_cell_angle_gamma                 94.025721
_cell_volume                      823.161540393

loop_
_atom_site_label
_atom_site_type_symbol
_atom_type_description
_atom_site_fract_x
_atom_site_fract_y
_atom_site_fract_z
_atom_type_partial_charge
Br1   Br    Br    0.711803 0.257348 0.751018 -0.489746
Br2   Br    Br    0.568362 0.652088 0.774085 -0.522899
C1    C     C_R   0.044567 0.794630 0.497494 0.971334
C2    C     C_R   0.175351 0.528188 0.827299 -0.080504
C3    C     C_2   0.067892 0.958314 0.496281 -0.369365
C4    C     C_R   0.111494 0.514505 0.708986 0.908234
C5    C     C_2   0.932844 0.041847 0.505209 -0.345371
C6    C     C_R   0.955713 0.205424 0.503056 0.975910
C7    C     C_R   0.888505 0.481039 0.292615 0.857043
C8    C     C_R   0.820609 0.298469 0.011151 -0.112438
C9    C     C_R   0.816534 0.437676 0.179974 -0.056666
C10   C     C_R   0.065564 0.581301 0.893032 -0.136794
C11   C     C_R   0.119209 0.585786 0.005305 -0.130880
C12   C     C_R   0.394676 0.481035 0.989085 0.064776
C13   C     C_R   0.279373 0.530836 0.053495 -0.171636
C14   C     C_R   0.343878 0.484176 0.875954 -0.025295
C15   C     C_R   0.564001 0.434524 0.032709 0.037452
C16   C     C_R   0.658429 0.355549 0.965227 0.051958
C17   C     C_R   0.598180 0.356299 0.853005 0.178082
C18   C     C_R   0.471645 0.458712 0.815806 0.239850
C19   C     C_R   0.648668 0.480480 0.137700 -0.221020
C20   C     C_R   0.899450 0.339254 0.119335 -0.233533
H1    H     H_    0.026590 0.298739 0.154286 0.161355
H2    H     H_    0.195225 0.009485 0.487768 0.188363
H3    H     H_    0.805587 0.990711 0.513887 0.195353
H4    H     H_    0.471464 0.363426 0.429186 0.188179
H5    H     H_    0.527547 0.644415 0.560587 0.234048
H6    H     H_    0.892527 0.232430 0.963036 0.189239
H7    H     H_    0.589043 0.558621 0.185846 0.156515
H8    H     H_    0.938136 0.619837 0.857675 0.209392
H9    H     H_    0.309224 0.526167 0.140757 0.135851
H10   H     H_    0.033746 0.627871 0.055171 0.161577
N1    N     N_2   0.434800 0.456690 0.470850 -0.170489
N2    N     N_2   0.565200 0.543310 0.529150 -0.127874
O1    O     O_R   0.893060 0.738880 0.507150 -0.613994
O2    O     O_R   0.172250 0.711130 0.488470 -0.624644
O3    O     O_R   0.944700 0.520730 0.667600 -0.565694
O4    O     O_R   0.223890 0.492980 0.648920 -0.591400
O5    O     O_R   0.827750 0.288870 0.511530 -0.596476
O6    O     O_R   0.106940 0.261120 0.492850 -0.619075
O7    O     O_R   0.776110 0.507020 0.351080 -0.640663
O8    O     O_R   0.055300 0.479270 0.332400 -0.633520
Zn1   Zn    Zn3+2 0.813580 0.518530 0.512470 1.002376
Zn2   Zn    Zn3+2 0.186420 0.481470 0.487530 0.973088

loop_
_geom_bond_atom_site_label_1
_geom_bond_atom_site_label_2
_ccdc_geom_bond_type
O3    Zn1   S    
C4    O4    A    
O4    Zn2   S    
C6    O5    A    
C2    C10   A    
O1    Zn1   S    
C11   H10   S    
C7    O7    A    
C17   C18   A    
C5    H3    S    
C1    O1    A    
C14   C18   A    
C11   C13   A    
N1    N2    D    
C4    O3    A    
C5    C6    S    
C8    C20   A    
C13   H9    S    
O7    Zn1   S    
C12   C15   A    
C7    O8    A    
C3    H2    S    
O8    Zn2   S    
C1    O2    A    
C8    C16   A    
C2    C14   A    
C15   C16   A    
C7    C9    S    
H5    N2    S    
C12   C14   A    
Br1   C17   S    
O2    Zn2   S    
Br2   C18   S    
O6    Zn2   S    
C6    O6    A    
C10   C11   A    
C2    C4    S    
C16   C17   A    
C8    H6    S    
C3    C5    D    
C12   C13   A    
O5    Zn1   S    
C9    C20   A    
C10   H8    S    
C20   H1    S    
N1    Zn2   S    
C19   H7    S    
C9    C19   A    
C15   C19   A    
N2    Zn1   S    
H4    N1    S    
C1    C3    S    
