data_mof_unit_52405.cif
_audit_creation_date              2012-12-10T19:46:53-0500
_audit_creation_method            fapswitch 2.2
_symmetry_space_group_name_H-M    P1
_symmetry_Int_Tables_number       1
_space_group_crystal_system       triclinic
_cell_length_a                    10.932183
_cell_length_b                    10.951051
_cell_length_c                    13.087454
_cell_angle_alpha                 89.768969
_cell_angle_beta                  90.701658
_cell_angle_gamma                 89.02718
_cell_volume                      1566.45811694

loop_
_atom_site_label
_atom_site_type_symbol
_atom_type_description
_atom_site_fract_x
_atom_site_fract_y
_atom_site_fract_z
_atom_type_partial_charge
C1    C     C_R   0.485565 0.259992 0.500351 0.835709
C2    C     C_R   0.517409 0.739250 0.499653 0.818703
C3    C     C_R   0.872863 0.504934 0.503151 -0.176306
C4    C     C_R   0.126877 0.495758 0.496799 -0.183028
C5    C     C_R   0.938688 0.434443 0.576668 -0.011397
C6    C     C_R   0.060918 0.565559 0.422836 -0.013516
C7    C     C_R   0.259632 0.198926 0.210494 0.356485
C8    C     C_R   0.752735 0.792078 0.781844 0.366618
C9    C     C_R   0.307609 0.151845 0.302310 -0.296003
C10   C     C_R   0.701902 0.840416 0.691530 -0.308997
C11   C     C_R   0.433065 0.124999 0.312600 0.132487
C12   C     C_R   0.577560 0.873967 0.686063 0.043928
C13   C     C_R   0.511645 0.152044 0.231844 -0.101984
C14   C     C_R   0.502703 0.852630 0.770463 -0.175040
C15   C     C_R   0.463933 0.199390 0.140033 -0.251709
C16   C     C_R   0.552970 0.802832 0.860433 -0.262663
C17   C     C_R   0.337981 0.221925 0.128593 0.379105
C18   C     C_R   0.677981 0.773259 0.866843 0.376476
C19   C     C_R   0.508181 0.937622 0.404887 -0.072374
C20   C     C_R   0.499576 0.060870 0.594697 -0.067343
C21   C     C_R   0.523110 0.873061 0.498338 -0.193188
C22   C     C_R   0.482762 0.125906 0.501386 -0.163653
C23   C     C_R   0.259542 0.498982 0.499032 0.813572
C24   C     C_R   0.740351 0.501599 0.500946 0.804635
C25   C     C_R   0.528803 0.935944 0.592118 -0.015618
C26   C     C_R   0.479197 0.062959 0.407170 -0.015015
C27   C     C_1   0.500212 0.500481 0.173502 0.183641
C28   C     C_1   0.499980 0.499937 0.826499 0.205198
C29   C     C_1   0.500286 0.500612 0.050692 0.003838
C30   C     C_1   0.500131 0.500231 0.949305 0.002302
C31   C     C_R   0.195537 0.826062 0.273163 -0.043298
C32   C     C_R   0.799559 0.167361 0.714698 -0.112592
C33   C     C_R   0.146091 0.759540 0.353609 -0.165766
C34   C     C_R   0.851774 0.237631 0.637888 -0.144578
C35   C     C_R   0.124751 0.634404 0.342085 0.140126
C36   C     C_R   0.874373 0.361617 0.654717 0.136191
C37   C     C_R   0.155329 0.576330 0.250148 -0.018090
C38   C     C_R   0.842556 0.414727 0.748425 -0.009839
C39   C     C_R   0.205828 0.642993 0.170293 -0.125718
C40   C     C_R   0.789350 0.344312 0.824679 -0.096495
C41   C     C_R   0.225041 0.768018 0.181501 -0.010824
C42   C     C_R   0.768566 0.220441 0.808066 -0.086137
C43   C     C_R   0.933055 0.572932 0.427705 -0.043606
C44   C     C_R   0.066558 0.427849 0.572263 -0.077550
Cu1   Cu    Cu3+1 0.499990 0.499990 0.592680 1.024939
Cu2   Cu    Cu3+1 0.500010 0.500010 0.407320 0.996906
H1    H     H_    0.262720 0.819952 0.119146 0.175053
H2    H     H_    0.728516 0.165573 0.867517 0.146366
H3    H     H_    0.608909 0.133052 0.239119 0.159806
H4    H     H_    0.406212 0.876550 0.767020 0.187764
H5    H     H_    0.524862 0.217268 0.077316 0.177843
H6    H     H_    0.494797 0.788316 0.925581 0.194078
H7    H     H_    0.209959 0.922783 0.281523 0.165249
H8    H     H_    0.783858 0.071641 0.702024 0.145409
H9    H     H_    0.121856 0.805709 0.423725 0.132947
H10   H     H_    0.876600 0.195265 0.566262 0.127525
H11   H     H_    0.138437 0.480102 0.240116 0.182297
H12   H     H_    0.860090 0.509997 0.762531 0.184380
H13   H     H_    0.228756 0.598028 0.099387 0.170806
H14   H     H_    0.765284 0.385503 0.896904 0.163271
H15   H     H_    0.246582 0.132178 0.364673 0.158940
H16   H     H_    0.760195 0.856047 0.626546 0.160775
N1    N     N_1   0.500030 0.500030 0.268070 -0.138912
N2    N     N_1   0.499970 0.499970 0.731930 -0.126323
O1    O     O_R   0.499980 0.319630 0.578260 -0.550799
O2    O     O_R   0.500020 0.680370 0.421740 -0.592652
O3    O     O_R   0.500000 0.319650 0.421740 -0.581524
O4    O     O_R   0.500000 0.680350 0.578260 -0.552894
O5    O     O_R   0.319630 0.500000 0.578260 -0.562091
O6    O     O_R   0.680370 0.500000 0.421740 -0.574192
O7    O     O_R   0.319650 0.500020 0.421740 -0.583887
O8    O     O_R   0.680350 0.499980 0.578260 -0.588905
C45   C     C_2   0.532784 0.875581 0.305604 0.409567
H17   H     H_    0.609474 0.811937 0.299980 0.101708
O9    O     O_2   0.467617 0.892403 0.230399 -0.556625
C46   C     C_2   0.483105 0.119672 0.696154 0.415249
H18   H     H_    0.548252 0.102202 0.757676 0.065196
O10   O     O_2   0.391955 0.181540 0.713788 -0.499757
C47   C     C_2   0.861395 0.657304 0.358693 0.428197
H19   H     H_    0.783434 0.707834 0.388351 0.013110
O11   O     O_2   0.886028 0.668462 0.268439 -0.477820
C48   C     C_2   0.137908 0.343077 0.640930 0.459906
H20   H     H_    0.215557 0.292491 0.610924 0.087474
O12   O     O_2   0.113111 0.331448 0.731112 -0.445976
Cl1   Cl    Cl    0.280308 0.276627 0.010686 -0.503229
Cl2   Cl    Cl    0.738918 0.714468 0.982266 -0.524998
Cl3   Cl    Cl    0.100642 0.223228 0.198935 -0.567931
Cl4   Cl    Cl    0.911084 0.761336 0.787581 -0.562929

loop_
_geom_bond_atom_site_label_1
_geom_bond_atom_site_label_2
_ccdc_geom_bond_type
C33   H9    S    
C34   H10   S    
C40   H14   S    
C27   C29   S    
C45   H17   S    
C23   O5    A    
C24   O6    A    
C39   C41   A    
Cu1   Cu2   S    
C3    C43   A    
C18   Cl2   S    
C9    H15   S    
C19   C21   A    
C46   O10   D    
Cu2   O2    S    
C44   C48   S    
C20   C25   A    
C43   C47   S    
C5    C36   S    
C6    C35   S    
C20   C46   S    
C7    C9    A    
C19   C26   A    
C33   C35   A    
C38   H12   S    
C7    Cl3   S    
C7    C17   A    
C1    O1    A    
C31   C33   A    
C15   H5    S    
C40   C42   A    
C1    C22   S    
Cu1   O8    S    
C45   O9    D    
C3    C24   S    
C10   H16   S    
C2    C21   S    
C17   Cl1   S    
C32   H8    S    
Cu1   O5    S    
C23   O7    A    
C19   C45   S    
C46   H18   S    
C4    C6    A    
C47   O11   D    
C4    C23   S    
C4    C44   A    
C11   C26   S    
C2    O2    A    
C8    C18   A    
C8    Cl4   S    
C32   C34   A    
C29   C30   T    
C39   H13   S    
Cu1   O4    S    
C41   H1    S    
C42   H2    S    
C31   H7    S    
C9    C11   A    
Cu2   O7    S    
C10   C12   A    
C13   H3    S    
C28   N2    T    
C16   C18   A    
C5    C44   A    
C12   C14   A    
C48   O12   D    
C6    C43   A    
C13   C15   A    
Cu1   O1    S    
C14   C16   A    
C24   O8    A    
C15   C17   A    
C21   C25   A    
C31   C41   A    
C35   C37   A    
C16   H6    S    
C20   C22   A    
C3    C5    A    
Cu2   N1    S    
Cu1   N2    S    
C2    O4    A    
C12   C25   S    
C36   C38   A    
Cu2   O3    S    
C37   C39   A    
C38   C40   A    
C11   C13   A    
C14   H4    S    
C28   C30   S    
C1    O3    A    
C34   C36   A    
Cu2   O6    S    
C47   H19   S    
C8    C10   A    
C48   H20   S    
C22   C26   A    
C32   C42   A    
C27   N1    T    
C37   H11   S    
