data_mof_unit_6115.cif
_audit_creation_date              2012-12-11T15:31:42-0500
_audit_creation_method            fapswitch 2.2
_symmetry_space_group_name_H-M    P1
_symmetry_Int_Tables_number       1
_space_group_crystal_system       triclinic
_cell_length_a                    6.942566
_cell_length_b                    14.797362
_cell_length_c                    21.322981
_cell_angle_alpha                 74.774996
_cell_angle_beta                  90.055089
_cell_angle_gamma                 90.638746
_cell_volume                      2113.5257546

loop_
_atom_site_label
_atom_site_type_symbol
_atom_type_description
_atom_site_fract_x
_atom_site_fract_y
_atom_site_fract_z
_atom_type_partial_charge
O1    O     O_R   0.648150 0.130050 0.214300 -0.537241
O2    O     O_R   0.351850 0.869950 0.785700 -0.537242
O3    O     O_R   0.320490 0.006660 0.340150 -0.542711
O4    O     O_R   0.679510 0.993340 0.659850 -0.542711
O5    O     O_R   0.146100 0.869940 0.285700 -0.539400
O6    O     O_R   0.853900 0.130060 0.714300 -0.539400
C1    C     C_R   0.488653 0.001433 0.367090 0.695229
C2    C     C_R   0.511347 0.998567 0.632910 0.695229
O7    O     O_R   0.318690 0.137980 0.218120 -0.540253
O8    O     O_R   0.681310 0.862020 0.781880 -0.540254
O9    O     O_R   0.144280 0.002190 0.162800 -0.543449
O10   O     O_R   0.855720 0.997810 0.837200 -0.543449
C3    C     C_R   0.488655 0.175545 0.205960 0.701670
C4    C     C_R   0.511345 0.824455 0.794040 0.701670
O11   O     O_R   0.649960 0.997790 0.337200 -0.537678
O12   O     O_R   0.350040 0.002210 0.662800 -0.537678
O13   O     O_3   0.479300 0.955290 0.231990 -0.373933
O14   O     O_3   0.520700 0.044710 0.768010 -0.373932
V1    V     V_3+5 0.206040 0.008290 0.253340 1.436200
V2    V     V_3+5 0.793960 0.991710 0.746660 1.436200
O15   O     O_R   0.814320 0.993320 0.159850 -0.544444
O16   O     O_R   0.185680 0.006680 0.840150 -0.544444
C5    C     C_R   0.983141 0.998370 0.132843 0.670864
C6    C     C_R   0.016859 0.001630 0.867157 0.670863
O17   O     O_R   0.816120 0.862000 0.281880 -0.543336
O18   O     O_R   0.183880 0.138000 0.718120 -0.543336
C7    C     C_R   0.984063 0.824500 0.294134 0.693465
C8    C     C_R   0.015937 0.175500 0.705866 0.693465
V3    V     V_3+5 0.705540 0.991700 0.246660 1.429841
V4    V     V_3+5 0.294460 0.008300 0.753340 1.429841
O19   O     O_3   0.982150 0.044700 0.268010 -0.363139
O20   O     O_3   0.017850 0.955300 0.731990 -0.363139
C9    C     C_R   0.990136 0.723343 0.321938 -0.030670
C10   C     C_R   0.009864 0.276657 0.678062 -0.030670
C11   C     C_R   0.993071 0.566641 0.308501 -0.161094
C12   C     C_R   0.006929 0.433359 0.691499 -0.161094
C13   C     C_R   0.988679 0.663009 0.281523 -0.176504
C14   C     C_R   0.011321 0.336991 0.718477 -0.176504
C15   C     C_R   0.994299 0.687550 0.389471 -0.213444
C16   C     C_R   0.005701 0.312450 0.610529 -0.213444
C17   C     C_R   0.996499 0.589764 0.418380 0.087892
C18   C     C_R   0.003501 0.410236 0.581620 0.087892
C19   C     C_R   0.997248 0.529657 0.376263 0.129115
C20   C     C_R   0.002752 0.470343 0.623737 0.129115
C21   C     C_R   0.997984 0.549834 0.487279 0.049791
C22   C     C_R   0.002015 0.450166 0.512721 0.049791
C23   C     C_R   0.005112 0.393857 0.468443 -0.176535
C24   C     C_R   0.994888 0.606143 0.531557 -0.176535
C25   C     C_R   0.002322 0.433029 0.401808 -0.184486
C26   C     C_R   0.997678 0.566971 0.598192 -0.184486
H1    H     H_    0.004624 0.386989 0.369786 0.154727
H2    H     H_    0.995376 0.613011 0.630214 0.154727
H3    H     H_    0.004826 0.261721 0.582403 0.092694
H4    H     H_    0.995174 0.738279 0.417597 0.092694
H5    H     H_    0.015364 0.309419 0.770823 0.099835
H6    H     H_    0.984636 0.690581 0.229177 0.099835
H7    H     H_    0.992787 0.520814 0.276314 0.116579
H8    H     H_    0.007213 0.479186 0.723686 0.116579
H9    H     H_    0.010055 0.318617 0.483448 0.140042
H10   H     H_    0.989945 0.681383 0.516552 0.140042
C27   C     C_3   0.820382 0.994685 0.977775 -0.116891
C28   C     C_3   0.179618 0.005315 0.022225 -0.116891
C29   C     C_3   0.914892 0.920192 0.033933 -0.145288
C30   C     C_3   0.085108 0.079807 0.966067 -0.145288
H11   H     H_    0.844687 0.854361 0.062282 0.097439
H12   H     H_    0.155313 0.145639 0.937718 0.097439
H13   H     H_    0.671920 0.990352 0.959274 0.108377
H14   H     H_    0.328080 0.009648 0.040725 0.108377
C31   C     C_3   0.992780 0.998934 0.062226 -0.003663
C32   C     C_3   0.007220 0.001066 0.937774 -0.003664
C33   C     C_3   0.898328 0.073439 0.006866 -0.139257
C34   C     C_3   0.101672 0.926561 0.993134 -0.139257
H15   H     H_    0.814225 0.133951 0.012971 0.102509
H16   H     H_    0.185774 0.866049 0.987029 0.102509
C35   C     C_3   0.607830 0.070230 0.466126 0.012923
C36   C     C_3   0.392170 0.929770 0.533874 0.012923
C37   C     C_3   0.431459 0.081691 0.507326 -0.182664
C38   C     C_3   0.568541 0.918309 0.492674 -0.182664
H17   H     H_    0.376322 0.149019 0.513447 0.116560
H18   H     H_    0.623678 0.850981 0.486553 0.116560
C39   C     C_3   0.504749 0.999252 0.562429 -0.055809
C40   C     C_3   0.495251 0.000748 0.437571 -0.055809
C41   C     C_3   0.683246 0.988961 0.521458 -0.154572
C42   C     C_3   0.316754 0.011039 0.478542 -0.154572
H19   H     H_    0.834442 0.980650 0.538916 0.125468
H20   H     H_    0.165558 0.019350 0.461084 0.125468
C43   C     C_R   0.503380 0.276747 0.178281 -0.039225
C44   C     C_R   0.496620 0.723253 0.821720 -0.039225
C45   C     C_R   0.599704 0.429328 0.188501 -0.163220
C46   C     C_R   0.400296 0.570672 0.811499 -0.163220
C47   C     C_R   0.568805 0.334207 0.216441 -0.166003
C48   C     C_R   0.431195 0.665793 0.783559 -0.166004
C49   C     C_R   0.469451 0.314276 0.111912 -0.217863
C50   C     C_R   0.530548 0.685724 0.888087 -0.217863
C51   C     C_R   0.504046 0.410459 0.081759 0.084912
C52   C     C_R   0.495954 0.589541 0.918240 0.084912
C53   C     C_R   0.569700 0.467647 0.121689 0.140373
C54   C     C_R   0.430300 0.532353 0.878311 0.140373
C55   C     C_R   0.479230 0.451233 0.013499 0.059661
C56   C     C_R   0.520770 0.548766 0.986501 0.059661
C57   C     C_R   0.584858 0.602285 0.028684 -0.192993
C58   C     C_R   0.415142 0.397715 0.971316 -0.192993
C59   C     C_R   0.608082 0.562404 0.094728 -0.204433
C60   C     C_R   0.391918 0.437595 0.905272 -0.204433
H21   H     H_    0.658434 0.606313 0.125018 0.119624
H22   H     H_    0.341566 0.393687 0.874982 0.119624
H23   H     H_    0.577907 0.734415 0.914732 0.092667
H24   H     H_    0.422093 0.265585 0.085267 0.092667
H25   H     H_    0.402211 0.694854 0.732311 0.131032
H26   H     H_    0.597789 0.305146 0.267689 0.131032
H27   H     H_    0.650771 0.472789 0.218973 0.118362
H28   H     H_    0.349229 0.527211 0.781027 0.118362
H29   H     H_    0.619624 0.675766 0.012407 0.119141
H30   H     H_    0.380376 0.324234 0.987593 0.119141
C61   C     C_1   0.728156 0.147440 0.428304 0.258798
N1    N     N_1   0.823203 0.208163 0.398290 -0.395592
C62   C     C_1   0.271844 0.852559 0.571696 0.258798
N2    N     N_1   0.176797 0.791837 0.601710 -0.395592

loop_
_geom_bond_atom_site_label_1
_geom_bond_atom_site_label_2
_ccdc_geom_bond_type
C27   C32   S    
C29   H11   S    
C43   C47   A    
C57   H29   S    
C5    C31   S    
C46   H28   S    
O4    C2    A    
V1    O19   S    
C36   C42   S    
C60   H22   S    
C6    C32   S    
C23   C25   A    
C21   C22   A    
C7    C9    S    
O9    V1    S    
C9    C15   A    
C10   C16   A    
C47   H26   S    
C11   C13   A    
C36   C38   S    
O3    C1    A    
C49   H24   S    
O7    C3    A    
C38   H18   S    
C48   H25   S    
C15   H4    S    
C51   C55   A    
O12   V4    S    
C61   N1    T    
C52   C56   A    
O13   V3    S    
C31   C33   S    
C18   C22   A    
C30   C33   S    
C27   C29   S    
C27   H13   S    
C28   C30   S    
O5    C7    A    
C13   H6    S    
C38   C41   S    
O7    V1    S    
O6    C8    A    
C14   H5    S    
C29   C31   S    
O8    V2    S    
C25   H1    S    
C52   C54   A    
C26   H2    S    
O3    V1    S    
O14   V4    S    
C30   C32   S    
C45   C47   A    
C11   C19   A    
C24   H10   S    
C27   C33   S    
C1    O11   A    
C8    C10   S    
C2    O12   A    
C17   C19   A    
C3    C43   S    
C18   C20   A    
C39   C41   S    
O11   V3    S    
C37   H17   S    
O17   V3    S    
C1    C40   S    
C44   C50   A    
C50   H23   S    
C2    C39   S    
C44   C48   A    
C34   H16   S    
O8    C4    A    
C33   H15   S    
C19   C25   A    
C37   C42   S    
O15   V3    S    
C9    C13   A    
C28   C31   S    
C45   C53   A    
C30   H12   S    
C58   C60   A    
C58   H30   S    
C38   C40   S    
C46   C48   A    
C55   C56   A    
C37   C39   S    
O10   V2    S    
O1    V3    S    
C28   C34   S    
C59   H21   S    
C50   C52   A    
C24   C26   A    
C35   C37   S    
C53   C59   A    
C41   H19   S    
O18   V4    S    
C40   C42   S    
O15   C5    A    
O16   C6    A    
C12   C20   A    
O1    C3    A    
O2    V4    S    
V2    O20   S    
C21   C24   A    
C20   C26   A    
O10   C6    A    
C22   C23   A    
O16   V4    S    
C10   C14   A    
O18   C8    A    
C42   H20   S    
C16   C18   A    
C36   C39   S    
C51   C53   A    
C35   C40   S    
O5    V1    S    
O17   C7    A    
O6    V2    S    
C45   H27   S    
C12   H8    S    
C36   C62   S    
C28   H14   S    
C11   H7    S    
C12   C14   A    
C4    C44   S    
V3    O19   S    
C62   N2    T    
V4    O20   S    
C35   C41   S    
C49   C51   A    
C54   C60   A    
C43   C49   A    
O9    C5    A    
C56   C57   A    
O13   V1    S    
O14   V2    S    
O2    C4    A    
C23   H9    S    
O4    V2    S    
C55   C58   A    
C35   C61   S    
C29   C34   S    
C15   C17   A    
C57   C59   A    
C16   H3    S    
C17   C21   A    
C32   C34   S    
C46   C54   A    
