data_mof_unit_48167.cif
_audit_creation_date              2012-12-10T17:16:38-0500
_audit_creation_method            fapswitch 2.2
_symmetry_space_group_name_H-M    P1
_symmetry_Int_Tables_number       1
_space_group_crystal_system       triclinic
_cell_length_a                    10.107235
_cell_length_b                    10.609405
_cell_length_c                    10.831516
_cell_angle_alpha                 90.612175
_cell_angle_beta                  95.646041
_cell_angle_gamma                 79.295006
_cell_volume                      1135.69778259

loop_
_atom_site_label
_atom_site_type_symbol
_atom_type_description
_atom_site_fract_x
_atom_site_fract_y
_atom_site_fract_z
_atom_type_partial_charge
C1    C     C_R   0.443286 0.511659 0.267111 0.970777
C2    C     C_R   0.556505 0.495030 0.732920 0.978963
C3    C     C_2   0.410482 0.529499 0.135255 -0.358879
C4    C     C_2   0.588520 0.502987 0.864994 -0.357151
C5    C     C_2   0.511144 0.536579 0.066360 -0.086959
C6    C     C_2   0.486500 0.540207 0.934240 -0.125689
C7    C     C_2   0.073666 0.489219 0.489879 -0.119041
C8    C     C_2   0.926323 0.510807 0.510102 -0.120541
C9    C     C_R   0.507478 0.258777 0.515881 0.951150
C10   C     C_R   0.492563 0.741266 0.484276 0.943205
C11   C     C_R   0.754434 0.062690 0.469052 -0.135111
C12   C     C_R   0.245698 0.937331 0.531443 -0.136191
C13   C     C_R   0.842249 0.988762 0.393446 -0.284698
C14   C     C_R   0.157914 0.011274 0.607063 -0.286983
C15   C     C_R   0.801249 0.888090 0.326300 -0.208324
C16   C     C_R   0.198894 0.112011 0.674109 -0.208295
C17   C     C_R   0.676945 0.854834 0.342450 0.660489
C18   C     C_R   0.323157 0.145304 0.657868 0.662043
C19   C     C_R   0.592006 0.923082 0.427277 -0.058542
C20   C     C_R   0.408096 0.076988 0.573076 -0.061650
C21   C     C_R   0.622919 0.036982 0.478123 0.010183
C22   C     C_R   0.377197 0.963052 0.522287 0.010977
C23   C     C_R   0.479119 0.878968 0.464998 -0.174151
C24   C     C_R   0.520966 0.121093 0.535323 -0.177468
H1    H     H_    0.133254 0.165911 0.737062 0.164874
H2    H     H_    0.866886 0.834228 0.263319 0.163694
H3    H     H_    0.792509 0.137101 0.522704 0.173754
H4    H     H_    0.207561 0.862946 0.477805 0.174031
H5    H     H_    0.941175 0.011240 0.385105 0.170316
H6    H     H_    0.059007 0.988782 0.615461 0.170369
H7    H     H_    0.381991 0.565707 0.894015 0.192101
H8    H     H_    0.615039 0.531080 0.106737 0.210014
H9    H     H_    0.692760 0.477323 0.905587 0.146892
H10   H     H_    0.306862 0.534811 0.094499 0.147824
H11   H     H_    0.888313 0.580626 0.578137 0.163636
H12   H     H_    0.111669 0.419413 0.421832 0.163402
H13   H     H_    0.882237 0.382776 0.385258 0.162402
H14   H     H_    0.117774 0.617213 0.614756 0.161221
N1    N     N_2   0.157300 0.551390 0.551120 -0.187357
N2    N     N_2   0.842700 0.448610 0.448880 -0.187897
O1    O     O_R   0.568940 0.489660 0.307530 -0.579321
O2    O     O_R   0.431060 0.510340 0.692470 -0.574077
O3    O     O_R   0.348880 0.522640 0.340350 -0.630545
O4    O     O_R   0.651120 0.477360 0.659650 -0.632339
O5    O     O_R   0.610030 0.300280 0.483580 -0.639223
O6    O     O_R   0.389970 0.699720 0.516420 -0.643257
O7    O     O_R   0.389970 0.333270 0.516400 -0.577770
O8    O     O_R   0.610030 0.666730 0.483600 -0.579932
Zn1   Zn    Zn3+2 0.646940 0.477980 0.478080 0.969121
Zn2   Zn    Zn3+2 0.353060 0.522020 0.521920 0.970560
F1    F     F_    0.637411 0.759591 0.271440 -0.685750
F2    F     F_    0.362641 0.240679 0.728735 -0.674855

loop_
_geom_bond_atom_site_label_1
_geom_bond_atom_site_label_2
_ccdc_geom_bond_type
O4    Zn1   S    
C10   O6    A    
C19   C23   A    
O3    Zn2   S    
C9    O5    A    
C11   H3    S    
C10   C23   S    
O7    Zn2   S    
C1    O3    A    
C7    H12   S    
O6    Zn2   S    
C2    C4    S    
O5    Zn1   S    
C5    H8    S    
C17   F1    S    
C6    H7    S    
C12   C14   A    
C18   F2    S    
C7    C8    S    
C9    C24   S    
C16   C18   A    
C11   C13   A    
C5    C6    S    
O2    Zn2   S    
C1    O1    A    
O8    Zn1   S    
C19   C21   A    
C2    O2    A    
C9    O7    A    
H13   N2    S    
C18   C20   A    
C13   C15   A    
C10   O8    A    
H14   N1    S    
C14   C16   A    
C13   H5    S    
N2    Zn1   S    
C12   C22   A    
N1    Zn2   S    
C2    O4    A    
C12   H4    S    
C4    C6    D    
C1    C3    S    
C21   C24   A    
O1    Zn1   S    
C16   H1    S    
C15   C17   A    
C7    N1    D    
C4    H9    S    
C15   H2    S    
C8    N2    D    
C3    H10   S    
C17   C19   A    
C14   H6    S    
C11   C21   A    
C22   C23   A    
C20   C24   A    
C20   C22   A    
C3    C5    D    
C8    H11   S    
