data_mof_unit_54605.cif
_audit_creation_date              2012-12-10T17:44:32-0500
_audit_creation_method            fapswitch 2.2
_symmetry_space_group_name_H-M    P1
_symmetry_Int_Tables_number       1
_space_group_crystal_system       triclinic
_cell_length_a                    9.986098
_cell_length_b                    10.694408
_cell_length_c                    15.443739
_cell_angle_alpha                 94.158973
_cell_angle_beta                  67.780038
_cell_angle_gamma                 91.34951
_cell_volume                      1522.80592412

loop_
_atom_site_label
_atom_site_type_symbol
_atom_type_description
_atom_site_fract_x
_atom_site_fract_y
_atom_site_fract_z
_atom_type_partial_charge
C1    C     C_R   0.506317 0.738831 0.491093 0.936418
C2    C     C_R   0.690267 0.605635 0.048963 -0.074192
C3    C     C_R   0.568005 0.529795 0.094718 -0.032611
C4    C     C_R   0.409265 0.490310 0.675516 1.008434
C5    C     C_R   0.790891 0.634230 0.092525 0.571292
C6    C     C_R   0.766001 0.590170 0.180759 -0.235390
C7    C     C_R   0.555810 0.478120 0.177485 -0.157830
C8    C     C_R   0.327120 0.879538 0.410403 0.496829
C9    C     C_R   0.198827 0.934617 0.415429 -0.334066
C10   C     C_R   0.144002 0.040585 0.475400 0.366928
C11   C     C_R   0.225965 0.100648 0.522564 0.371225
C12   C     C_R   0.396738 0.491089 0.920543 -0.087837
C13   C     C_R   0.367738 0.056566 0.504311 -0.123433
C14   C     C_R   0.403506 0.934378 0.464501 -0.099091
C15   C     C_R   0.513281 0.872327 0.481762 -0.105411
C16   C     C_R   0.492307 0.260980 0.508890 0.883227
C17   C     C_R   0.611043 0.940468 0.511113 -0.158443
C18   C     C_R   0.595721 0.067900 0.528374 -0.139379
C19   C     C_R   0.478132 0.127778 0.521351 -0.048433
C20   C     C_R   0.817780 0.710321 0.589090 0.419493
C21   C     C_R   0.885430 0.820779 0.601552 -0.269061
C22   C     C_R   0.015781 0.815450 0.611050 -0.361253
C23   C     C_R   0.254338 0.450252 0.973205 -0.137329
C24   C     C_R   0.084935 0.699364 0.600577 0.590459
C25   C     C_R   0.045865 0.597139 0.549683 -0.052259
C26   C     C_R   0.902271 0.598986 0.547918 0.031278
C27   C     C_R   0.955571 0.411643 0.449819 -0.052921
C28   C     C_R   0.591023 0.500014 0.324242 0.901601
C29   C     C_R   0.099128 0.413617 0.447519 0.478840
C30   C     C_R   0.353124 0.470115 0.776886 -0.321375
C31   C     C_R   0.645453 0.516160 0.224108 -0.089591
C32   C     C_R   0.161228 0.418483 0.924024 0.359565
C33   C     C_R   0.206874 0.440592 0.827703 0.355641
C34   C     C_R   0.489336 0.536799 0.965413 0.095115
C35   C     C_R   0.449837 0.474188 0.823118 0.330682
C36   C     C_3   0.898319 0.824141 0.093577 -0.234434
C37   C     C_3   0.485354 0.822458 0.264662 -0.332752
C38   C     C_3   0.194678 0.779197 0.705551 -0.292135
C39   C     C_3   0.766052 0.847470 0.901927 -0.275794
C40   C     C_3   0.004757 0.498746 0.803574 0.050065
C41   C     C_R   0.459509 0.508284 0.057493 0.031781
C42   C     C_R   0.320398 0.463827 0.110353 -0.251770
C43   C     C_R   0.216772 0.439815 0.070914 0.477166
C44   C     C_R   0.607569 0.615076 0.921060 -0.263564
C45   C     C_R   0.703585 0.655437 0.963969 0.465337
Cl1   Cl    Cl    0.045191 0.398417 0.151361 -0.557255
Cl2   Cl    Cl    0.971985 0.095512 0.490350 -0.621458
Cl3   Cl    Cl    0.136987 0.207520 0.619344 -0.482400
Cl4   Cl    Cl    0.640457 0.718425 0.672709 -0.663282
Cl5   Cl    Cl    0.224848 0.307554 0.367988 -0.602363
Cl6   Cl    Cl    0.995824 0.338147 0.974027 -0.509347
Cl7   Cl    Cl    0.630821 0.416765 0.765433 -0.550729
H1    H     H_    0.699316 0.895572 0.520784 0.198218
H2    H     H_    0.623963 0.647659 0.853251 0.226150
H3    H     H_    0.901326 0.822328 0.164692 0.143277
H4    H     H_    0.797025 0.870293 0.097674 0.150450
H5    H     H_    0.990320 0.882266 0.051734 0.218038
H6    H     H_    0.589030 0.842484 0.273962 0.154972
H7    H     H_    0.447692 0.906791 0.241666 0.181107
H8    H     H_    0.505322 0.748934 0.207270 0.187993
H9    H     H_    0.090132 0.811077 0.760855 0.186882
H10   H     H_    0.253346 0.857157 0.663086 0.176144
H11   H     H_    0.263276 0.746973 0.741782 0.198894
H12   H     H_    0.139026 0.891597 0.375496 0.208920
H13   H     H_    0.669598 0.884597 0.962492 0.159442
H14   H     H_    0.742286 0.836115 0.837132 0.201819
H15   H     H_    0.852489 0.918825 0.890011 0.212187
H16   H     H_    0.035396 0.594131 0.823340 0.154988
H17   H     H_    0.907660 0.466240 0.861005 0.196128
H18   H     H_    0.973629 0.505929 0.742400 0.197241
H19   H     H_    0.676391 0.120094 0.546626 0.233343
H20   H     H_    0.924690 0.340142 0.407734 0.208494
H21   H     H_    0.824408 0.907526 0.625903 0.239199
H22   H     H_    0.471757 0.411664 0.209835 0.195135
H23   H     H_    0.051246 0.900533 0.637911 0.192967
H24   H     H_    0.837166 0.618173 0.216923 0.186167
H25   H     H_    0.286060 0.454993 0.184854 0.201964
N1    N     N_R   0.856800 0.501200 0.500850 -0.122319
N2    N     N_R   0.142390 0.501280 0.500880 -0.115025
O1    O     O_R   0.385310 0.683220 0.500000 -0.553381
O2    O     O_3   0.381491 0.777911 0.347113 -0.585568
O3    O     O_3   0.174734 0.677439 0.647850 -0.581655
O4    O     O_3   0.817792 0.734030 0.919387 -0.603566
O5    O     O_3   0.117771 0.410089 0.779027 -0.537652
O6    O     O_R   0.614640 0.683250 0.500010 -0.616596
O7    O     O_R   0.319840 0.499980 0.632240 -0.510907
O8    O     O_R   0.549160 0.500000 0.632250 -0.514695
O9    O     O_R   0.385360 0.316750 0.499990 -0.549262
O10   O     O_R   0.614690 0.316780 0.500000 -0.617245
O11   O     O_R   0.450840 0.500000 0.367750 -0.566099
O12   O     O_R   0.680160 0.500020 0.367760 -0.614722
O13   O     O_3   0.914512 0.702634 0.048600 -0.568491
Zn1   Zn    Zn3+2 0.346880 0.499980 0.499990 1.102836
Zn2   Zn    Zn3+2 0.653120 0.500020 0.500010 1.040037

loop_
_geom_bond_atom_site_label_1
_geom_bond_atom_site_label_2
_ccdc_geom_bond_type
C27   C29   A    
C9    H12   S    
C41   C42   A    
C40   O5    S    
C27   N1    A    
C4    O8    A    
C12   C23   A    
C26   N1    A    
C40   H18   S    
C30   C35   A    
N2    Zn1   S    
C3    C7    A    
C5    C6    A    
C4    O7    A    
O8    Zn2   S    
C21   H21   S    
C23   C43   A    
C18   C19   A    
O10   Zn2   S    
C24   O3    S    
C8    C9    A    
C1    C15   S    
C9    C10   A    
C37   H6    S    
C38   H9    S    
C36   O13   S    
C6    C31   A    
C16   O10   A    
C13   C14   A    
C38   O3    S    
C39   H13   S    
C37   O2    S    
C11   Cl3   S    
C45   O4    S    
C34   C41   A    
C22   H23   S    
C43   Cl1   S    
C7    H22   S    
C29   Cl5   S    
C2    C45   A    
C1    O6    A    
C7    C31   A    
C40   H17   S    
C13   C19   A    
C8    O2    S    
C37   H8    S    
C34   C44   A    
C24   C25   A    
C36   H5    S    
C25   C26   A    
C32   Cl6   S    
C20   Cl4   S    
C36   H4    S    
O7    Zn1   S    
O6    Zn2   S    
C29   N2    A    
C17   C18   A    
C12   C35   A    
C37   H7    S    
C39   H14   S    
C22   C24   A    
C2    C5    A    
C42   C43   A    
C12   C34   A    
C17   H1    S    
C10   Cl2   S    
C44   C45   A    
O11   Zn1   S    
C38   H11   S    
C18   H19   S    
C15   C17   A    
O9    Zn1   S    
C3    C41   A    
C8    C14   A    
C30   C33   A    
C25   N2    A    
C39   H15   S    
C28   C31   S    
C6    H24   S    
C23   C32   A    
C2    C3    A    
C39   O4    S    
C36   H3    S    
C32   C33   A    
O12   Zn2   S    
C11   C13   A    
C20   C26   A    
N1    Zn2   S    
C16   C19   S    
C28   O12   A    
C33   O5    S    
C5    O13   S    
C10   C11   A    
C44   H2    S    
C20   C21   A    
C42   H25   S    
C40   H16   S    
C35   Cl7   S    
C16   O9    A    
C1    O1    A    
C14   C15   A    
C28   O11   A    
O1    Zn1   S    
C21   C22   A    
C4    C30   S    
C27   H20   S    
C38   H10   S    
