data_mof_unit_27371.cif
_audit_creation_date              2013-03-05T16:10:46-0500
_audit_creation_method            fapswitch 2.2
_symmetry_space_group_name_H-M    P1
_symmetry_Int_Tables_number       1
_space_group_crystal_system       triclinic
_cell_length_a                    22.423772
_cell_length_b                    7.090541
_cell_length_c                    19.562761
_cell_angle_alpha                 90.007168
_cell_angle_beta                  98.985073
_cell_angle_gamma                 90.003711
_cell_volume                      3072.24621646

loop_
_atom_site_label
_atom_site_type_symbol
_atom_site_description
_atom_site_fract_x
_atom_site_fract_y
_atom_site_fract_z
_atom_type_partial_charge
O1    O     O_R   0.443980 0.494320 0.557430 -0.573044
O2    O     O_R   0.556020 0.994320 0.442570 -0.573032
O3    O     O_R   0.441210 0.822520 0.414610 -0.591847
O4    O     O_R   0.558790 0.322520 0.585390 -0.591878
C1    C     C_R   0.426612 0.655183 0.389554 0.929510
C2    C     C_R   0.573386 0.155221 0.610448 0.929537
O5    O     O_R   0.436920 0.823940 0.555180 -0.580204
O6    O     O_R   0.563080 0.323940 0.444820 -0.580215
O7    O     O_R   0.551700 0.995760 0.584140 -0.589467
O8    O     O_R   0.448300 0.495760 0.415860 -0.589477
C3    C     C_R   0.421541 0.655348 0.574782 0.948005
C4    C     C_R   0.578459 0.155344 0.425218 0.948040
O9    O     O_3   0.537660 0.661290 0.509340 -0.273692
O10   O     O_3   0.462340 0.161290 0.490660 -0.273686
V1    V     V_3+5 0.493010 0.935560 0.498270 1.212939
V2    V     V_3+5 0.506990 0.435560 0.501730 1.212926
C5    C     C_R   0.758087 0.935743 0.214826 -0.279068
C6    C     C_R   0.241910 0.435761 0.785165 -0.279235
H1    H     H_    0.763705 0.807353 0.186456 0.171381
H2    H     H_    0.236294 0.307383 0.813532 0.171388
C7    C     C_R   0.795090 0.091125 0.206806 0.111720
C8    C     C_R   0.204905 0.591126 0.793188 0.111735
C9    C     C_R   0.788257 0.256575 0.243977 -0.123071
C10   C     C_R   0.211736 0.756560 0.756020 -0.122950
H3    H     H_    0.816323 0.378291 0.238444 0.141902
H4    H     H_    0.183670 0.878266 0.761555 0.141882
C11   C     C_R   0.745091 0.266768 0.288612 -0.104466
C12   C     C_R   0.254904 0.766751 0.711386 -0.104430
H5    H     H_    0.740621 0.396718 0.316512 0.184444
H6    H     H_    0.259373 0.896688 0.683489 0.184432
C13   C     C_R   0.707848 0.111884 0.297141 -0.038276
C14   C     C_R   0.292149 0.611882 0.702855 -0.038295
C15   C     C_R   0.714562 0.943033 0.259903 0.354033
C16   C     C_R   0.285435 0.443048 0.740089 0.354012
C17   C     C_1   0.840267 0.080015 0.160836 0.035740
C18   C     C_1   0.159728 0.580014 0.839157 0.035732
C19   C     C_1   0.662373 0.131544 0.342636 0.151480
C20   C     C_1   0.337625 0.631544 0.657362 0.151480
C21   C     C_1   0.624314 0.144970 0.380429 -0.211048
C22   C     C_1   0.375685 0.644977 0.619571 -0.211055
C23   C     C_1   0.878069 0.070950 0.122601 -0.263086
C24   C     C_1   0.121927 0.570941 0.877394 -0.263059
C25   C     C_R   0.626164 0.158365 0.801424 -0.140974
C26   C     C_R   0.373929 0.655243 0.198557 -0.140925
H7    H     H_    0.540854 0.181969 0.735627 0.134689
H8    H     H_    0.459241 0.678969 0.264349 0.134726
H9    H     H_    0.701516 0.142346 0.915757 0.148638
H10   H     H_    0.298630 0.637288 0.084220 0.148647
H11   H     H_    0.605605 0.171293 0.847820 0.130445
H12   H     H_    0.394536 0.666667 0.152148 0.130460
C27   C     C_R   0.613902 0.147226 0.677048 -0.108380
C28   C     C_R   0.386101 0.646963 0.322956 -0.108322
C29   C     C_R   0.907380 0.058270 0.764904 -0.284395
C30   C     C_R   0.092537 0.560524 0.235116 -0.284500
C31   C     C_R   0.872532 0.063958 0.699390 0.420740
C32   C     C_R   0.127352 0.567277 0.300635 0.420760
C33   C     C_R   0.809922 0.084498 0.693673 -0.275854
C34   C     C_R   0.189993 0.586899 0.306347 -0.275888
C35   C     C_R   0.780536 0.099292 0.752429 0.003943
C36   C     C_R   0.219442 0.599685 0.247583 0.003923
C37   C     C_R   0.816776 0.093609 0.820217 0.056905
C38   C     C_R   0.183238 0.592797 0.179791 0.056888
C39   C     C_R   0.715946 0.119832 0.745236 0.124321
C40   C     C_R   0.284056 0.619475 0.254771 0.124330
C41   C     C_R   0.688859 0.136206 0.805650 0.109374
C42   C     C_R   0.311205 0.633898 0.194342 0.109329
C43   C     C_R   0.723862 0.130189 0.870568 -0.234056
C44   C     C_R   0.276239 0.626647 0.129420 -0.234011
C45   C     C_R   0.786443 0.108360 0.879184 0.253415
C46   C     C_R   0.213634 0.605478 0.120817 0.253566
C47   C     C_R   0.676662 0.124981 0.680356 -0.216902
C48   C     C_R   0.323307 0.625666 0.319660 -0.216879
C49   C     C_R   0.589111 0.164331 0.737689 -0.147077
C50   C     C_R   0.410954 0.662171 0.262297 -0.147175
C51   C     C_R   0.881411 0.072844 0.825149 -0.197358
C52   C     C_R   0.118570 0.573082 0.174862 -0.197295
H13   H     H_    0.692767 0.112617 0.631515 0.109709
H14   H     H_    0.307158 0.614639 0.368515 0.109647
H15   H     H_    0.955927 0.042386 0.769336 0.164795
H16   H     H_    0.043961 0.545472 0.230686 0.164777
H17   H     H_    0.785159 0.088835 0.642082 0.169418
H18   H     H_    0.214729 0.592212 0.357940 0.169414
O11   O     O_R   0.051730 0.724670 0.084120 -0.587928
O12   O     O_R   0.948270 0.224670 0.915880 -0.588035
O13   O     O_R   0.063080 0.393540 0.944820 -0.589802
O14   O     O_R   0.936920 0.893540 0.055180 -0.589872
C53   C     C_R   0.076644 0.561719 0.922970 0.978928
C54   C     C_R   0.923354 0.061726 0.077028 0.978876
O15   O     O_R   0.058800 0.395030 0.085390 -0.589787
O16   O     O_R   0.941200 0.895030 0.914610 -0.589715
O17   O     O_R   0.943980 0.223310 0.057440 -0.588124
O18   O     O_R   0.056020 0.723310 0.942560 -0.588180
C55   C     C_R   0.074696 0.564093 0.109585 0.971159
C56   C     C_R   0.925295 0.064062 0.890422 0.971141
O19   O     O_3   0.962360 0.556290 0.990650 -0.279875
O20   O     O_3   0.037640 0.056290 0.009350 -0.279767
V3    V     V_3+5 0.006980 0.281990 0.001730 1.173780
V4    V     V_3+5 0.993020 0.781990 0.998270 1.173995
N1    N     N_R   0.677971 0.778881 0.266645 0.227009
O21   O     O_R   0.658070 0.742886 0.324285 -0.415201
O22   O     O_R   0.668739 0.655188 0.216947 -0.416721
N2    N     N_R   0.322028 0.278910 0.733345 0.227002
O23   O     O_R   0.341926 0.242882 0.675701 -0.415222
O24   O     O_R   0.331263 0.155255 0.783041 -0.416692
N3    N     N_R   0.900891 0.048888 0.638304 0.249597
O25   O     O_R   0.959166 0.029838 0.643530 -0.352325
O26   O     O_R   0.868804 0.053862 0.576839 -0.359739
N4    N     N_R   0.098926 0.554355 0.361731 0.249608
O27   O     O_R   0.040611 0.536560 0.356511 -0.352301
O28   O     O_R   0.130990 0.560108 0.423200 -0.359757
C57   C     C_3   0.817633 0.101134 0.952755 -1.003475
H19   H     H_    0.848601 0.222927 0.962892 0.255293
H20   H     H_    0.785869 0.111482 0.990877 0.246966
H21   H     H_    0.840881 0.963771 0.962358 0.245034
C58   C     C_3   0.182479 0.596778 0.047254 -1.003886
H22   H     H_    0.159034 0.459604 0.038039 0.246246
H23   H     H_    0.151689 0.718870 0.036735 0.254144
H24   H     H_    0.214287 0.605421 0.009134 0.247019

loop_
_geom_bond_atom_site_label_1
_geom_bond_atom_site_label_2
_geom_bond_distance
_ccdc_geom_bond_type
C25   C49   1.386782 A    
C42   C44   1.385422 A    
C39   C41   1.415416 A    
C11   H5    1.083478 S    
C18   C24   1.216636 T    
C57   H19   1.106424 S    
O1    C3    1.313541 A    
H8    C50   1.083792 S    
O2    C4    1.313532 A    
C2    O7    1.304367 A    
O19   V4    1.738894 S    
O18   V4    1.958943 S    
C37   C51   1.444988 A    
O5    C3    1.317703 A    
N3    O26   1.301744 A    
C16   N2    1.441901 S    
C5    C15   1.414797 A    
C31   N3    1.442628 S    
O12   V3    2.007010 S    
C36   C38   1.443585 A    
C29   H15   1.084367 S    
C10   H4    1.083438 S    
C28   C50   1.391748 A    
C34   H18   1.073724 S    
O14   C54   1.318280 A    
C33   C35   1.415254 A    
C37   C45   1.431565 A    
C58   H22   1.106896 S    
O11   C55   1.315227 A    
N4    O27   1.301756 A    
C38   C46   1.431543 A    
H7    C49   1.083792 S    
C32   N4    1.442634 S    
C48   H14   1.076481 S    
C26   C42   1.404178 A    
N4    O28   1.301742 A    
C41   C43   1.385417 A    
O11   V4    2.007132 S    
O20   V4    2.182374 S    
C13   C15   1.421551 A    
C1    C28   1.468434 S    
C9    C11   1.403068 A    
C2    C27   1.468457 S    
O6    C4    1.317684 A    
O13   C53   1.318298 A    
O6    V2    1.971060 S    
C53   O18   1.314856 A    
C38   C52   1.444970 A    
C29   C51   1.397532 A    
C27   C47   1.407569 A    
O14   V4    1.971024 S    
H9    C43   1.085517 S    
O17   V3    1.958958 S    
O16   C56   1.317214 A    
C30   H16   1.084371 S    
C29   C31   1.393559 A    
C30   C32   1.393570 A    
C35   C37   1.443605 A    
C11   C13   1.405275 A    
N2    O23   1.301191 A    
C27   C49   1.391755 A    
C12   C14   1.405276 A    
O4    C2    1.305634 A    
C25   H11   1.084158 S    
O5    V1    1.971109 S    
C58   H23   1.106445 S    
C5    C7    1.402679 A    
C13   C19   1.461112 S    
O15   V3    2.019089 S    
C43   C45   1.395621 A    
C14   C16   1.421543 A    
O4    V2    2.019112 S    
N2    O24   1.301587 A    
C28   C48   1.407562 A    
C52   C55   1.486695 S    
N1    O21   1.301159 A    
C54   O17   1.314842 A    
C25   C41   1.404173 A    
C58   H24   1.111190 S    
O20   V3    1.739011 S    
C57   H20   1.111214 S    
O1    V2    1.959114 S    
O12   C56   1.315277 A    
H10   C44   1.085516 S    
C26   C50   1.386788 A    
O2    V1    1.959132 S    
C6    C16   1.414797 A    
C30   C52   1.397522 A    
N1    O22   1.301609 A    
C39   C47   1.427952 A    
C14   C20   1.461120 S    
C31   C33   1.398493 A    
C8    C10   1.401104 A    
C47   H13   1.076472 S    
O3    V1    2.018890 S    
C26   H12   1.084161 S    
C23   C54   1.453645 S    
C6    C8    1.402685 A    
C10   C12   1.403084 A    
O3    C1    1.305717 A    
O19   V3    2.182538 S    
C7    C17   1.457992 S    
C46   C58   1.499592 S    
C8    C18   1.458001 S    
N3    O25   1.301767 A    
C35   C39   1.440524 A    
C36   C40   1.440521 A    
C4    C21   1.453210 S    
C7    C9    1.401108 A    
O7    V1    2.011293 S    
C1    O8    1.304292 A    
C19   C21   1.216999 T    
O8    V2    2.011420 S    
C20   C22   1.217003 T    
C45   C57   1.499613 S    
C12   H6    1.083461 S    
C5    H1    1.083688 S    
C32   C34   1.398509 A    
C57   H21   1.106894 S    
C6    H2    1.083675 S    
C40   C48   1.427935 A    
O15   C55   1.317265 A    
C3    C22   1.453223 S    
C17   C23   1.216632 T    
C33   H17   1.073721 S    
O13   V3    1.971072 S    
C9    H3    1.083433 S    
C44   C46   1.395626 A    
O9    V2    1.739170 S    
O10   V1    1.739287 S    
C24   C53   1.453649 S    
C15   N1    1.441899 S    
C34   C36   1.415254 A    
O16   V4    2.019313 S    
C51   C56   1.486707 S    
C40   C42   1.415418 A    
