data_mof_unit_29188.cif
_audit_creation_date              2012-12-11T14:54:18-0500
_audit_creation_method            fapswitch 2.2
_symmetry_space_group_name_H-M    P1
_symmetry_Int_Tables_number       1
_space_group_crystal_system       triclinic
_cell_length_a                    19.028615
_cell_length_b                    11.161394
_cell_length_c                    18.65524
_cell_angle_alpha                 89.611626
_cell_angle_beta                  89.931888
_cell_angle_gamma                 89.559779
_cell_volume                      3961.89883694

loop_
_atom_site_label
_atom_site_type_symbol
_atom_type_description
_atom_site_fract_x
_atom_site_fract_y
_atom_site_fract_z
_atom_type_partial_charge
C1    C     C_R   0.732124 0.376905 0.646600 0.566496
C2    C     C_R   0.283483 0.341876 0.362137 0.581470
C3    C     C_R   0.213668 0.833848 0.637109 0.556940
C4    C     C_R   0.767906 0.876996 0.353131 0.561203
C5    C     C_3   0.575304 0.264529 0.406349 0.009848
C6    C     C_3   0.612926 0.271726 0.477985 -0.070819
C7    C     C_3   0.936442 0.853549 0.473758 -0.006934
C8    C     C_3   0.959943 0.857979 0.551494 0.001188
C9    C     C_R   0.671474 0.910886 0.528272 0.094856
C10   C     C_R   0.292661 0.815156 0.446128 0.122810
C11   C     C_R   0.194711 0.356507 0.543604 0.109550
C12   C     C_R   0.822400 0.397865 0.467194 0.122983
C13   C     C_R   0.679784 0.880573 0.455199 0.052720
C14   C     C_R   0.286322 0.798713 0.521534 0.092689
C15   C     C_R   0.203097 0.335940 0.469930 0.116228
C16   C     C_R   0.812734 0.361815 0.539423 0.053529
C17   C     C_R   0.736059 0.931651 0.416707 0.005788
C18   C     C_R   0.225607 0.845284 0.557910 0.000582
C19   C     C_R   0.268068 0.368294 0.436756 0.021549
C20   C     C_R   0.764095 0.427645 0.581758 0.019478
C21   C     C_R   0.762559 0.038328 0.440462 0.087675
C22   C     C_R   0.172515 0.898264 0.515754 0.055552
C23   C     C_R   0.324098 0.409530 0.479217 0.063011
C24   C     C_R   0.743970 0.541609 0.559438 0.116293
C25   C     C_R   0.756037 0.067163 0.512452 -0.150639
C26   C     C_R   0.176051 0.901596 0.442122 -0.107061
C27   C     C_R   0.316697 0.419316 0.551391 -0.108822
C28   C     C_R   0.746211 0.570129 0.486604 -0.131599
C29   C     C_R   0.720954 0.992019 0.560336 -0.032852
C30   C     C_R   0.239475 0.879270 0.408462 0.006491
C31   C     C_R   0.251773 0.404882 0.582645 -0.007632
C32   C     C_R   0.777750 0.490637 0.438161 -0.032438
C33   C     C_R   0.501164 0.055487 0.963487 -0.129562
C34   C     C_R   0.496777 0.055294 0.036256 -0.128124
C35   C     C_R   0.001041 0.555471 0.963429 -0.129782
C36   C     C_R   0.996644 0.555286 0.036196 -0.127779
C37   C     C_R   0.492145 0.163291 0.073596 0.029968
C38   C     C_R   0.506733 0.163535 0.925805 0.027458
C39   C     C_R   0.991991 0.663291 0.073525 0.028311
C40   C     C_R   0.006610 0.663523 0.925745 0.028064
C41   C     C_R   0.495533 0.272871 0.036511 -0.126478
C42   C     C_R   0.503660 0.272987 0.962399 -0.127013
C43   C     C_R   0.995299 0.772871 0.036425 -0.128297
C44   C     C_R   0.003447 0.772982 0.962319 -0.126022
C45   C     C_R   0.558685 0.152193 0.638236 0.534385
C46   C     C_R   0.435785 0.149816 0.361156 0.562839
C47   C     C_R   0.063606 0.652837 0.639425 0.561056
C48   C     C_R   0.967202 0.655904 0.353316 0.563779
C49   C     C_R   0.782546 0.051626 0.978477 -0.137865
C50   C     C_R   0.215971 0.049770 0.021087 -0.137934
C51   C     C_R   0.282543 0.551614 0.978458 -0.138237
C52   C     C_R   0.716021 0.549854 0.021055 -0.137548
C53   C     C_R   0.789796 0.023277 0.050156 -0.132351
C54   C     C_R   0.208805 0.021310 0.949650 -0.136399
C55   C     C_R   0.289807 0.523180 0.050119 -0.137088
C56   C     C_R   0.708876 0.521416 0.949608 -0.133443
C57   C     C_R   0.743287 0.942980 0.083650 0.017328
C58   C     C_R   0.256011 0.941174 0.916540 0.014450
C59   C     C_R   0.243304 0.442848 0.083596 0.013406
C60   C     C_R   0.756039 0.441170 0.916527 0.016318
C61   C     C_R   0.681697 0.907956 0.046868 0.031328
C62   C     C_R   0.317792 0.905549 0.953624 0.029420
C63   C     C_R   0.181720 0.407790 0.046793 0.030173
C64   C     C_R   0.817777 0.405411 0.953647 0.030168
C65   C     C_R   0.676181 0.934825 0.973511 -0.137487
C66   C     C_R   0.323255 0.932637 0.026762 -0.137579
C67   C     C_R   0.176195 0.434770 0.973458 -0.137858
C68   C     C_R   0.823214 0.432484 0.026789 -0.136057
C69   C     C_R   0.728654 0.001102 0.938521 -0.013363
C70   C     C_R   0.270490 0.999568 0.061309 -0.009360
C71   C     C_R   0.228652 0.501110 0.938498 -0.011688
C72   C     C_R   0.770482 0.499527 0.061308 -0.011087
C73   C     C_R   0.725834 0.018685 0.639122 0.556245
C74   C     C_R   0.255526 0.957285 0.346134 0.578602
C75   C     C_R   0.241703 0.466266 0.649541 0.556833
C76   C     C_R   0.773989 0.519180 0.360425 0.562408
C77   C     C_R   0.731430 0.382202 0.850731 0.566934
C78   C     C_R   0.268487 0.382551 0.149342 0.569198
C79   C     C_R   0.231425 0.882197 0.850736 0.574725
C80   C     C_R   0.768474 0.882608 0.149372 0.568064
C81   C     C_R   0.532722 0.156767 0.853198 0.563771
C82   C     C_R   0.467004 0.156694 0.146580 0.570646
C83   C     C_R   0.032693 0.656767 0.853176 0.567222
C84   C     C_R   0.966961 0.656692 0.146551 0.552516
C85   C     C_R   0.726689 0.022408 0.861111 0.556085
C86   C     C_R   0.272950 0.022205 0.138447 0.549557
C87   C     C_R   0.226684 0.522432 0.861102 0.553687
C88   C     C_R   0.772943 0.522182 0.138444 0.555330
C89   C     C_R   0.462897 0.152715 0.433562 0.024316
C90   C     C_R   0.525628 0.163249 0.568949 0.040831
C91   C     C_R   0.006644 0.672753 0.418600 0.015798
C92   C     C_R   0.047876 0.668314 0.563049 -0.007551
C93   C     C_R   0.534108 0.169180 0.440659 0.042332
C94   C     C_R   0.566882 0.171489 0.506464 -0.062630
C95   C     C_R   0.997678 0.774156 0.461916 -0.010780
C96   C     C_R   0.021545 0.776161 0.532409 0.005916
C97   C     C_R   0.452668 0.144398 0.563730 0.141841
C98   C     C_R   0.421896 0.135402 0.495597 0.037850
C99   C     C_R   0.045846 0.567357 0.519929 0.095057
C100  C     C_R   0.049307 0.582674 0.445409 0.102241
Cr1   Cr    Cr6+3 0.771950 0.169480 0.750100 1.094716
Cr2   Cr    Cr6+3 0.228050 0.169480 0.249900 1.096451
Cr3   Cr    Cr6+3 0.271950 0.669480 0.750100 1.089677
Cr4   Cr    Cr6+3 0.728050 0.669480 0.249900 1.094201
Cr5   Cr    Cr6+3 0.614930 0.323340 0.749170 1.077023
Cr6   Cr    Cr6+3 0.385070 0.323340 0.250830 1.074250
Cr7   Cr    Cr6+3 0.114930 0.823340 0.749170 1.072451
Cr8   Cr    Cr6+3 0.885070 0.823340 0.250830 1.069410
Cr9   Cr    Cr6+3 0.616590 0.010620 0.750610 1.083964
Cr10  Cr    Cr6+3 0.383410 0.010620 0.249390 1.076302
Cr11  Cr    Cr6+3 0.116590 0.510620 0.750610 1.075090
Cr12  Cr    Cr6+3 0.883410 0.510620 0.249390 1.088345
H1    H     H_    0.821342 0.108441 0.953451 0.183889
H2    H     H_    0.176790 0.106784 0.045711 0.185589
H3    H     H_    0.321328 0.608480 0.953449 0.184103
H4    H     H_    0.676877 0.606973 0.045657 0.184853
H5    H     H_    0.835384 0.057769 0.077695 0.171096
H6    H     H_    0.162892 0.056009 0.921950 0.168922
H7    H     H_    0.335396 0.557666 0.077658 0.169181
H8    H     H_    0.663011 0.556221 0.921872 0.169724
H9    H     H_    0.631162 0.903635 0.943701 0.163994
H10   H     H_    0.368569 0.901306 0.056745 0.163666
H11   H     H_    0.131181 0.403597 0.943633 0.164334
H12   H     H_    0.868488 0.401053 0.056799 0.163865
H13   H     H_    0.885277 0.808660 0.464874 0.133849
H14   H     H_    0.972868 0.949897 0.566835 0.201193
H15   H     H_    0.544557 0.346018 0.393852 0.198946
H16   H     H_    0.669385 0.248443 0.474579 0.137175
H17   H     H_    0.769737 0.153740 0.529355 0.138085
H18   H     H_    0.134166 0.946624 0.412936 0.195625
H19   H     H_    0.361118 0.449305 0.582693 0.198315
H20   H     H_    0.724649 0.654173 0.468127 0.152116
H21   H     H_    0.504395 0.969287 0.937479 0.187002
H22   H     H_    0.493125 0.968907 0.062566 0.186765
H23   H     H_    0.004314 0.469266 0.937431 0.186911
H24   H     H_    0.993046 0.468898 0.062519 0.187220
H25   H     H_    0.490563 0.357384 0.064329 0.151968
H26   H     H_    0.509146 0.357577 0.934227 0.151333
H27   H     H_    0.990282 0.857389 0.064230 0.151113
H28   H     H_    0.008904 0.857570 0.934138 0.152246
O1    O     O_R   0.787510 0.042610 0.670410 -0.442682
O2    O     O_R   0.212490 0.042610 0.329590 -0.494511
O3    O     O_R   0.287510 0.542610 0.670410 -0.506280
O4    O     O_R   0.712490 0.542610 0.329590 -0.458151
O5    O     O_R   0.556450 0.252890 0.823790 -0.500054
O6    O     O_R   0.443550 0.252890 0.176210 -0.496126
O7    O     O_R   0.056450 0.752890 0.823790 -0.498466
O8    O     O_R   0.943550 0.752890 0.176210 -0.502334
O9    O     O_R   0.545750 0.051070 0.830560 -0.517824
O10   O     O_R   0.454250 0.051070 0.169440 -0.518720
O11   O     O_R   0.045750 0.551070 0.830560 -0.517847
O12   O     O_R   0.954250 0.551070 0.169440 -0.523816
O13   O     O_R   0.681210 0.959150 0.825320 -0.485879
O14   O     O_R   0.318790 0.959150 0.174680 -0.502199
O15   O     O_R   0.181210 0.459150 0.825320 -0.495273
O16   O     O_R   0.818790 0.459150 0.174680 -0.484850
O17   O     O_3   0.667820 0.167810 0.749960 -0.353171
O18   O     O_3   0.332180 0.167810 0.250040 -0.339543
O19   O     O_3   0.167820 0.667810 0.749960 -0.354229
O20   O     O_3   0.832180 0.667810 0.250040 -0.339017
O21   O     O_R   0.765670 0.292090 0.675090 -0.499494
O22   O     O_R   0.234330 0.292090 0.324910 -0.453143
O23   O     O_R   0.265670 0.792090 0.675090 -0.453004
O24   O     O_R   0.734330 0.792090 0.324910 -0.500412
O25   O     O_R   0.670220 0.409020 0.668560 -0.461360
O26   O     O_R   0.329780 0.409020 0.331440 -0.462575
O27   O     O_R   0.170220 0.909020 0.668560 -0.454823
O28   O     O_R   0.829780 0.909020 0.331440 -0.464430
O29   O     O_R   0.556580 0.251590 0.674980 -0.462644
O30   O     O_R   0.443420 0.251590 0.325020 -0.492994
O31   O     O_R   0.056580 0.751590 0.674980 -0.482476
O32   O     O_R   0.943420 0.751590 0.325020 -0.493062
O33   O     O_R   0.545890 0.049670 0.670030 -0.462504
O34   O     O_R   0.454110 0.049670 0.329970 -0.446686
O35   O     O_R   0.045890 0.549670 0.670030 -0.432132
O36   O     O_R   0.954110 0.549670 0.329970 -0.469986
O37   O     O_R   0.681340 0.957860 0.676500 -0.457194
O38   O     O_R   0.318660 0.957860 0.323500 -0.480731
O39   O     O_R   0.181340 0.457860 0.676500 -0.491326
O40   O     O_R   0.818660 0.457860 0.323500 -0.448581
O41   O     O_R   0.787380 0.044010 0.830940 -0.483341
O42   O     O_R   0.212620 0.044010 0.169060 -0.500286
O43   O     O_R   0.287380 0.544010 0.830940 -0.494468
O44   O     O_R   0.712620 0.544010 0.169060 -0.484170
O45   O     O_R   0.765540 0.293390 0.823910 -0.479546
O46   O     O_R   0.234460 0.293390 0.176090 -0.475851
O47   O     O_R   0.265540 0.793390 0.823910 -0.474337
O48   O     O_R   0.734460 0.793390 0.176090 -0.480817
O49   O     O_R   0.670090 0.410410 0.829090 -0.520515
O50   O     O_R   0.329910 0.410410 0.170910 -0.519740
O51   O     O_R   0.170090 0.910410 0.829090 -0.520231
O52   O     O_R   0.829910 0.910410 0.170910 -0.514653
I1    I     I_    0.389144 0.137500 0.659618 -0.175940
I2    I     I_    0.314744 0.102632 0.489613 -0.345601
I3    I     I_    0.944830 0.522157 0.556480 -0.245423
I4    I     I_    0.147973 0.592537 0.394367 -0.349216
C101  C     C_2   0.621937 0.848044 0.083235 0.552320
O53   O     O_2   0.584690 0.778927 0.050053 -0.543041
O54   O     O_R   0.605468 0.876191 0.154289 -0.648929
H29   H     H_    0.562802 0.831527 0.172631 0.347041
C102  C     C_2   0.377904 0.845057 0.917768 0.549460
O55   O     O_2   0.415562 0.775662 0.951558 -0.542498
O56   O     O_R   0.394264 0.873022 0.846502 -0.647595
H30   H     H_    0.437261 0.828068 0.828601 0.346992
C103  C     C_2   0.121963 0.347699 0.083076 0.551299
O57   O     O_2   0.084735 0.278690 0.049788 -0.542771
O58   O     O_R   0.105445 0.375579 0.154153 -0.651539
H31   H     H_    0.062780 0.330810 0.172407 0.347252
C104  C     C_2   0.877871 0.344752 0.917843 0.549757
O59   O     O_2   0.915516 0.275434 0.951706 -0.541565
O60   O     O_R   0.894240 0.372469 0.846545 -0.651210
H32   H     H_    0.937184 0.327332 0.828674 0.347435
I5    I     I_    0.615839 0.196146 0.307933 -0.198076
I6    I     I_    0.588068 0.438597 0.528636 -0.262066
I7    I     I_    0.958548 0.012614 0.414744 -0.204339
I8    I     I_    0.887662 0.801329 0.631512 -0.211038
I9    I     I_    0.577045 0.844515 0.578141 -0.139920
I10   I     I_    0.385969 0.757910 0.390603 -0.137383
I11   I     I_    0.094807 0.317098 0.593587 -0.126887
I12   I     I_    0.918943 0.335872 0.414945 -0.111186
I13   I     I_    0.600251 0.779387 0.399548 -0.156447
I14   I     I_    0.378031 0.733223 0.577109 -0.147674
I15   I     I_    0.114611 0.262210 0.412266 -0.126629
I16   I     I_    0.887127 0.232397 0.588816 -0.168110
I17   I     I_    0.787875 0.162978 0.359523 -0.203467
I18   I     I_    0.103396 0.026411 0.553272 -0.233570
I19   I     I_    0.424455 0.461238 0.445029 -0.241047
I20   I     I_    0.715654 0.666351 0.639268 -0.172093

loop_
_geom_bond_atom_site_label_1
_geom_bond_atom_site_label_2
_ccdc_geom_bond_type
C58   C62   A    
C49   H1    S    
O56   H30   S    
C66   H10   S    
C93   C94   A    
C55   C59   A    
C42   H26   S    
C34   C37   A    
C77   O45   A    
C41   C42   A    
C14   C18   A    
C19   C23   A    
C95   C96   A    
C78   O50   A    
C25   H17   S    
Cr2   O18   S    
C97   C98   A    
Cr1   O41   S    
C7    C8    S    
C46   C89   S    
C55   H7    S    
C103  O57   D    
C15   C19   A    
Cr2   O46   S    
C79   O47   A    
C37   C41   A    
Cr11  O35   S    
Cr6   O26   S    
C63   C103  S    
C39   C84   S    
C38   C42   A    
C87   O43   A    
C5    C6    S    
C30   C74   S    
C53   H5    S    
C88   O44   A    
C29   C73   S    
Cr10  O38   S    
C99   I3    S    
Cr10  O14   S    
C92   C96   A    
C27   H19   S    
C98   I2    S    
C3    C18   S    
C46   O34   A    
C102  O55   D    
C100  I4    S    
C97   I1    S    
C101  O54   S    
C9    C13   A    
Cr3   O23   S    
Cr11  O19   S    
C72   C88   S    
C48   O32   A    
C11   C15   A    
Cr5   O17   S    
C35   C36   A    
C6    C94   S    
C48   C91   S    
C8    C96   S    
C40   C44   A    
Cr12  O12   S    
C43   H27   S    
C78   O46   A    
C65   H9    S    
C91   C100  A    
C75   O39   A    
Cr8   O20   S    
C2    O26   A    
C90   C97   A    
C67   C71   A    
C26   H18   S    
C9    C29   A    
C63   C67   A    
Cr12  O40   S    
C73   O37   A    
C83   O7    A    
C52   H4    S    
Cr8   O28   S    
C1    O21   A    
O54   H29   S    
C44   H28   S    
C79   O51   A    
C12   C32   A    
Cr11  O39   S    
C102  O56   S    
C40   C83   S    
C2    O22   A    
Cr1   O1    S    
Cr4   O20   S    
C47   C92   S    
Cr1   O45   S    
C45   O29   A    
C36   H24   S    
C59   C78   S    
C82   O6    A    
Cr9   O17   S    
C90   C94   A    
C83   O11   A    
C12   I12   S    
C81   O9    A    
C25   C29   A    
Cr4   O48   S    
Cr7   O19   S    
Cr7   O27   S    
C60   C77   S    
C59   C63   A    
C7    I7    S    
C62   C66   A    
Cr6   O30   S    
C27   C31   A    
O58   H31   S    
Cr2   O42   S    
C12   C16   A    
C28   C32   A    
Cr3   O47   S    
C104  O59   D    
C10   C14   A    
C61   C101  S    
C53   C57   A    
C73   O1    A    
Cr9   O13   S    
C51   C55   A    
C8    I8    S    
Cr6   O18   S    
C91   C95   A    
C89   C93   A    
C51   H3    S    
C4    O28   A    
C67   H11   S    
C68   C72   A    
C50   H2    S    
C84   O8    A    
Cr9   O9    S    
C43   C44   A    
C62   C102  S    
C32   C76   S    
C52   C72   A    
C45   O33   A    
Cr7   O7    S    
C10   C30   A    
C47   O31   A    
C99   C100  A    
C74   O38   A    
C1    O25   A    
C16   C20   A    
Cr5   O5    S    
C68   H12   S    
C5    H15   S    
C4    O24   A    
C33   C34   A    
C80   O48   A    
Cr11  O11   S    
C11   C31   A    
C85   O13   A    
C7    H13   S    
C45   C90   S    
C82   O10   A    
C46   O30   A    
C75   O3    A    
C58   C79   S    
C71   C87   S    
C4    C17   S    
C84   O12   A    
C8    H14   S    
Cr12  O36   S    
C57   C80   S    
C26   C30   A    
C23   C27   A    
C54   H6    S    
C38   C81   S    
Cr12  O16   S    
Cr5   O29   S    
Cr2   O2    S    
Cr3   O43   S    
C37   C82   S    
C16   I16   S    
C11   I11   S    
Cr6   O50   S    
C35   H23   S    
C70   C86   S    
C64   C68   A    
C31   C75   S    
C69   C85   S    
Cr2   O22   S    
C10   I10   S    
C54   C58   A    
C9    I9    S    
C2    C19   S    
C65   C69   A    
C21   C25   A    
C1    C20   S    
C85   O41   A    
Cr12  O20   S    
Cr4   O44   S    
C22   I18   S    
C18   C22   A    
C41   H25   S    
C14   I14   S    
C36   C39   A    
C24   C28   A    
C13   I13   S    
Cr10  O10   S    
Cr10  O18   S    
Cr4   O24   S    
C5    C93   S    
C7    C95   S    
C51   C71   A    
C57   C61   A    
C56   H8    S    
Cr7   O31   S    
C3    O23   A    
C21   I17   S    
C66   C70   A    
C81   O5    A    
C33   C38   A    
Cr6   O6    S    
C13   C17   A    
C89   C98   A    
C60   C64   A    
C77   O49   A    
C23   I19   S    
Cr1   O21   S    
C35   C40   A    
C86   O14   A    
C6    H16   S    
C50   C54   A    
C24   I20   S    
Cr3   O3    S    
Cr3   O19   S    
C50   C70   A    
Cr10  O34   S    
Cr8   O32   S    
C49   C53   A    
C5    I5    S    
C76   O4    A    
C104  O60   S    
Cr5   O49   S    
Cr5   O25   S    
Cr9   O33   S    
C61   C65   A    
C15   I15   S    
C101  O53   D    
C64   C104  S    
C17   C21   A    
Cr4   O4    S    
C80   O52   A    
Cr1   O17   S    
O60   H32   S    
C33   H21   S    
C3    O27   A    
C74   O2    A    
C56   C60   A    
C39   C43   A    
C22   C26   A    
Cr7   O51   S    
C6    I6    S    
C86   O42   A    
Cr9   O37   S    
C34   H22   S    
Cr8   O52   S    
C49   C69   A    
C88   O16   A    
C28   H20   S    
C76   O40   A    
C103  O58   S    
Cr11  O15   S    
C20   C24   A    
C47   O35   A    
C87   O15   A    
C52   C56   A    
C92   C99   A    
C48   O36   A    
Cr8   O8    S    
