data_mof_unit_65915.cif
_audit_creation_date              2013-03-05T15:41:24-0500
_audit_creation_method            fapswitch 2.2
_symmetry_space_group_name_H-M    P1
_symmetry_Int_Tables_number       1
_space_group_crystal_system       triclinic
_cell_length_a                    18.517838
_cell_length_b                    18.517727
_cell_length_c                    34.440328
_cell_angle_alpha                 90.001653
_cell_angle_beta                  90.000222
_cell_angle_gamma                 90.003879
_cell_volume                      11809.8732164

loop_
_atom_site_label
_atom_site_type_symbol
_atom_site_description
_atom_site_fract_x
_atom_site_fract_y
_atom_site_fract_z
_atom_type_partial_charge
Zn1   Zn    Zn3+2 0.414160 0.000000 0.467250 0.961812
Zn2   Zn    Zn3+2 0.000000 0.414160 0.467250 0.961709
Zn3   Zn    Zn3+2 0.585840 0.000000 0.467250 0.961756
Zn4   Zn    Zn3+2 0.000000 0.585840 0.467250 0.961812
Zn5   Zn    Zn3+2 0.914160 0.500000 0.967250 0.962033
Zn6   Zn    Zn3+2 0.500000 0.914160 0.967250 0.961930
Zn7   Zn    Zn3+2 0.085840 0.500000 0.967250 0.961974
Zn8   Zn    Zn3+2 0.500000 0.085840 0.967250 0.962036
Zn9   Zn    Zn3+2 0.500000 0.085780 0.532750 0.966581
Zn10  Zn    Zn3+2 0.914220 0.500000 0.532750 0.966771
Zn11  Zn    Zn3+2 0.500000 0.914220 0.532750 0.966794
Zn12  Zn    Zn3+2 0.085780 0.500000 0.532750 0.966700
Zn13  Zn    Zn3+2 0.000000 0.585780 0.032750 0.966228
Zn14  Zn    Zn3+2 0.414220 0.000000 0.032750 0.966426
Zn15  Zn    Zn3+2 0.000000 0.414220 0.032750 0.966439
Zn16  Zn    Zn3+2 0.585780 0.000000 0.032750 0.966342
O1    O     O_3   0.500000 1.000000 0.500000 -0.488253
O2    O     O_3   0.000000 0.500000 0.500000 -0.488253
O3    O     O_3   0.000000 0.500000 0.000000 -0.488210
O4    O     O_3   0.500000 0.000000 0.000000 -0.488216
O5    O     O_R   0.500000 0.939870 0.587440 -0.636876
O6    O     O_R   0.060130 0.500000 0.587440 -0.636675
O7    O     O_R   0.500000 0.060130 0.587440 -0.636351
O8    O     O_R   0.939870 0.500000 0.587440 -0.636551
O9    O     O_R   0.000000 0.439870 0.087440 -0.637051
O10   O     O_R   0.560130 1.000000 0.087440 -0.636853
O11   O     O_R   0.000000 0.560130 0.087440 -0.636521
O12   O     O_R   0.439870 1.000000 0.087440 -0.636727
O13   O     O_R   0.439940 1.000000 0.412560 -0.644391
O14   O     O_R   0.000000 0.439940 0.412560 -0.644807
O15   O     O_R   0.560060 1.000000 0.412560 -0.644462
O16   O     O_R   0.000000 0.560060 0.412560 -0.644199
O17   O     O_R   0.939940 0.500000 0.912560 -0.644269
O18   O     O_R   0.500000 0.939940 0.912560 -0.644666
O19   O     O_R   0.060060 0.500000 0.912560 -0.644350
O20   O     O_R   0.500000 0.060060 0.912560 -0.644059
O21   O     O_R   0.415450 0.144560 0.522930 -0.642467
O22   O     O_R   0.855440 0.415450 0.522930 -0.644923
O23   O     O_R   0.584550 0.855440 0.522930 -0.642157
O24   O     O_R   0.144560 0.584550 0.522930 -0.644668
O25   O     O_R   0.584550 0.144560 0.522930 -0.644648
O26   O     O_R   0.144560 0.415450 0.522930 -0.642126
O27   O     O_R   0.415450 0.855440 0.522930 -0.644263
O28   O     O_R   0.855440 0.584550 0.522930 -0.641789
O29   O     O_R   0.915450 0.644560 0.022930 -0.644893
O30   O     O_R   0.355440 0.915450 0.022930 -0.644390
O31   O     O_R   0.084550 0.355440 0.022930 -0.644467
O32   O     O_R   0.644560 0.084550 0.022930 -0.644125
O33   O     O_R   0.084550 0.644560 0.022930 -0.642406
O34   O     O_R   0.644560 0.915450 0.022930 -0.642833
O35   O     O_R   0.915450 0.355440 0.022930 -0.642131
O36   O     O_R   0.355440 0.084550 0.022930 -0.642516
O37   O     O_R   0.644640 0.915430 0.477080 -0.642966
O38   O     O_R   0.084570 0.644640 0.477080 -0.642427
O39   O     O_R   0.355360 0.084570 0.477080 -0.642733
O40   O     O_R   0.915430 0.355360 0.477080 -0.642215
O41   O     O_R   0.355360 0.915430 0.477080 -0.644650
O42   O     O_R   0.915430 0.644640 0.477080 -0.645231
O43   O     O_R   0.644640 0.084570 0.477080 -0.644394
O44   O     O_R   0.084570 0.355360 0.477080 -0.644886
O45   O     O_R   0.144640 0.415430 0.977080 -0.642317
O46   O     O_R   0.584570 0.144640 0.977080 -0.644880
O47   O     O_R   0.855360 0.584570 0.977080 -0.642001
O48   O     O_R   0.415430 0.855360 0.977080 -0.644547
O49   O     O_R   0.855360 0.415430 0.977080 -0.645191
O50   O     O_R   0.415430 0.144640 0.977080 -0.642651
O51   O     O_R   0.144640 0.584570 0.977080 -0.645002
O52   O     O_R   0.584570 0.855360 0.977080 -0.642444
C1    C     C_R   0.499999 0.000001 0.605780 0.824775
C2    C     C_R   0.000000 0.499999 0.605779 0.824796
C3    C     C_R   0.000001 0.500001 0.105780 0.824438
C4    C     C_R   0.500000 0.999999 0.105779 0.824425
C5    C     C_R   0.500000 1.000000 0.394259 0.812042
C6    C     C_R   0.000000 0.499999 0.394258 0.812160
C7    C     C_R   1.000000 0.500000 0.894259 0.812236
C8    C     C_R   0.500000 0.999999 0.894258 0.812316
C9    C     C_R   0.361644 0.138707 0.499927 0.852746
C10   C     C_R   0.861615 0.361325 0.500172 0.850888
C11   C     C_R   0.638660 0.861598 0.500157 0.852744
C12   C     C_R   0.138692 0.638370 0.499941 0.850866
C13   C     C_R   0.638368 0.138693 0.499939 0.849709
C14   C     C_R   0.138403 0.361341 0.500156 0.851533
C15   C     C_R   0.361326 0.861615 0.500171 0.849799
C16   C     C_R   0.861293 0.638354 0.499926 0.851681
C17   C     C_R   0.861630 0.638690 0.999941 0.851069
C18   C     C_R   0.361611 0.861328 0.000168 0.849394
C19   C     C_R   0.138676 0.361615 0.000172 0.851378
C20   C     C_R   0.638695 0.138364 0.999936 0.849591
C21   C     C_R   0.138354 0.638710 0.999925 0.851379
C22   C     C_R   0.638399 0.861338 0.000160 0.853049
C23   C     C_R   0.861342 0.361598 0.000156 0.851202
C24   C     C_R   0.361296 0.138360 0.999931 0.852928
C25   C     C_2   0.191875 0.751959 0.478100 -0.161595
C26   C     C_2   0.248103 0.191937 0.478041 -0.161459
C27   C     C_2   0.806911 0.249254 0.477179 -0.161268
C28   C     C_2   0.750689 0.806854 0.477128 -0.161985
C29   C     C_2   0.808064 0.751895 0.478041 -0.163887
C30   C     C_2   0.751955 0.191876 0.478097 -0.163564
C31   C     C_2   0.193153 0.249319 0.477121 -0.163782
C32   C     C_2   0.249261 0.806907 0.477175 -0.163427
C33   C     C_2   0.691947 0.251881 0.978035 -0.164170
C34   C     C_2   0.748051 0.691879 0.978093 -0.160483
C35   C     C_2   0.306836 0.749334 0.977115 -0.163947
C36   C     C_2   0.250748 0.306916 0.977179 -0.160514
C37   C     C_2   0.308136 0.251973 0.978106 -0.161131
C38   C     C_2   0.251902 0.691935 0.978044 -0.164364
C39   C     C_2   0.693078 0.749240 0.977185 -0.160822
C40   C     C_2   0.749319 0.306846 0.977124 -0.164623
C41   C     C_2   0.196001 0.691745 0.499629 -0.294059
C42   C     C_2   0.308300 0.196044 0.499587 -0.292969
C43   C     C_2   0.806784 0.305480 0.501730 -0.294088
C44   C     C_2   0.694466 0.806726 0.501681 -0.292913
C45   C     C_2   0.803960 0.691701 0.499589 -0.292741
C46   C     C_2   0.691745 0.195999 0.499630 -0.294061
C47   C     C_2   0.193272 0.305532 0.501681 -0.292660
C48   C     C_2   0.305478 0.806787 0.501731 -0.293768
C49   C     C_2   0.696007 0.191732 0.999621 -0.293349
C50   C     C_2   0.808246 0.695983 0.999642 -0.293863
C51   C     C_2   0.306783 0.805478 0.001721 -0.292924
C52   C     C_2   0.194525 0.306789 0.001732 -0.294296
C53   C     C_2   0.303967 0.191714 0.999598 -0.293683
C54   C     C_2   0.191691 0.696059 0.999576 -0.293419
C55   C     C_2   0.693272 0.805535 0.001690 -0.294131
C56   C     C_2   0.805537 0.306724 0.001680 -0.292709
H1    H     H_    0.144989 0.761530 0.459852 0.175694
H2    H     H_    0.238528 0.145052 0.459791 0.175821
H3    H     H_    0.849399 0.244069 0.455607 0.175925
H4    H     H_    0.755892 0.849365 0.455570 0.175782
H5    H     H_    0.854943 0.761463 0.459786 0.174939
H6    H     H_    0.761519 0.144995 0.459843 0.175176
H7    H     H_    0.150654 0.244129 0.455554 0.174905
H8    H     H_    0.244087 0.849384 0.455597 0.174813
H9    H     H_    0.645111 0.261401 0.959743 0.174720
H10   H     H_    0.738498 0.645012 0.959827 0.176213
H11   H     H_    0.349262 0.744217 0.955503 0.174491
H12   H     H_    0.255935 0.349405 0.955608 0.176367
H13   H     H_    0.355063 0.261590 0.959895 0.176032
H14   H     H_    0.261486 0.645039 0.959804 0.174906
H15   H     H_    0.650515 0.743979 0.955661 0.176487
H16   H     H_    0.744128 0.349346 0.955560 0.174381
H17   H     H_    0.242487 0.679162 0.517361 0.150906
H18   H     H_    0.320890 0.242531 0.517319 0.151557
H19   H     H_    0.766699 0.311680 0.524298 0.150506
H20   H     H_    0.688239 0.766606 0.524228 0.151885
H21   H     H_    0.757481 0.679119 0.517328 0.151828
H22   H     H_    0.679169 0.242478 0.517370 0.151010
H23   H     H_    0.233378 0.311745 0.524237 0.151982
H24   H     H_    0.311665 0.766714 0.524306 0.150687
H25   H     H_    0.742433 0.179196 0.017406 0.151311
H26   H     H_    0.820803 0.742426 0.017412 0.151080
H27   H     H_    0.266767 0.811592 0.024332 0.151156
H28   H     H_    0.188342 0.266710 0.024306 0.151029
H29   H     H_    0.257429 0.179088 0.017284 0.151322
H30   H     H_    0.179086 0.742579 0.017280 0.151386
H31   H     H_    0.733451 0.811838 0.024200 0.151149
H32   H     H_    0.811770 0.266607 0.024227 0.151358
C57   C     C_R   0.042561 0.551323 0.668680 0.091518
C58   C     C_R   0.448820 0.957263 0.668682 0.091871
C59   C     C_R   0.957440 0.448670 0.668678 0.091881
C60   C     C_R   0.551175 0.042738 0.668684 0.091437
C61   C     C_R   0.542556 0.051326 0.168680 0.090422
C62   C     C_R   0.948889 0.542804 0.168685 0.090379
C63   C     C_R   0.457444 0.948666 0.168677 0.090784
C64   C     C_R   0.051117 0.457197 0.168683 0.090795
C65   C     C_R   0.000000 0.499997 0.648347 -0.051356
C66   C     C_R   0.499997 0.000001 0.648349 -0.051587
C67   C     C_R   0.500000 0.999997 0.148346 -0.051485
C68   C     C_R   0.000003 0.500001 0.148350 -0.051801
C69   C     C_R   0.953489 0.452525 0.709552 0.097824
C70   C     C_R   0.547275 0.046705 0.709556 0.097850
C71   C     C_R   0.046513 0.547465 0.709554 0.097826
C72   C     C_R   0.452719 0.953295 0.709554 0.097797
C73   C     C_R   0.453492 0.952523 0.209552 0.096827
C74   C     C_R   0.047197 0.453219 0.209554 0.096796
C75   C     C_R   0.546510 0.047467 0.209554 0.096835
C76   C     C_R   0.952808 0.546781 0.209556 0.096856
C77   C     C_R   0.000001 0.499995 0.729852 -0.033945
C78   C     C_R   0.499997 1.000000 0.729853 -0.033905
C79   C     C_R   0.500001 0.999995 0.229852 -0.034075
C80   C     C_R   0.000003 0.500000 0.229853 -0.034022
C81   C     C_R   0.904894 0.409019 0.730834 -0.193340
C82   C     C_R   0.590554 0.095505 0.730836 -0.193399
C83   C     C_R   0.095109 0.590970 0.730838 -0.193373
C84   C     C_R   0.409441 0.904495 0.730832 -0.193391
C85   C     C_R   0.404897 0.909017 0.230834 -0.193307
C86   C     C_R   0.090376 0.404337 0.230832 -0.193376
C87   C     C_R   0.595106 0.090972 0.230837 -0.193349
C88   C     C_R   0.909630 0.595663 0.230835 -0.193392
C89   C     C_R   0.403240 0.911359 0.271176 -0.226911
C90   C     C_R   0.088011 0.402679 0.271174 -0.226943
C91   C     C_R   0.596763 0.088631 0.271179 -0.226856
C92   C     C_R   0.911993 0.597319 0.271177 -0.226871
C93   C     C_R   0.903238 0.411360 0.771176 -0.227149
C94   C     C_R   0.588199 0.097158 0.771178 -0.227085
C95   C     C_R   0.096764 0.588630 0.771180 -0.227085
C96   C     C_R   0.411797 0.902839 0.771174 -0.227167
C97   C     C_R   0.450873 0.956008 0.291378 0.120630
C98   C     C_R   0.043674 0.450595 0.291376 0.120582
C99   C     C_R   0.549129 0.043984 0.291379 0.120561
C100  C     C_R   0.956329 0.549402 0.291377 0.120486
C101  C     C_R   0.950872 0.456008 0.791378 0.121732
C102  C     C_R   0.543768 0.049322 0.791378 0.121591
C103  C     C_R   0.049129 0.543984 0.791379 0.121657
C104  C     C_R   0.456229 0.950674 0.791376 0.121696
C105  C     C_R   0.500001 0.999995 0.270832 0.089342
C106  C     C_R   0.000002 0.499999 0.270832 0.089393
C107  C     C_R   0.000001 0.499995 0.770832 0.089647
C108  C     C_R   0.499998 0.999999 0.770832 0.089678
C109  C     C_R   0.450233 0.957341 0.331894 -0.259566
C110  C     C_R   0.042339 0.449966 0.331892 -0.259642
C111  C     C_R   0.549767 0.042653 0.331896 -0.259555
C112  C     C_R   0.957662 0.550029 0.331893 -0.259474
C113  C     C_R   0.950234 0.457341 0.831895 -0.259109
C114  C     C_R   0.542436 0.049952 0.831894 -0.259014
C115  C     C_R   0.049766 0.542653 0.831896 -0.259097
C116  C     C_R   0.457564 0.950042 0.831892 -0.259188
C117  C     C_R   0.500000 0.999998 0.352048 -0.028988
C118  C     C_R   0.000000 0.499997 0.352046 -0.029216
C119  C     C_R   1.000000 0.499998 0.852048 -0.028549
C120  C     C_R   0.500000 0.999997 0.852046 -0.028731
H33   H     H_    0.866832 0.373448 0.716649 0.158323
H34   H     H_    0.625945 0.133728 0.716649 0.158327
H35   H     H_    0.133171 0.626541 0.716653 0.158310
H36   H     H_    0.374049 0.866273 0.716644 0.158324
H37   H     H_    0.366836 0.873444 0.216648 0.160115
H38   H     H_    0.125689 0.366050 0.216641 0.160116
H39   H     H_    0.633167 0.126545 0.216652 0.160089
H40   H     H_    0.874317 0.633951 0.216645 0.160108
H41   H     H_    0.365036 0.877549 0.286613 0.148046
H42   H     H_    0.121561 0.364256 0.286609 0.148042
H43   H     H_    0.634966 0.122441 0.286618 0.148120
H44   H     H_    0.878443 0.635741 0.286614 0.148131
H45   H     H_    0.865036 0.377551 0.786614 0.146062
H46   H     H_    0.621829 0.135517 0.786616 0.146164
H47   H     H_    0.134966 0.622439 0.786618 0.146148
H48   H     H_    0.378168 0.864480 0.786610 0.146062
H49   H     H_    0.412225 0.924017 0.347823 0.151022
H50   H     H_    0.075421 0.411750 0.347817 0.151238
H51   H     H_    0.587775 0.075978 0.347825 0.151340
H52   H     H_    0.924580 0.588245 0.347819 0.151550
H53   H     H_    0.912226 0.424017 0.847823 0.150430
H54   H     H_    0.575592 0.088108 0.847822 0.150923
H55   H     H_    0.087773 0.575979 0.847825 0.150750
H56   H     H_    0.424407 0.911887 0.847819 0.150602
C121  C     C_3   0.081177 0.612178 0.647447 -0.878364
H57   H     H_    0.062516 0.620148 0.617214 0.238228
H58   H     H_    0.070153 0.664429 0.662124 0.227343
H59   H     H_    0.140236 0.601877 0.647198 0.246281
C122  C     C_3   0.388068 0.918479 0.647452 -0.878853
H60   H     H_    0.379925 0.937265 0.617254 0.238089
H61   H     H_    0.398625 0.859467 0.647115 0.246266
H62   H     H_    0.335811 0.929206 0.662184 0.227375
C123  C     C_3   0.918820 0.387818 0.647442 -0.879213
H63   H     H_    0.937477 0.379851 0.617207 0.238021
H64   H     H_    0.929845 0.335564 0.662115 0.227441
H65   H     H_    0.859761 0.398119 0.647195 0.246241
C124  C     C_3   0.611929 0.081519 0.647456 -0.878139
H66   H     H_    0.620074 0.062731 0.617259 0.238202
H67   H     H_    0.601374 0.140532 0.647120 0.246415
H68   H     H_    0.664185 0.070791 0.662189 0.227253
C125  C     C_3   0.581163 0.112185 0.147447 -0.877046
H69   H     H_    0.562498 0.120155 0.117214 0.238037
H70   H     H_    0.570136 0.164437 0.162125 0.227534
H71   H     H_    0.640224 0.101891 0.147196 0.246839
C126  C     C_3   0.888174 0.581642 0.147460 -0.876813
H72   H     H_    0.879952 0.562792 0.117279 0.237964
H73   H     H_    0.835919 0.571034 0.162219 0.227441
H74   H     H_    0.898838 0.640635 0.147082 0.246994
C127  C     C_3   0.418834 0.887810 0.147441 -0.877890
H75   H     H_    0.437495 0.879844 0.117208 0.237824
H76   H     H_    0.429862 0.835557 0.162116 0.227635
H77   H     H_    0.359774 0.898105 0.147193 0.246805
C128  C     C_3   0.111828 0.418356 0.147456 -0.877479
H78   H     H_    0.164085 0.428963 0.162215 0.227569
H79   H     H_    0.101163 0.359363 0.147077 0.246847
H80   H     H_    0.120049 0.437204 0.117275 0.237854

loop_
_geom_bond_atom_site_label_1
_geom_bond_atom_site_label_2
_geom_bond_distance
_ccdc_geom_bond_type
C116  H56   1.084910 S    
O40   C10   1.279755 A    
C79   C105  1.411372 A    
C121  H58   1.110586 S    
Zn8   O50   1.937250 S    
C16   C45   1.450269 S    
C89   H41   1.084009 S    
Zn12  O6    1.942513 S    
C98   C106  1.411277 A    
O10   C4    1.280136 A    
C22   C55   1.450246 S    
O7    C1    1.280150 A    
C33   C49   1.341260 D    
C97   C105  1.411301 A    
C49   H25   1.080844 S    
O26   C14   1.277529 A    
C58   C122  1.521804 S    
C39   C55   1.341259 D    
C26   C31   1.471624 S    
C5    C117  1.453771 S    
C71   C83   1.412794 A    
C58   C72   1.411412 A    
Zn16  O32   1.936567 S    
O43   C13   1.279751 A    
C113  C119  1.398159 A    
C27   C30   1.471549 S    
O8    C2    1.280134 A    
Zn14  O30   1.936551 S    
C27   H3    1.086378 S    
C55   H31   1.080842 S    
O33   C21   1.277554 A    
Zn15  O3    1.948200 S    
C28   C44   1.341285 D    
C73   C85   1.412789 A    
C122  H60   1.106986 S    
C100  C112  1.395637 A    
C53   H29   1.080904 S    
C11   C44   1.450284 S    
C63   C127  1.521806 S    
C110  H50   1.084897 S    
Zn10  O2    1.948184 S    
C103  C115  1.395673 A    
O37   C11   1.279721 A    
C91   C99   1.394825 A    
C14   C47   1.450268 S    
C115  C119  1.398153 A    
C6    C118  1.453812 S    
C61   C125  1.521801 S    
O16   C6    1.278371 A    
C125  H69   1.106969 S    
O39   C9    1.279702 A    
Zn2   O44   1.937257 S    
Zn15  O9    1.942497 S    
C95   C103  1.394824 A    
C21   C54   1.450271 S    
C73   C79   1.415335 A    
C36   C52   1.341271 D    
C45   H21   1.080867 S    
C93   H45   1.083983 S    
C47   H23   1.080871 S    
O27   C15   1.277501 A    
O51   C21   1.279727 A    
C128  H80   1.107001 S    
C93   C101  1.394831 A    
C28   H4    1.086378 S    
C99   C111  1.395670 A    
C84   H36   1.081291 S    
C124  H66   1.106986 S    
Zn8   O20   1.943087 S    
Zn6   O48   1.937141 S    
C42   H18   1.080872 S    
O14   C6    1.278372 A    
C35   H11   1.086381 S    
C1    C66   1.466090 S    
Zn7   O45   1.937257 S    
Zn7   O3    1.949091 S    
Zn12  O26   1.936672 S    
O45   C19   1.279760 A    
O35   C23   1.277544 A    
C57   C71   1.411440 A    
Zn4   O38   1.937127 S    
O44   C14   1.279697 A    
O34   C22   1.277496 A    
Zn14  O36   1.936685 S    
C104  C108  1.411293 A    
Zn8   O46   1.937127 S    
C78   C108  1.411320 A    
C12   C41   1.450208 S    
C94   H46   1.083952 S    
O52   C22   1.279717 A    
O32   C20   1.277500 A    
O24   C12   1.277500 A    
C64   C74   1.411399 A    
C10   C43   1.450203 S    
C82   C94   1.390409 A    
C60   C66   1.419420 A    
C96   C104  1.394833 A    
O20   C8    1.278368 A    
C126  H72   1.106998 S    
C121  H59   1.110201 S    
C87   C91   1.390404 A    
C127  H75   1.106974 S    
C34   C50   1.341275 D    
C43   H19   1.080891 S    
Zn4   O2    1.949106 S    
Zn12  O2    1.948176 S    
C29   H5    1.086385 S    
C33   C40   1.471575 S    
Zn6   O52   1.937257 S    
O25   C13   1.277486 A    
C102  C108  1.411292 A    
C121  H57   1.106965 S    
O47   C17   1.279727 A    
C51   H27   1.080913 S    
C54   H30   1.080904 S    
C89   C97   1.394828 A    
C95   H47   1.083983 S    
O12   C4    1.280134 A    
C33   H9    1.086383 S    
C40   C56   1.341257 D    
C80   C106  1.411303 A    
C69   C77   1.415344 A    
C36   C37   1.471602 S    
O17   C7    1.278363 A    
C76   C88   1.412739 A    
O38   C12   1.279774 A    
C26   H2    1.086381 S    
C83   H35   1.081317 S    
Zn16  O10   1.942513 S    
C111  C117  1.398158 A    
O13   C5    1.278365 A    
O48   C18   1.279733 A    
C82   H34   1.081293 S    
Zn13  O3    1.948145 S    
Zn10  O28   1.936685 S    
Zn14  O4    1.948184 S    
C64   C128  1.521775 S    
C64   C68   1.419410 A    
C46   H22   1.080878 S    
C38   H14   1.086381 S    
Zn5   O49   1.937140 S    
C2    C65   1.466046 S    
C57   C65   1.419418 A    
C125  H70   1.110610 S    
Zn15  O31   1.936677 S    
Zn9   O7    1.942524 S    
C41   H17   1.080882 S    
O50   C24   1.279746 A    
O22   C10   1.277481 A    
Zn10  O8    1.942510 S    
C84   C96   1.390416 A    
C81   H33   1.081316 S    
Zn11  O5    1.942497 S    
C77   C107  1.411368 A    
Zn5   O17   1.943103 S    
C90   H42   1.083934 S    
C114  C120  1.398171 A    
O23   C11   1.277546 A    
Zn12  O24   1.936567 S    
Zn3   O15   1.943100 S    
C34   H10   1.086381 S    
O30   C18   1.277515 A    
Zn1   O41   1.937140 S    
C123  H65   1.110200 S    
Zn5   O47   1.937241 S    
C87   H39   1.081344 S    
Zn13  O11   1.942524 S    
C72   C84   1.412766 A    
C83   C95   1.390406 A    
C86   H38   1.081281 S    
C81   C93   1.390411 A    
C7    C119  1.453771 S    
C63   C67   1.419416 A    
Zn16  O4    1.948176 S    
O19   C7    1.278364 A    
C28   C29   1.471630 S    
C38   C54   1.341253 D    
O41   C15   1.279760 A    
C128  H78   1.110550 S    
C101  C107  1.411305 A    
C37   C53   1.341265 D    
C34   C39   1.471619 S    
Zn8   O4    1.949106 S    
C102  C114  1.395648 A    
Zn11  O27   1.936557 S    
O42   C16   1.279714 A    
C126  H73   1.110548 S    
C25   C32   1.471549 S    
C101  C113  1.395676 A    
C18   C51   1.450222 S    
C122  H61   1.110198 S    
C112  C118  1.398174 A    
O9    C3    1.280144 A    
C3    C68   1.466111 S    
O49   C23   1.279719 A    
Zn9   O1    1.948145 S    
O15   C5    1.278366 A    
C70   C78   1.415310 A    
Zn7   O51   1.937121 S    
C52   H28   1.080913 S    
Zn15  O35   1.936557 S    
C23   C56   1.450188 S    
C127  H76   1.110608 S    
C85   H37   1.081343 S    
C4    C67   1.466042 S    
Zn13  O33   1.936569 S    
O36   C24   1.277547 A    
O18   C8    1.278369 A    
Zn2   O14   1.943114 S    
C59   C123  1.521821 S    
O46   C20   1.279744 A    
C29   C45   1.341277 D    
C30   H6    1.086381 S    
C63   C73   1.411446 A    
C74   C80   1.415284 A    
O11   C3    1.280155 A    
C90   C98   1.394822 A    
C40   H16   1.086386 S    
Zn9   O21   1.936688 S    
C72   C78   1.415312 A    
C92   H44   1.083933 S    
O21   C9    1.277533 A    
Zn11  O1    1.948200 S    
C122  H62   1.110555 S    
C100  C106  1.411278 A    
C36   H12   1.086377 S    
Zn4   O42   1.937250 S    
C69   C81   1.412792 A    
Zn7   O19   1.943100 S    
C15   C48   1.450196 S    
C35   C51   1.341266 D    
C109  H49   1.084937 S    
Zn16  O34   1.936672 S    
Zn2   O2    1.949055 S    
C88   H40   1.081279 S    
C125  H71   1.110204 S    
C75   C79   1.415331 A    
C32   H8    1.086380 S    
C85   C89   1.390410 A    
Zn5   O3    1.949085 S    
O28   C16   1.277547 A    
Zn9   O25   1.936569 S    
C30   C46   1.341240 D    
C96   H48   1.083952 S    
C88   C92   1.390414 A    
C104  C116  1.395652 A    
C62   C126  1.521769 S    
C115  H55   1.084926 S    
Zn3   O43   1.937121 S    
C110  C118  1.398177 A    
C31   H7    1.086386 S    
O29   C17   1.277463 A    
Zn10  O22   1.936551 S    
C13   C46   1.450186 S    
C109  C117  1.398164 A    
C32   C48   1.341245 D    
C124  H68   1.110556 S    
C75   C87   1.412788 A    
C56   H32   1.080845 S    
Zn1   O39   1.937241 S    
C50   H26   1.080841 S    
C19   C52   1.450291 S    
C27   C43   1.341247 D    
C24   C53   1.450324 S    
C74   C86   1.412740 A    
Zn13  O29   1.936688 S    
C70   C82   1.412767 A    
Zn3   O37   1.937257 S    
C48   H24   1.080894 S    
C44   H20   1.080863 S    
Zn1   O13   1.943103 S    
C123  H63   1.106967 S    
C103  C107  1.411305 A    
Zn6   O4    1.949055 S    
C8    C120  1.453799 S    
C61   C75   1.411436 A    
C31   C47   1.341273 D    
C113  H53   1.084926 S    
C60   C124  1.521796 S    
C128  H79   1.110198 S    
C26   C42   1.341287 D    
Zn3   O1    1.949091 S    
C35   C38   1.471556 S    
C111  H51   1.084938 S    
C92   C100  1.394823 A    
C39   H15   1.086379 S    
C17   C50   1.450201 S    
C98   C110  1.395645 A    
C126  H74   1.110197 S    
C59   C65   1.419421 A    
C97   C109  1.395673 A    
C62   C68   1.419404 A    
C37   H13   1.086382 S    
Zn4   O16   1.943087 S    
C25   H1    1.086378 S    
C58   C66   1.419424 A    
Zn6   O18   1.943114 S    
C76   C80   1.415284 A    
C62   C76   1.411390 A    
Zn1   O1    1.949085 S    
C94   C102  1.394829 A    
C91   H43   1.084008 S    
Zn11  O23   1.936677 S    
C123  H64   1.110586 S    
C127  H77   1.110203 S    
O5    C1    1.280139 A    
C61   C67   1.419414 A    
C60   C70   1.411404 A    
C71   C77   1.415339 A    
Zn2   O40   1.937141 S    
C86   C90   1.390421 A    
C112  H52   1.084898 S    
Zn14  O12   1.942510 S    
C20   C49   1.450151 S    
C124  H67   1.110196 S    
C116  C120  1.398175 A    
C57   C121  1.521815 S    
C9    C42   1.450288 S    
O6    C2    1.280136 A    
C99   C105  1.411301 A    
C59   C69   1.411449 A    
C25   C41   1.341247 D    
C114  H54   1.084909 S    
O31   C19   1.277504 A    
