data_mof_unit_43152.cif
_audit_creation_date              2013-03-05T16:15:44-0500
_audit_creation_method            fapswitch 2.2
_symmetry_space_group_name_H-M    P1
_symmetry_Int_Tables_number       1
_space_group_crystal_system       triclinic
_cell_length_a                    22.456817
_cell_length_b                    22.522788
_cell_length_c                    14.644363
_cell_angle_alpha                 90.345311
_cell_angle_beta                  90.440547
_cell_angle_gamma                 89.990844
_cell_volume                      7406.62072812

loop_
_atom_site_label
_atom_site_type_symbol
_atom_site_description
_atom_site_fract_x
_atom_site_fract_y
_atom_site_fract_z
_atom_type_partial_charge
O1    O     O_R   0.439540 0.939530 0.576170 -0.564706
O2    O     O_R   0.560460 0.060470 0.423830 -0.564709
O3    O     O_R   0.560460 0.939530 0.423830 -0.564653
O4    O     O_R   0.439540 0.060470 0.576170 -0.564651
O5    O     O_R   0.939540 0.439530 0.576170 -0.565979
O6    O     O_R   0.060460 0.560470 0.423830 -0.565983
O7    O     O_R   0.060460 0.439530 0.423830 -0.563577
O8    O     O_R   0.939540 0.560470 0.576170 -0.563581
O9    O     O_R   0.439530 0.939530 0.423800 -0.565574
O10   O     O_R   0.560470 0.060470 0.576200 -0.565569
O11   O     O_R   0.560470 0.939530 0.576200 -0.563270
O12   O     O_R   0.439530 0.060470 0.423800 -0.563270
O13   O     O_R   0.939530 0.439530 0.423800 -0.564550
O14   O     O_R   0.060470 0.560470 0.576200 -0.564551
O15   O     O_R   0.060470 0.439530 0.576200 -0.563796
O16   O     O_R   0.939530 0.560470 0.423800 -0.563798
C1    C     C_R   0.419799 0.919813 0.499566 0.813274
C2    C     C_R   0.580200 0.080187 0.500433 0.813270
C3    C     C_R   0.580308 0.919900 0.500074 0.812941
C4    C     C_R   0.419692 0.080100 0.499925 0.812934
C5    C     C_R   0.919839 0.419729 0.499636 0.813001
C6    C     C_R   0.080158 0.580273 0.500365 0.813004
C7    C     C_R   0.080279 0.419878 0.500035 0.813056
C8    C     C_R   0.919721 0.580122 0.499965 0.813053
Cu1   Cu    Cu3+1 0.500000 0.000000 0.590220 1.039536
Cu2   Cu    Cu3+1 0.500000 1.000000 0.409780 1.039534
Cu3   Cu    Cu3+1 1.000000 0.500000 0.590220 1.039540
Cu4   Cu    Cu3+1 0.000000 0.500000 0.409780 1.039538
C9    C     C_3   0.507067 0.055954 0.970511 0.256451
C10   C     C_3   0.492942 0.944041 0.029489 0.256452
C11   C     C_3   0.454825 0.034059 0.029655 0.259950
C12   C     C_3   0.545184 0.965936 0.970344 0.259960
C13   C     C_3   0.044223 0.535732 0.972179 0.259457
C14   C     C_3   0.955784 0.464271 0.027822 0.259454
C15   C     C_3   0.990873 0.555439 0.031197 0.255603
C16   C     C_3   0.009135 0.444564 0.968803 0.255601
C17   C     C_3   0.716764 0.745071 0.575971 0.272891
C18   C     C_3   0.283245 0.254938 0.424037 0.272890
C19   C     C_3   0.272135 0.754581 0.413934 0.273444
C20   C     C_3   0.727831 0.245440 0.586047 0.273461
C21   C     C_3   0.216503 0.244858 0.574292 0.272599
C22   C     C_3   0.783490 0.755136 0.425698 0.272600
C23   C     C_3   0.772548 0.253775 0.417235 0.275726
C24   C     C_3   0.227449 0.746238 0.582770 0.275750
C25   C     C_3   0.223662 0.196372 0.499864 0.269742
C26   C     C_3   0.776338 0.803629 0.500116 0.269751
C27   C     C_3   0.773840 0.197351 0.476897 0.271744
C28   C     C_3   0.226150 0.802666 0.523118 0.271733
C29   C     C_3   0.723918 0.696567 0.501520 0.269073
C30   C     C_3   0.276084 0.303434 0.498499 0.269066
C31   C     C_3   0.273434 0.698085 0.473637 0.269304
C32   C     C_3   0.726541 0.301933 0.526336 0.269369
C33   C     C_1   0.374867 0.124588 0.499770 -0.116585
C34   C     C_1   0.625133 0.875412 0.500230 -0.116585
C35   C     C_1   0.624768 0.124889 0.501450 -0.117717
C36   C     C_1   0.375227 0.875116 0.498545 -0.117709
C37   C     C_1   0.874992 0.624691 0.500096 -0.116421
C38   C     C_1   0.125009 0.375310 0.499904 -0.116428
C39   C     C_1   0.124544 0.625239 0.500861 -0.119074
C40   C     C_1   0.875446 0.374770 0.499142 -0.119076
C41   C     C_3   0.283922 0.256863 0.574067 0.133807
C42   C     C_3   0.716072 0.743129 0.425942 0.133802
C43   C     C_3   0.707172 0.265092 0.442420 0.131807
C44   C     C_3   0.292819 0.734919 0.557553 0.131821
C45   C     C_3   0.784210 0.757066 0.575675 0.134626
C46   C     C_3   0.215798 0.242943 0.424314 0.134632
C47   C     C_3   0.206695 0.765863 0.439253 0.132684
C48   C     C_3   0.793276 0.234161 0.560764 0.132670
C49   C     C_3   0.291728 0.208012 0.500150 -0.166226
C50   C     C_3   0.708272 0.791988 0.499849 -0.166230
C51   C     C_3   0.707775 0.208370 0.501664 -0.166714
C52   C     C_3   0.292209 0.791645 0.498318 -0.166711
C53   C     C_3   0.791987 0.708218 0.501746 -0.166124
C54   C     C_3   0.208015 0.291784 0.498253 -0.166120
C55   C     C_3   0.207287 0.709075 0.498605 -0.167272
C56   C     C_3   0.792693 0.290944 0.501402 -0.167285
N1    N     N_1   0.499980 0.000000 0.274190 -0.157610
N2    N     N_1   0.500020 0.000000 0.725810 -0.157610
N3    N     N_1   0.999980 0.500000 0.274190 -0.157364
N4    N     N_1   0.000020 0.500000 0.725810 -0.157363
C57   C     C_3   0.552063 0.021911 0.031151 0.254291
C58   C     C_3   0.447945 0.978084 0.968849 0.254285
C59   C     C_3   0.052532 0.479684 0.031356 0.252952
C60   C     C_3   0.947476 0.520319 0.968644 0.252955
C61   C     C_3   0.499817 0.000018 0.092029 -0.228824
C62   C     C_3   0.500191 0.999977 0.907971 -0.228824
C63   C     C_3   0.999190 0.499397 0.092084 -0.230435
C64   C     C_3   0.000818 0.500606 0.907916 -0.230435
C65   C     C_1   0.337189 0.162165 0.499782 0.190471
C66   C     C_1   0.662811 0.837835 0.500217 0.190469
C67   C     C_1   0.662281 0.162602 0.501972 0.189581
C68   C     C_1   0.337709 0.837408 0.498014 0.189567
C69   C     C_1   0.837393 0.662336 0.500733 0.191476
C70   C     C_1   0.162609 0.337666 0.499266 0.191476
C71   C     C_1   0.161888 0.663158 0.500208 0.189560
C72   C     C_1   0.838096 0.336858 0.499799 0.189546
C73   C     C_1   0.499881 0.000009 0.194358 0.348023
C74   C     C_1   0.500123 0.999989 0.805642 0.348022
C75   C     C_1   0.999510 0.499649 0.194370 0.345877
C76   C     C_1   0.000494 0.500352 0.805630 0.345878
O17   O     O_3   0.394474 0.956044 0.930094 -0.585401
C77   C     C_3   0.356231 0.935505 0.999277 0.091284
H1    H     H_    0.350106 0.968936 0.054602 0.182127
H2    H     H_    0.373570 0.894060 0.030015 0.185602
C78   C     C_3   0.295561 0.921801 0.957413 -0.802684
H3    H     H_    0.300094 0.887603 0.902934 0.252222
H4    H     H_    0.265218 0.904769 0.010745 0.216961
H5    H     H_    0.276000 0.962666 0.927521 0.249776
O18   O     O_3   0.605534 0.043950 0.069908 -0.585402
C79   C     C_3   0.643778 0.064489 0.000727 0.091303
H6    H     H_    0.626441 0.105936 0.969994 0.185605
H7    H     H_    0.649901 0.031060 0.945399 0.182126
C80   C     C_3   0.704450 0.078188 0.042591 -0.802659
H8    H     H_    0.724009 0.037320 0.072478 0.249765
H9    H     H_    0.734793 0.095221 0.989261 0.216971
H10   H     H_    0.699919 0.112383 0.097075 0.252227
O19   O     O_3   0.893541 0.540873 0.929790 -0.585630
C81   C     C_3   0.854343 0.560072 0.998994 0.094210
H11   H     H_    0.869707 0.602540 0.029575 0.189942
H12   H     H_    0.849861 0.526863 0.054435 0.179299
C82   C     C_3   0.793037 0.570546 0.957237 -0.787533
H13   H     H_    0.775624 0.528693 0.926739 0.243408
H14   H     H_    0.761834 0.586031 0.010812 0.221040
H15   H     H_    0.795717 0.604876 0.903266 0.258544
O20   O     O_3   0.106467 0.459131 0.070210 -0.585631
C83   C     C_3   0.145665 0.439932 0.001007 0.094210
H16   H     H_    0.150146 0.473140 0.945564 0.179296
H17   H     H_    0.130302 0.397463 0.970427 0.189943
C84   C     C_3   0.206972 0.429460 0.042763 -0.787522
H18   H     H_    0.204293 0.395131 0.096736 0.258553
H19   H     H_    0.238174 0.413975 0.989188 0.221043
H20   H     H_    0.224384 0.471314 0.073258 0.243398
O21   O     O_3   0.200315 0.138187 0.501607 -0.556457
C85   C     C_3   0.137539 0.139963 0.496568 0.131763
H21   H     H_    0.122821 0.148309 0.425252 0.203978
H22   H     H_    0.118107 0.174512 0.542103 0.170204
C86   C     C_3   0.112862 0.080185 0.525517 -0.795619
H23   H     H_    0.126464 0.070706 0.597050 0.244956
H24   H     H_    0.063473 0.080764 0.521121 0.208981
H25   H     H_    0.129990 0.044576 0.479963 0.268378
O22   O     O_3   0.799683 0.861814 0.498353 -0.556450
C87   C     C_3   0.862460 0.860041 0.503370 0.131772
H26   H     H_    0.881885 0.825499 0.457815 0.170223
H27   H     H_    0.877189 0.851685 0.574678 0.203974
C88   C     C_3   0.887128 0.919825 0.474433 -0.795626
H28   H     H_    0.870007 0.955425 0.520009 0.268362
H29   H     H_    0.936518 0.919246 0.478806 0.208992
H30   H     H_    0.873512 0.929316 0.402910 0.244976
O23   O     O_3   0.794125 0.140523 0.450384 -0.556907
C89   C     C_3   0.856209 0.141596 0.436263 0.130855
H31   H     H_    0.880082 0.139382 0.502829 0.201630
H32   H     H_    0.871088 0.181845 0.399040 0.169964
C90   C     C_3   0.873683 0.087573 0.379802 -0.799736
H33   H     H_    0.851171 0.088963 0.312052 0.248045
H34   H     H_    0.922641 0.087065 0.369713 0.208907
H35   H     H_    0.860364 0.046389 0.415487 0.263098
O24   O     O_3   0.205874 0.859493 0.549652 -0.556915
C91   C     C_3   0.143793 0.858425 0.563800 0.130874
H36   H     H_    0.128915 0.818171 0.601008 0.169961
H37   H     H_    0.119908 0.860658 0.497246 0.201625
C92   C     C_3   0.126336 0.912439 0.620297 -0.799742
H38   H     H_    0.139656 0.953630 0.584634 0.263095
H39   H     H_    0.077379 0.912953 0.630400 0.208915
H40   H     H_    0.148855 0.911029 0.688041 0.248036
O25   O     O_3   0.700678 0.638341 0.503224 -0.556875
C93   C     C_3   0.637899 0.639992 0.498326 0.130093
H41   H     H_    0.623108 0.648321 0.427035 0.204228
H42   H     H_    0.618447 0.674506 0.543915 0.169639
C94   C     C_3   0.613381 0.580153 0.527360 -0.793631
H43   H     H_    0.626935 0.570788 0.598951 0.244318
H44   H     H_    0.563994 0.580574 0.522842 0.208964
H45   H     H_    0.630671 0.544528 0.481977 0.268643
O26   O     O_3   0.299326 0.361660 0.496815 -0.556883
C95   C     C_3   0.362104 0.360008 0.501733 0.130067
H46   H     H_    0.381562 0.325494 0.456151 0.169627
H47   H     H_    0.376885 0.351678 0.573029 0.204231
C96   C     C_3   0.386628 0.419846 0.472708 -0.793611
H48   H     H_    0.369331 0.455472 0.518082 0.268649
H49   H     H_    0.436014 0.419424 0.477246 0.208954
H50   H     H_    0.373087 0.429211 0.401111 0.244304
O27   O     O_3   0.293932 0.641291 0.447350 -0.559267
C97   C     C_3   0.356079 0.642530 0.433719 0.126142
H51   H     H_    0.379695 0.639594 0.500426 0.203616
H52   H     H_    0.371124 0.683190 0.397662 0.168419
C98   C     C_3   0.373791 0.589145 0.375994 -0.798714
H53   H     H_    0.351931 0.591577 0.307820 0.245924
H54   H     H_    0.422839 0.588550 0.366913 0.210066
H55   H     H_    0.359987 0.547533 0.410095 0.262971
O28   O     O_3   0.706033 0.358726 0.552609 -0.559250
C99   C     C_3   0.643884 0.357483 0.566217 0.126212
H56   H     H_    0.628833 0.316817 0.602252 0.168436
H57   H     H_    0.620280 0.360429 0.499501 0.203606
C100  C     C_3   0.626162 0.410859 0.623954 -0.798771
H58   H     H_    0.639968 0.452475 0.589868 0.262971
H59   H     H_    0.577114 0.411449 0.633023 0.210058
H60   H     H_    0.648017 0.408419 0.692132 0.245954
O29   O     O_3   0.678748 0.743317 0.652280 -0.553809
C101  C     C_3   0.697546 0.698654 0.713248 0.115398
H61   H     H_    0.737193 0.713812 0.752663 0.202232
H62   H     H_    0.708312 0.656215 0.677718 0.167903
C102  C     C_3   0.647850 0.686304 0.780445 -0.778663
H63   H     H_    0.607644 0.670226 0.743201 0.253679
H64   H     H_    0.662370 0.651783 0.829670 0.204191
H65   H     H_    0.636563 0.727459 0.818749 0.259250
O30   O     O_3   0.321270 0.256696 0.347737 -0.553799
C103  C     C_3   0.302485 0.301371 0.286779 0.115382
H66   H     H_    0.291749 0.343814 0.322318 0.167905
H67   H     H_    0.262822 0.286236 0.247378 0.202226
C104  C     C_3   0.352175 0.313695 0.219561 -0.778617
H68   H     H_    0.363430 0.272536 0.181244 0.259246
H69   H     H_    0.337666 0.348228 0.170346 0.204181
H70   H     H_    0.392399 0.329747 0.256788 0.253688
O31   O     O_3   0.299190 0.762458 0.328117 -0.553074
C105  C     C_3   0.272021 0.725198 0.262161 0.122099
H71   H     H_    0.227304 0.742441 0.243288 0.200402
H72   H     H_    0.267609 0.678689 0.286313 0.166964
C106  C     C_3   0.310064 0.724362 0.176696 -0.800953
H73   H     H_    0.355196 0.707076 0.193161 0.253553
H74   H     H_    0.289205 0.695247 0.124019 0.199837
H75   H     H_    0.314093 0.769958 0.148914 0.258027
O32   O     O_3   0.700754 0.237570 0.671845 -0.553106
C107  C     C_3   0.727919 0.274823 0.737816 0.122074
H76   H     H_    0.732445 0.321312 0.713620 0.166977
H77   H     H_    0.772584 0.257505 0.756818 0.200432
C108  C     C_3   0.689781 0.275772 0.823175 -0.801018
H78   H     H_    0.685630 0.230195 0.850985 0.258026
H79   H     H_    0.710638 0.304869 0.875877 0.199886
H80   H     H_    0.644702 0.293138 0.806565 0.253565
O33   O     O_3   0.178433 0.242914 0.650499 -0.554161
C109  C     C_3   0.197363 0.198339 0.711536 0.116839
H81   H     H_    0.235420 0.214709 0.753468 0.200765
H82   H     H_    0.210700 0.156611 0.676047 0.167066
C110  C     C_3   0.146484 0.183478 0.775359 -0.780700
H83   H     H_    0.107929 0.166128 0.735419 0.253722
H84   H     H_    0.161065 0.149180 0.824899 0.203346
H85   H     H_    0.132579 0.223846 0.813498 0.261844
O34   O     O_3   0.821551 0.757075 0.349481 -0.554172
C111  C     C_3   0.802607 0.801639 0.288435 0.116854
H86   H     H_    0.789241 0.843362 0.323914 0.167057
H87   H     H_    0.764567 0.785246 0.246490 0.200767
C112  C     C_3   0.853489 0.816526 0.224633 -0.780729
H88   H     H_    0.867425 0.776164 0.186506 0.261847
H89   H     H_    0.838897 0.850813 0.175083 0.203351
H90   H     H_    0.892026 0.833900 0.264588 0.253715
O35   O     O_3   0.799206 0.260259 0.330896 -0.555073
C113  C     C_3   0.769941 0.223903 0.265678 0.131868
H91   H     H_    0.730363 0.247509 0.238062 0.201522
H92   H     H_    0.755452 0.180390 0.293649 0.167303
C114  C     C_3   0.812147 0.211310 0.187300 -0.805193
H93   H     H_    0.851745 0.186663 0.212573 0.250222
H94   H     H_    0.789232 0.184212 0.134089 0.204366
H95   H     H_    0.826914 0.253664 0.156695 0.262655
O36   O     O_3   0.200806 0.739749 0.669122 -0.555058
C115  C     C_3   0.230077 0.776103 0.734336 0.131898
H96   H     H_    0.244556 0.819620 0.706367 0.167305
H97   H     H_    0.269662 0.752500 0.761934 0.201515
C116  C     C_3   0.187883 0.788687 0.812735 -0.805200
H98   H     H_    0.173138 0.746330 0.843358 0.262638
H99   H     H_    0.210800 0.815797 0.865932 0.204353
H100  H     H_    0.148270 0.813319 0.787481 0.250233
N5    N     N_R   0.679536 0.735070 0.344120 0.110793
O37   O     O_R   0.691215 0.691917 0.287636 -0.337089
O38   O     O_R   0.635414 0.770770 0.326868 -0.380597
N6    N     N_R   0.320449 0.264914 0.655900 0.110792
O39   O     O_R   0.308762 0.308059 0.712395 -0.337085
O40   O     O_R   0.364567 0.229210 0.673155 -0.380598
N7    N     N_R   0.339163 0.717526 0.622274 0.111137
O41   O     O_R   0.333751 0.668454 0.667811 -0.336848
O42   O     O_R   0.385892 0.750703 0.635090 -0.381403
N8    N     N_R   0.660837 0.282478 0.377681 0.111133
O43   O     O_R   0.666249 0.331551 0.332148 -0.336863
O44   O     O_R   0.614109 0.249300 0.364861 -0.381400
N9    N     N_R   0.179151 0.234888 0.342610 0.110633
O45   O     O_R   0.190810 0.191799 0.285998 -0.336926
O46   O     O_R   0.134988 0.270576 0.325547 -0.380503
N10   N     N_R   0.820866 0.765130 0.657368 0.110634
O47   O     O_R   0.809215 0.808228 0.713970 -0.336930
O48   O     O_R   0.865032 0.729446 0.674429 -0.380499
N11   N     N_R   0.839815 0.216721 0.625105 0.111075
O49   O     O_R   0.834430 0.167751 0.670905 -0.334226
O50   O     O_R   0.886679 0.249796 0.637359 -0.379623
N12   N     N_R   0.160142 0.783311 0.374943 0.111074
O51   O     O_R   0.165523 0.832281 0.329138 -0.334180
O52   O     O_R   0.113272 0.750244 0.362712 -0.379633
O53   O     O_3   0.408782 0.069433 0.066449 -0.581519
C117  C     C_3   0.372365 0.092141 0.995641 0.069996
H101  H     H_    0.343606 0.056775 0.966226 0.182913
H102  H     H_    0.398762 0.112001 0.939589 0.185375
C118  C     C_3   0.332096 0.140174 0.034606 -0.744700
H103  H     H_    0.359337 0.176956 0.063643 0.243644
H104  H     H_    0.302900 0.158097 0.979765 0.207263
H105  H     H_    0.303799 0.121407 0.089206 0.271772
O54   O     O_3   0.591227 0.930564 0.933550 -0.581520
C119  C     C_3   0.627644 0.907854 0.004358 0.069999
H106  H     H_    0.601246 0.887991 0.060406 0.185381
H107  H     H_    0.656402 0.943219 0.033777 0.182913
C120  C     C_3   0.667914 0.859823 0.965390 -0.744728
H108  H     H_    0.696211 0.878592 0.910793 0.271773
H109  H     H_    0.697110 0.841898 0.020231 0.207251
H110  H     H_    0.640674 0.823041 0.936350 0.243650
O55   O     O_3   0.514827 0.113282 0.933763 -0.581633
C121  C     C_3   0.516135 0.156288 0.004457 0.086868
H111  H     H_    0.546207 0.143488 0.061758 0.181093
H112  H     H_    0.470897 0.163718 0.032014 0.185782
C122  C     C_3   0.538199 0.214829 0.966086 -0.772033
H113  H     H_    0.508155 0.229799 0.910190 0.268731
H114  H     H_    0.538976 0.249189 0.020788 0.215666
H115  H     H_    0.583919 0.209394 0.938936 0.242845
O56   O     O_3   0.485185 0.886713 0.066239 -0.581629
C123  C     C_3   0.483874 0.843706 0.995546 0.086828
H116  H     H_    0.529105 0.836296 0.967952 0.185800
H117  H     H_    0.453777 0.856495 0.938270 0.181090
C124  C     C_3   0.461849 0.785156 0.033935 -0.772058
H118  H     H_    0.416140 0.790572 0.061137 0.242917
H119  H     H_    0.461062 0.750798 0.979231 0.215653
H120  H     H_    0.491926 0.770195 0.089798 0.268724
O57   O     O_3   0.980745 0.612224 0.069601 -0.583059
C125  C     C_3   0.979222 0.655651 0.000366 0.092131
H121  H     H_    0.951041 0.642069 0.941002 0.184592
H122  H     H_    0.024737 0.665076 0.975734 0.186813
C126  C     C_3   0.953892 0.712965 0.039410 -0.771654
H123  H     H_    0.981726 0.728519 0.097840 0.266861
H124  H     H_    0.953346 0.747782 0.986038 0.219124
H125  H     H_    0.907667 0.705570 0.063156 0.242865
O58   O     O_3   0.019263 0.387779 0.930400 -0.583057
C127  C     C_3   0.020788 0.344353 0.999637 0.092133
H126  H     H_    0.975273 0.334926 0.024268 0.186806
H127  H     H_    0.048968 0.357936 0.059001 0.184595
C128  C     C_3   0.046121 0.287040 0.960595 -0.771647
H128  H     H_    0.092346 0.294437 0.936849 0.242865
H129  H     H_    0.046668 0.252224 0.013967 0.219126
H130  H     H_    0.018288 0.271484 0.902164 0.266859
O59   O     O_3   0.089485 0.573216 0.938795 -0.579648
C129  C     C_3   0.124692 0.595178 0.012083 0.092522
H131  H     H_    0.156191 0.560697 0.036222 0.181233
H132  H     H_    0.097485 0.610344 0.071007 0.180133
C130  C     C_3   0.161099 0.647731 0.979524 -0.794676
H133  H     H_    0.130957 0.684287 0.958490 0.240956
H134  H     H_    0.190428 0.663978 0.035724 0.202448
H135  H     H_    0.189117 0.634346 0.920708 0.271593
O60   O     O_3   0.910523 0.426787 0.061207 -0.579653
C131  C     C_3   0.875316 0.404824 0.987920 0.092503
H136  H     H_    0.902524 0.389653 0.928999 0.180143
H137  H     H_    0.843819 0.439304 0.963776 0.181235
C132  C     C_3   0.838907 0.352272 0.020484 -0.794639
H138  H     H_    0.810884 0.365663 0.079290 0.271585
H139  H     H_    0.809584 0.336018 0.964282 0.202470
H140  H     H_    0.869050 0.315720 0.041536 0.240955

loop_
_geom_bond_atom_site_label_1
_geom_bond_atom_site_label_2
_geom_bond_distance
_ccdc_geom_bond_type
C7    C38   1.419973 S    
C83   H16   1.112361 S    
C20   C51   1.551170 S    
C120  H109  1.110660 S    
C53   C69   1.451745 S    
C130  H135  1.110748 S    
C88   H28   1.110674 S    
C55   C71   1.452762 S    
O59   C129  1.415043 S    
C24   C44   1.537366 S    
C12   C57   1.546163 S    
N12   O51   1.300477 A    
O24   C91   1.411262 S    
N3    C75   1.168851 T    
C43   N8    1.457421 S    
C108  H80   1.110940 S    
C42   C50   1.549698 S    
C79   H6    1.108063 S    
C115  H97   1.110447 S    
C21   C54   1.550550 S    
C123  H116  1.108295 S    
C60   O19   1.413329 S    
O3    C3    1.280262 A    
C127  H126  1.107525 S    
C21   C41   1.538028 S    
C132  H138  1.110747 S    
C117  C118  1.521153 S    
C18   C49   1.551320 S    
O35   C113  1.412665 S    
C45   N10   1.457433 S    
C92   H39   1.110514 S    
O9    Cu2   1.936334 S    
C130  H133  1.109352 S    
C26   O22   1.411999 S    
C86   H25   1.110675 S    
C111  H87   1.110272 S    
C25   C49   1.550881 S    
C26   C45   1.538300 S    
C131  H136  1.113136 S    
C83   C84   1.521094 S    
C12   O54   1.413265 S    
C131  C132  1.519856 S    
O7    Cu4   1.933700 S    
C97   C98   1.520303 S    
C10   C58   1.546518 S    
O33   C109  1.411546 S    
O15   Cu3   1.934286 S    
C12   C62   1.561107 S    
O12   C4    1.279991 A    
C127  C128  1.520770 S    
O13   C5    1.281160 A    
O2    Cu2   1.932257 S    
C132  H140  1.109358 S    
C109  H82   1.113326 S    
C13   C59   1.545959 S    
C95   C96   1.520223 S    
C27   C51   1.549609 S    
C43   C51   1.548605 S    
C33   C65   1.196661 T    
C91   H36   1.113285 S    
N8    O44   1.300139 A    
C88   H30   1.110872 S    
C78   H3    1.110836 S    
O30   C103  1.411451 S    
C22   C53   1.550545 S    
C29   C42   1.538428 S    
C125  C126  1.520770 S    
C13   C64   1.561670 S    
O3    Cu2   1.933700 S    
C31   C44   1.538676 S    
C60   C64   1.560263 S    
C31   O27   1.411732 S    
C44   N7    1.457416 S    
C15   C60   1.546735 S    
C25   O21   1.412003 S    
C107  C108  1.520760 S    
C20   O32   1.412203 S    
C106  H73   1.110920 S    
C56   C72   1.452766 S    
C117  H102  1.112316 S    
C129  C130  1.519852 S    
O10   C2    1.279925 A    
C131  H137  1.108030 S    
C14   C63   1.561666 S    
N11   O50   1.300162 A    
C28   C47   1.538155 S    
C81   H12   1.112361 S    
C26   C50   1.550882 S    
C61   C73   1.498527 S    
O4    C4    1.280264 A    
C120  H108  1.110753 S    
O5    C5    1.279538 A    
C100  H58   1.109945 S    
O58   C127  1.413233 S    
C21   C25   1.547478 S    
C46   N9    1.457432 S    
C101  H62   1.112956 S    
C94   H45   1.110719 S    
C112  H89   1.110526 S    
O18   C79   1.413205 S    
C23   C27   1.546663 S    
C24   C28   1.546662 S    
C80   H9    1.110550 S    
C19   C31   1.548356 S    
C99   H56   1.113683 S    
C11   C61   1.561102 S    
C104  H70   1.110859 S    
O4    Cu1   1.933700 S    
C98   H53   1.110783 S    
C16   C64   1.560151 S    
C78   H4    1.110550 S    
C114  H93   1.110477 S    
O32   C107  1.410954 S    
C34   C66   1.196664 T    
C30   C54   1.550996 S    
O36   C115  1.412680 S    
C105  H72   1.112305 S    
C124  H119  1.110503 S    
O11   Cu1   1.934286 S    
C46   C54   1.549688 S    
C16   O58   1.413145 S    
C116  H98   1.108331 S    
C95   H46   1.113068 S    
C125  H122  1.107526 S    
O5    Cu3   1.932260 S    
C15   C63   1.560150 S    
O6    Cu4   1.932257 S    
N6    O39   1.300469 A    
C122  H114  1.110503 S    
C17   C45   1.538630 S    
N1    C73   1.169075 T    
C110  H83   1.110859 S    
C22   C42   1.538025 S    
C99   C100  1.520293 S    
C32   O28   1.411721 S    
C100  H60   1.110781 S    
O26   C95   1.411580 S    
O34   C111  1.411547 S    
C93   H42   1.113067 S    
C102  H64   1.110670 S    
O28   C99   1.411647 S    
C14   C60   1.545958 S    
C28   C52   1.549612 S    
C49   C65   1.451965 S    
C42   N5    1.457462 S    
C108  H78   1.110830 S    
C121  H112  1.108293 S    
C82   H14   1.110524 S    
C19   O31   1.412253 S    
Cu1   N2    1.985626 S    
Cu3   N4    1.985626 S    
C129  H131  1.108031 S    
C115  C116  1.519559 S    
Cu1   Cu2   2.642427 S    
O12   Cu2   1.934286 S    
O54   C119  1.413822 S    
C126  H125  1.110208 S    
C104  H68   1.110824 S    
C10   C61   1.560812 S    
C107  H77   1.110205 S    
C1    C36   1.419677 S    
C2    C35   1.419677 S    
O10   Cu1   1.936331 S    
C96   H48   1.110719 S    
C90   H34   1.110510 S    
C27   C48   1.538145 S    
C3    C34   1.420197 S    
C84   H18   1.110972 S    
C94   H44   1.110576 S    
C113  H91   1.110438 S    
C104  H69   1.110672 S    
C114  H95   1.108320 S    
C83   H17   1.107731 S    
C87   H26   1.112980 S    
C21   O33   1.411945 S    
C32   C56   1.551973 S    
N7    O41   1.300473 A    
C85   H21   1.110110 S    
C48   C56   1.550716 S    
N12   O52   1.300145 A    
C102  H63   1.110861 S    
C112  H90   1.110859 S    
O14   C6    1.281154 A    
O19   C81   1.413229 S    
C23   O35   1.411480 S    
O7    C7    1.279712 A    
C90   H35   1.109623 S    
C13   C15   1.546126 S    
C14   C16   1.546125 S    
C77   H1    1.112039 S    
C110  H85   1.110211 S    
C79   H7    1.112039 S    
C47   C55   1.550721 S    
N10   O47   1.300497 A    
C30   C41   1.538433 S    
C89   H31   1.110276 S    
C127  H127  1.112758 S    
C14   O60   1.413428 S    
C57   C61   1.560799 S    
C113  C114  1.519533 S    
C59   C63   1.560265 S    
O17   C77   1.413209 S    
C18   O30   1.412243 S    
C54   C70   1.451748 S    
C85   C86   1.519950 S    
C92   H38   1.109622 S    
O27   C97   1.411647 S    
C106  H75   1.110858 S    
C86   H24   1.110585 S    
C111  C112  1.520322 S    
O11   C3    1.279991 A    
C11   C58   1.546164 S    
C30   O26   1.411969 S    
C119  H106  1.112316 S    
C52   C68   1.451502 S    
C103  H67   1.110071 S    
C24   O36   1.411509 S    
C16   C59   1.546736 S    
O6    C6    1.279545 A    
C118  H105  1.110752 S    
C77   C78   1.520671 S    
C22   C26   1.547478 S    
Cu4   N3    1.985627 S    
C35   C67   1.196355 T    
C91   C92   1.520166 S    
C130  H134  1.110483 S    
C89   C90   1.520153 S    
N11   O49   1.300447 A    
O13   Cu4   1.936334 S    
O14   Cu3   1.936331 S    
C132  H139  1.110487 S    
C32   C43   1.538658 S    
C84   H20   1.110555 S    
C17   C50   1.551314 S    
C91   H37   1.110276 S    
C87   C88   1.519942 S    
C11   O53   1.413263 S    
C59   O20   1.413332 S    
C88   H29   1.110583 S    
C123  H117  1.112412 S    
C94   H43   1.110873 S    
C5    C40   1.421048 S    
C6    C39   1.421053 S    
O60   C131  1.415041 S    
C9    C57   1.546518 S    
C115  H96   1.114054 S    
C17   C29   1.547973 S    
O31   C105  1.410969 S    
C82   H13   1.110553 S    
C64   C76   1.497862 S    
C119  C120  1.521155 S    
C40   C72   1.197163 T    
C57   O18   1.413062 S    
O21   C85   1.411683 S    
C92   H40   1.110666 S    
C80   H8    1.110622 S    
C23   C56   1.550427 S    
C111  H86   1.113335 S    
C99   H57   1.110284 S    
C103  H66   1.112947 S    
O1    C1    1.280087 A    
O55   C121  1.413609 S    
C4    C33   1.420199 S    
C28   O24   1.411751 S    
C126  H123  1.110777 S    
C116  H100  1.110470 S    
C58   C62   1.560801 S    
O23   C89   1.411261 S    
C128  H130  1.110778 S    
N7    O42   1.300125 A    
C124  H118  1.110355 S    
N5    O37   1.300464 A    
C109  H81   1.110272 S    
C62   C74   1.498529 S    
C95   H47   1.110170 S    
C98   H54   1.110529 S    
C51   C67   1.451497 S    
N6    O40   1.300170 A    
C122  H113  1.110728 S    
C20   C48   1.539075 S    
O8    Cu3   1.933700 S    
N8    O43   1.300440 A    
C97   H51   1.110282 S    
C9    O55   1.413172 S    
C123  C124  1.520904 S    
O16   Cu4   1.934286 S    
C119  H107  1.108559 S    
O25   C93   1.411578 S    
O8    C8    1.279711 A    
O2    C2    1.280077 A    
C128  H128  1.110209 S    
C87   H27   1.110109 S    
C15   O57   1.413146 S    
C48   N11   1.457239 S    
O56   C123  1.413607 S    
C29   O25   1.411967 S    
C121  C122  1.520905 S    
O53   C117  1.413822 S    
O57   C125  1.413233 S    
C31   C55   1.551977 S    
C112  H88   1.110208 S    
C117  H101  1.108558 S    
C96   H50   1.110872 S    
C129  H132  1.113137 S    
C45   C53   1.549685 S    
C109  C110  1.520331 S    
C81   H11   1.107733 S    
C82   H15   1.110974 S    
C108  H79   1.110383 S    
C27   O23   1.411740 S    
C126  H124  1.110491 S    
N2    C74   1.169076 T    
C19   C52   1.551208 S    
C101  H61   1.110069 S    
N9    O46   1.300181 A    
C17   O29   1.412234 S    
C80   H10   1.110836 S    
O15   C7    1.280428 A    
O16   C8    1.280427 A    
C37   C69   1.196528 T    
N4    C76   1.168854 T    
O1    Cu1   1.932260 S    
C13   O59   1.413430 S    
C50   C66   1.451961 S    
C39   C71   1.197164 T    
C47   N12   1.457233 S    
C10   O56   1.413172 S    
C22   O34   1.411935 S    
C63   C75   1.497858 S    
C78   H5    1.110622 S    
C113  H92   1.114065 S    
C114  H94   1.110280 S    
Cu2   N1    1.985627 S    
C18   C46   1.538633 S    
N5    O38   1.300169 A    
C105  H71   1.110202 S    
C8    C37   1.419975 S    
C98   H55   1.109944 S    
C85   H22   1.112985 S    
C120  H110  1.110528 S    
C100  H59   1.110525 S    
C20   C32   1.548347 S    
C116  H99   1.110296 S    
C81   C82   1.521092 S    
C24   C55   1.550438 S    
C125  H121  1.112758 S    
O29   C101  1.411451 S    
C122  H115  1.110344 S    
C101  C102  1.520363 S    
N9    O45   1.300501 A    
C128  H129  1.110491 S    
C77   H2    1.108066 S    
C110  H84   1.110531 S    
C79   C80   1.520674 S    
C9    C62   1.560809 S    
O9    C1    1.279917 A    
N10   O48   1.300180 A    
C93   H41   1.110171 S    
C102  H65   1.110817 S    
C89   H32   1.113282 S    
C25   C46   1.538301 S    
C118  H103  1.110527 S    
C41   C49   1.549701 S    
C121  H111  1.112418 S    
C97   H52   1.113684 S    
C19   C47   1.539095 S    
C41   N6    1.457462 S    
C105  C106  1.520808 S    
C18   C30   1.547977 S    
C106  H74   1.110381 S    
C86   H23   1.110868 S    
C38   C70   1.196528 T    
C9    C11   1.546185 S    
O22   C87   1.411681 S    
C124  H120  1.110736 S    
C10   C12   1.546189 S    
C103  C104  1.520370 S    
O20   C83   1.413230 S    
C118  H104  1.110662 S    
C58   O17   1.413061 S    
C96   H49   1.110579 S    
C29   C53   1.550994 S    
C44   C52   1.548618 S    
C107  H76   1.112325 S    
C36   C68   1.196357 T    
C93   C94   1.520216 S    
C23   C43   1.537369 S    
Cu3   Cu4   2.642427 S    
C90   H33   1.110666 S    
C84   H19   1.110524 S    
