data_mof_unit_60449.cif
_audit_creation_date              2012-12-10T17:59:55-0500
_audit_creation_method            fapswitch 2.2
_symmetry_space_group_name_H-M    P1
_symmetry_Int_Tables_number       1
_space_group_crystal_system       triclinic
_cell_length_a                    30.740473
_cell_length_b                    31.968114
_cell_length_c                    21.720277
_cell_angle_alpha                 89.440974
_cell_angle_beta                  135.062042
_cell_angle_gamma                 90.441094
_cell_volume                      15076.0024002

loop_
_atom_site_label
_atom_site_type_symbol
_atom_type_description
_atom_site_fract_x
_atom_site_fract_y
_atom_site_fract_z
_atom_type_partial_charge
C1    C     C_R   0.500107 0.000085 0.381072 0.826122
C2    C     C_R   0.000106 0.500094 0.381074 0.826164
C3    C     C_3   0.467272 0.735624 0.514692 -0.156860
C4    C     C_3   0.474589 0.263483 0.527904 -0.157505
C5    C     C_3   0.966170 0.235630 0.512826 -0.156810
C6    C     C_3   0.973393 0.763488 0.526104 -0.157607
C7    C     C_3   0.499918 0.708826 0.498959 0.188316
C8    C     C_3   0.500025 0.291178 0.501016 0.188868
C9    C     C_3   0.999919 0.208826 0.498960 0.188310
C10   C     C_3   0.000031 0.791176 0.501017 0.188786
C11   C     C_3   0.525460 0.763553 0.577197 -0.157360
C12   C     C_3   0.532804 0.235661 0.581921 -0.156129
C13   C     C_3   0.024248 0.263547 0.576557 -0.157324
C14   C     C_3   0.031686 0.735654 0.581543 -0.156080
C15   C     C_3   0.558108 0.736065 0.561466 -0.156941
C16   C     C_3   0.558235 0.264054 0.555030 -0.156149
C17   C     C_3   0.057999 0.236054 0.562693 -0.156949
C18   C     C_3   0.058322 0.764041 0.556454 -0.156079
C19   C     C_1   0.499920 0.837126 0.499516 -0.073684
C20   C     C_1   0.500129 0.162873 0.500563 -0.073111
C21   C     C_1   0.999920 0.337126 0.499517 -0.073689
C22   C     C_1   0.000127 0.662875 0.500567 -0.073126
C23   C     C_1   0.499926 0.662900 0.498947 -0.073322
C24   C     C_1   0.499988 0.337104 0.500988 -0.074501
C25   C     C_1   0.999927 0.162900 0.498947 -0.073326
C26   C     C_1   0.999992 0.837103 0.500989 -0.074522
C27   C     C_R   0.449200 0.985413 0.230283 0.127909
C28   C     C_R   0.949380 0.485133 0.230474 0.127517
C29   C     C_R   0.501162 0.998056 0.315208 -0.170235
C30   C     C_R   0.001173 0.498092 0.315225 -0.170050
C31   C     C_R   0.556039 0.006236 0.337518 -0.289560
C32   C     C_R   0.055948 0.506586 0.337437 -0.289629
C33   C     C_R   0.556451 0.006110 0.273282 0.471201
C34   C     C_R   0.056373 0.506450 0.273214 0.471383
C35   C     C_R   0.499992 0.919832 0.499961 0.823419
C36   C     C_R   0.500050 0.080168 0.500064 0.825367
C37   C     C_R   0.999992 0.419832 0.499961 0.823415
C38   C     C_R   0.000050 0.580168 0.500065 0.825348
C39   C     C_R   0.501157 0.998579 0.186143 -0.172348
C40   C     C_R   0.001184 0.498581 0.186175 -0.172629
C41   C     C_R   0.449452 0.985244 0.166993 0.036979
C42   C     C_R   0.949647 0.484945 0.167201 0.037444
C43   C     C_3   0.384639 0.000511 0.098117 -0.491673
C44   C     C_3   0.884632 0.499813 0.098106 -0.491512
C45   C     C_3   0.384351 0.000870 0.167777 -0.411436
C46   C     C_3   0.884327 0.500193 0.167749 -0.411513
C47   C     C_R   0.470570 0.031378 0.687980 0.101998
C48   C     C_R   0.970735 0.531448 0.688137 0.101891
C49   C     C_R   0.501553 0.000297 0.686857 -0.075415
C50   C     C_R   0.001553 0.500292 0.686853 -0.075250
C51   C     C_R   0.539892 0.972491 0.757934 -0.207063
C52   C     C_R   0.039758 0.472400 0.757795 -0.207134
C53   C     C_R   0.539830 0.972408 0.822336 -0.216732
C54   C     C_R   0.039701 0.472321 0.822202 -0.216670
C55   C     C_R   0.503047 0.001126 0.817363 -0.085915
C56   C     C_R   0.003061 0.501124 0.817374 -0.086066
C57   C     C_R   0.471942 0.032124 0.752901 0.137941
C58   C     C_R   0.972114 0.532194 0.753064 0.138043
C59   C     C_R   0.500151 0.999723 0.618918 0.794662
C60   C     C_R   0.000151 0.499723 0.618916 0.794657
C61   C     C_3   0.406128 0.045350 0.690835 -0.485293
C62   C     C_3   0.906372 0.545586 0.691068 -0.485044
C63   C     C_3   0.404647 0.044392 0.619425 -0.460074
C64   C     C_3   0.904883 0.544626 0.619650 -0.460329
C65   C     C_R   0.381222 0.500325 0.381293 0.795262
C66   C     C_R   0.881220 0.000326 0.381291 0.795286
C67   C     C_R   0.499946 0.580188 0.499687 0.820554
C68   C     C_R   0.499944 0.419813 0.500199 0.825164
C69   C     C_R   0.999946 0.080188 0.499688 0.820553
C70   C     C_R   0.999945 0.919813 0.500200 0.825158
C71   C     C_R   0.618699 0.500330 0.618794 0.794423
C72   C     C_R   0.118697 0.000329 0.618792 0.794417
C73   C     C_R   0.619069 0.999975 0.119158 0.822027
C74   C     C_R   0.119071 0.499976 0.119161 0.821730
C75   C     C_R   0.499383 0.999757 0.118157 0.867245
C76   C     C_R   0.999391 0.499757 0.118167 0.866938
C77   C     C_R   0.380983 0.999924 0.880875 0.793831
C78   C     C_R   0.880985 0.499923 0.880871 0.793806
C79   C     C_R   0.500087 0.000221 0.881001 0.796066
C80   C     C_R   0.000090 0.500221 0.881002 0.796049
C81   C     C_R   0.281952 0.468270 0.254253 0.099338
C82   C     C_R   0.781941 0.968370 0.253991 0.099500
C83   C     C_3   0.474367 0.736471 0.421035 -0.156766
C84   C     C_3   0.467328 0.264313 0.419874 -0.158213
C85   C     C_3   0.975580 0.236477 0.421677 -0.156793
C86   C     C_3   0.968449 0.764318 0.420259 -0.158153
C87   C     C_R   0.314719 0.500034 0.315965 -0.072246
C88   C     C_R   0.814712 0.000026 0.315961 -0.072602
C89   C     C_R   0.282652 0.528969 0.320052 -0.219876
C90   C     C_R   0.782641 0.028830 0.320272 -0.219751
C91   C     C_R   0.718174 0.029069 0.255566 -0.208781
C92   C     C_R   0.218185 0.529207 0.255346 -0.209205
C93   C     C_R   0.685696 0.999454 0.188334 -0.095344
C94   C     C_R   0.185703 0.499461 0.188351 -0.095426
C95   C     C_R   0.718377 0.967780 0.191759 0.131582
C96   C     C_R   0.218389 0.467684 0.192023 0.131777
C97   C     C_3   0.714134 0.953337 0.122456 -0.487373
C98   C     C_3   0.214148 0.453011 0.122837 -0.486924
C99   C     C_3   0.284111 0.453802 0.191342 -0.457846
C100  C     C_3   0.784097 0.954133 0.190965 -0.457410
C101  C     C_R   0.717847 0.469254 0.687705 0.101164
C102  C     C_R   0.217839 0.969158 0.687920 0.100998
C103  C     C_R   0.685286 0.499828 0.686736 -0.076362
C104  C     C_R   0.185280 0.999836 0.686732 -0.076124
C105  C     C_R   0.717699 0.527213 0.757797 -0.207216
C106  C     C_R   0.217687 0.027340 0.757605 -0.207312
C107  C     C_3   0.532560 0.764407 0.483545 -0.156673
C108  C     C_3   0.525538 0.236498 0.473886 -0.155178
C109  C     C_3   0.033663 0.264401 0.485413 -0.156711
C110  C     C_3   0.026738 0.736493 0.475692 -0.155265
C111  C     C_R   0.282187 0.027539 0.821879 -0.218114
C112  C     C_R   0.782197 0.527416 0.822062 -0.218146
C113  C     C_R   0.314364 0.999243 0.816950 -0.084893
C114  C     C_R   0.814369 0.499239 0.816934 -0.084677
C115  C     C_R   0.281407 0.968512 0.752704 0.137640
C116  C     C_R   0.781416 0.468606 0.752484 0.137510
C117  C     C_3   0.285223 0.955954 0.690594 -0.485106
C118  C     C_3   0.785230 0.456259 0.690285 -0.485470
C119  C     C_3   0.715263 0.457112 0.619017 -0.458535
C120  C     C_3   0.215255 0.956800 0.619321 -0.458875
C121  C     C_1   0.499943 0.874875 0.499730 -0.174134
C122  C     C_1   0.500118 0.125124 0.500344 -0.173696
C123  C     C_1   0.999943 0.374875 0.499731 -0.174141
C124  C     C_1   0.000117 0.625125 0.500346 -0.173667
C125  C     C_1   0.499936 0.625148 0.499148 -0.173778
C126  C     C_1   0.499963 0.374855 0.500761 -0.176259
C127  C     C_1   0.999936 0.125148 0.499148 -0.173775
C128  C     C_1   0.999966 0.874854 0.500763 -0.176252
C129  C     C_3   0.441721 0.763963 0.436772 -0.156772
C130  C     C_3   0.441894 0.235923 0.446759 -0.159266
C131  C     C_3   0.941830 0.263974 0.435546 -0.156759
C132  C     C_3   0.941812 0.735936 0.445341 -0.159184
C133  C     C_3   0.499912 0.791202 0.499278 0.188441
C134  C     C_3   0.500105 0.208798 0.500773 0.188553
C135  C     C_3   0.999911 0.291201 0.499279 0.188426
C136  C     C_3   0.000103 0.708801 0.500779 0.188481
Cu1   Cu    Cu3+1 0.438230 0.000000 0.438170 0.940836
Cu2   Cu    Cu3+1 0.938230 0.500000 0.438170 0.940842
Cu3   Cu    Cu3+1 0.561800 0.000000 0.561830 0.949012
Cu4   Cu    Cu3+1 0.061800 0.500000 0.561830 0.949021
Cu5   Cu    Cu3+1 0.499880 0.500000 0.438060 0.943067
Cu6   Cu    Cu3+1 0.999880 0.000000 0.438060 0.943047
Cu7   Cu    Cu3+1 0.500000 0.500000 0.561790 0.950046
Cu8   Cu    Cu3+1 1.000000 0.000000 0.561790 0.950083
Cu9   Cu    Cu3+1 0.500030 0.958570 0.000020 0.939643
Cu10  Cu    Cu3+1 0.500030 0.041430 0.000020 0.959161
Cu11  Cu    Cu3+1 0.000030 0.458570 0.000020 0.939652
Cu12  Cu    Cu3+1 0.000030 0.541430 0.000020 0.959374
H1    H     H_    0.559423 0.776711 0.470733 0.130736
H2    H     H_    0.546499 0.224948 0.451653 0.132313
H3    H     H_    0.061430 0.276702 0.474135 0.130771
H4    H     H_    0.048681 0.724931 0.454943 0.132379
H5    H     H_    0.352574 0.977311 0.156526 0.194579
H6    H     H_    0.380748 0.032830 0.183617 0.198216
H7    H     H_    0.852859 0.476446 0.156820 0.194517
H8    H     H_    0.880292 0.532135 0.183133 0.198377
H9    H     H_    0.567370 0.949635 0.761300 0.149810
H10   H     H_    0.067121 0.449481 0.761046 0.149706
H11   H     H_    0.567311 0.949539 0.874657 0.152518
H12   H     H_    0.067070 0.449389 0.874410 0.152614
H13   H     H_    0.401229 0.077370 0.704796 0.203106
H14   H     H_    0.376298 0.021212 0.682967 0.186304
H15   H     H_    0.901648 0.577621 0.705196 0.203085
H16   H     H_    0.876409 0.521526 0.683070 0.186276
H17   H     H_    0.398855 0.075861 0.592200 0.195251
H18   H     H_    0.374012 0.019618 0.570199 0.211414
H19   H     H_    0.899259 0.576107 0.592587 0.195246
H20   H     H_    0.874114 0.519927 0.570294 0.211446
H21   H     H_    0.307321 0.552471 0.370608 0.153911
H22   H     H_    0.807308 0.052237 0.371010 0.154088
H23   H     H_    0.693857 0.052582 0.257270 0.181849
H24   H     H_    0.193872 0.552816 0.256868 0.181807
H25   H     H_    0.692480 0.976937 0.069659 0.193375
H26   H     H_    0.694621 0.921268 0.099764 0.199363
H27   H     H_    0.192496 0.476503 0.069863 0.193337
H28   H     H_    0.194636 0.420930 0.100390 0.199370
H29   H     H_    0.303131 0.477846 0.178281 0.212202
H30   H     H_    0.304900 0.422180 0.208266 0.193447
H31   H     H_    0.803115 0.978289 0.178083 0.212151
H32   H     H_    0.804885 0.922527 0.207643 0.193464
H33   H     H_    0.693282 0.549662 0.761274 0.150765
H34   H     H_    0.193267 0.049876 0.760922 0.150620
H35   H     H_    0.453353 0.724870 0.356790 0.132183
H36   H     H_    0.440337 0.276538 0.353165 0.130396
H37   H     H_    0.955572 0.224877 0.357967 0.132189
H38   H     H_    0.942444 0.776578 0.353911 0.130490
H39   H     H_    0.306751 0.050123 0.874124 0.152235
H40   H     H_    0.806766 0.549912 0.874463 0.152072
H41   H     H_    0.304607 0.924023 0.704747 0.203164
H42   H     H_    0.306719 0.980428 0.682436 0.186366
H43   H     H_    0.804611 0.424345 0.704213 0.203178
H44   H     H_    0.806730 0.480826 0.682298 0.186374
H45   H     H_    0.694329 0.425689 0.591837 0.195146
H46   H     H_    0.696193 0.482253 0.569759 0.211440
H47   H     H_    0.194324 0.925355 0.592367 0.195150
H48   H     H_    0.196180 0.981843 0.569885 0.211487
H49   H     H_    0.605994 0.724127 0.612759 0.130066
H50   H     H_    0.606119 0.276068 0.599641 0.130563
H51   H     H_    0.105794 0.224103 0.614988 0.130043
H52   H     H_    0.106252 0.776072 0.602152 0.130578
H53   H     H_    0.546474 0.775151 0.641443 0.129957
H54   H     H_    0.559791 0.223432 0.648627 0.131585
H55   H     H_    0.044255 0.275144 0.640268 0.129944
H56   H     H_    0.057687 0.723392 0.647887 0.131552
H57   H     H_    0.440406 0.723324 0.527502 0.131832
H58   H     H_    0.453627 0.275037 0.550133 0.131334
H59   H     H_    0.938400 0.223332 0.524103 0.131820
H60   H     H_    0.951448 0.775053 0.546849 0.131307
H61   H     H_    0.393835 0.775900 0.385480 0.132440
H62   H     H_    0.394010 0.223912 0.402145 0.130848
H63   H     H_    0.894035 0.275925 0.383252 0.132423
H64   H     H_    0.893880 0.723908 0.399640 0.130869
H65   H     H_    0.597924 0.014470 0.403614 0.183677
H66   H     H_    0.097723 0.515066 0.403427 0.183570
H67   H     H_    0.353210 0.976662 0.046910 0.203098
H68   H     H_    0.381077 0.032221 0.073318 0.196991
H69   H     H_    0.853523 0.475766 0.047234 0.203149
H70   H     H_    0.880649 0.531493 0.072862 0.196771
O1    O     O_R   0.447840 0.000000 0.357610 -0.587480
O2    O     O_R   0.947840 0.500000 0.357610 -0.587505
O3    O     O_R   0.500000 0.560470 0.552180 -0.583482
O4    O     O_R   0.500000 0.439530 0.552180 -0.578412
O5    O     O_R   1.000000 0.060470 0.552180 -0.583475
O6    O     O_R   1.000000 0.939530 0.552180 -0.578404
O7    O     O_R   0.590030 0.500000 0.537810 -0.587366
O8    O     O_R   0.090030 0.000000 0.537810 -0.587359
O9    O     O_R   0.590140 0.500000 0.642300 -0.585786
O10   O     O_R   0.090140 0.000000 0.642300 -0.585759
O11   O     O_R   0.590180 0.965000 0.090240 -0.592259
O12   O     O_R   0.590180 0.035000 0.090240 -0.578597
O13   O     O_R   0.090180 0.465000 0.090240 -0.592298
O14   O     O_R   0.090180 0.535000 0.090240 -0.578496
O15   O     O_R   0.500040 0.965010 0.090190 -0.597718
O16   O     O_R   0.500040 0.034990 0.090190 -0.571608
O17   O     O_R   0.000040 0.465010 0.090190 -0.597687
O18   O     O_R   0.000040 0.534990 0.090190 -0.571233
O19   O     O_R   0.409890 0.965030 0.909800 -0.585181
O20   O     O_R   0.409890 0.034970 0.909800 -0.592210
O21   O     O_R   0.909890 0.465030 0.909800 -0.585167
O22   O     O_R   0.909890 0.534970 0.909800 -0.592185
O23   O     O_R   0.500040 0.965020 0.909850 -0.589889
O24   O     O_R   0.500040 0.034980 0.909850 -0.584974
O25   O     O_R   0.000040 0.465020 0.909850 -0.589910
O26   O     O_R   0.000040 0.534980 0.909850 -0.584985
O27   O     O_R   0.552190 0.000000 0.462050 -0.590782
O28   O     O_R   0.052190 0.500000 0.462050 -0.590772
O29   O     O_R   0.447840 0.939540 0.447780 -0.580879
O30   O     O_R   0.447840 0.060460 0.447780 -0.583719
O31   O     O_R   0.947840 0.439540 0.447780 -0.580892
O32   O     O_R   0.947840 0.560460 0.447780 -0.583704
O33   O     O_R   0.552190 0.939560 0.552210 -0.582290
O34   O     O_R   0.552190 0.060440 0.552210 -0.578451
O35   O     O_R   0.052190 0.439560 0.552210 -0.582269
O36   O     O_R   0.052190 0.560440 0.552210 -0.578489
O37   O     O_R   0.447840 0.000000 0.537950 -0.587583
O38   O     O_R   0.947840 0.500000 0.537950 -0.587575
O39   O     O_R   0.552190 0.000000 0.642390 -0.585573
O40   O     O_R   0.052190 0.500000 0.642390 -0.585546
O41   O     O_R   0.409740 0.500000 0.357550 -0.587189
O42   O     O_R   0.909740 0.000000 0.357550 -0.587205
O43   O     O_R   0.409840 0.500000 0.462040 -0.586119
O44   O     O_R   0.909840 0.000000 0.462040 -0.586126
O45   O     O_R   0.499890 0.560480 0.447700 -0.579777
O46   O     O_R   0.499890 0.439520 0.447700 -0.582635
O47   O     O_R   0.999890 0.060480 0.447700 -0.579783
O48   O     O_R   0.999890 0.939520 0.447700 -0.582646
O49   O     O_3   0.609224 0.017202 0.294357 -0.578838
C137  C     C_3   0.647493 0.981722 0.329144 -0.342645
H71   H     H_    0.624710 0.956175 0.280273 0.165430
H72   H     H_    0.661547 0.970383 0.389760 0.162965
H73   H     H_    0.690060 0.990490 0.346579 0.198533
O50   O     O_3   0.109024 0.517819 0.294174 -0.578562
C138  C     C_3   0.147693 0.482540 0.329370 -0.342619
H74   H     H_    0.125246 0.456907 0.280729 0.165215
H75   H     H_    0.161778 0.471222 0.390018 0.162951
H76   H     H_    0.190221 0.491548 0.346880 0.198547

loop_
_geom_bond_atom_site_label_1
_geom_bond_atom_site_label_2
_ccdc_geom_bond_type
Cu10  O16   S    
Cu5   O45   S    
Cu6   O47   S    
C73   C93   S    
Cu2   O31   S    
Cu9   Cu10  S    
C39   C41   A    
C46   H7    S    
C120  H48   S    
Cu4   O40   S    
C86   C110  S    
C110  H4    S    
C67   C125  S    
C69   O47   A    
C15   H49   S    
C138  H76   S    
C60   O40   A    
C61   C63   S    
C62   C64   S    
Cu11  O13   S    
C63   H18   S    
C12   C16   S    
O50   C138  S    
C49   C51   A    
C50   C52   A    
C4    C12   S    
C5    C13   S    
C48   C50   A    
C8    C16   S    
C3    C129  S    
C2    O2    A    
C41   C43   S    
C34   O50   S    
C130  C134  S    
C42   C44   S    
C77   C113  S    
C44   C46   S    
C65   C87   S    
C52   H10   S    
C53   H11   S    
C97   H25   S    
C59   O37   A    
C44   H70   S    
C6    C132  S    
Cu1   O30   S    
C4    C130  S    
C81   C99   S    
C51   H9    S    
C40   C76   S    
C32   C34   A    
C21   C123  T    
C69   O5    A    
C5    H59   S    
C118  H43   S    
C62   H15   S    
Cu11  O25   S    
C92   C94   A    
C83   H35   S    
C111  C113  A    
C94   C96   A    
Cu1   O37   S    
Cu2   Cu4   S    
C129  C133  S    
C38   O36   A    
C105  C112  A    
C137  H72   S    
C87   C89   A    
C77   O20   A    
Cu6   Cu8   S    
C129  H61   S    
Cu3   O27   S    
C16   H50   S    
C109  H3    S    
Cu12  O22   S    
C68   O4    A    
Cu7   O9    S    
C74   O13   A    
Cu4   O35   S    
C17   C109  S    
C67   O45   A    
C95   C97   S    
C57   C61   S    
C3    C7    S    
C91   H23   S    
C89   H21   S    
C1    O27   A    
C85   C131  S    
C98   H27   S    
C10   C86   S    
C10   C18   S    
C84   C130  S    
C36   O34   A    
C116  C118  S    
C17   H51   S    
C79   O23   A    
C2    O28   A    
C3    C11   S    
C6    H60   S    
C107  C133  S    
C98   C99   S    
C45   H6    S    
C20   C134  S    
C21   C135  S    
C113  C115  A    
C7    C83   S    
C109  C135  S    
C110  C136  S    
Cu11  Cu12  S    
C86   C132  S    
C112  C114  A    
C28   C46   S    
Cu4   O28   S    
C65   O41   A    
C92   H24   S    
C83   C129  S    
C64   H19   S    
C66   O42   A    
C66   C88   S    
C47   C57   A    
C60   O38   A    
C67   O3    A    
C9    C85   S    
C37   C123  S    
Cu10  O20   S    
C14   H56   S    
C39   C75   S    
C20   C122  T    
C32   H66   S    
C40   C42   A    
C93   C95   A    
C12   C134  S    
C24   C126  T    
C13   C135  S    
Cu10  O24   S    
C11   C15   S    
C43   H68   S    
C70   O48   A    
C106  C111  A    
C85   H37   S    
C61   H14   S    
C3    H57   S    
C84   H36   S    
C99   H30   S    
C76   O18   A    
Cu6   O42   S    
C119  H45   S    
C5    C9    S    
C6    C14   S    
C132  C136  S    
Cu1   O1    S    
C103  C105  A    
C43   C45   S    
C117  H41   S    
C108  H2    S    
C18   H52   S    
C100  H32   S    
C68   O46   A    
C97   C100  S    
C112  H40   S    
C71   C103  S    
C19   C121  T    
C82   C95   A    
C65   O43   A    
Cu6   O48   S    
Cu2   O32   S    
C114  C116  A    
O49   C137  S    
C31   H65   S    
Cu11  O21   S    
C46   H8    S    
C49   C59   S    
C80   O25   A    
C13   C17   S    
C2    C30   S    
C50   C60   S    
C131  H63   S    
C38   O32   A    
C7    C23   S    
C7    C15   S    
C8    C24   S    
C56   C58   A    
C107  H1    S    
C63   H17   S    
C101  C103  A    
Cu12  O26   S    
C105  H33   S    
C38   C124  S    
C58   C62   S    
C78   O21   A    
Cu9   O15   S    
C71   O7    A    
C74   C94   S    
Cu3   O34   S    
Cu8   O44   S    
Cu7   O4    S    
C104  C106  A    
C9    C25   S    
Cu1   Cu3   S    
C85   C109  S    
Cu5   Cu7   S    
C47   C63   S    
Cu1   O29   S    
C48   C64   S    
C27   C29   A    
C75   O16   A    
C15   C107  S    
Cu8   O5    S    
Cu9   O11   S    
C102  C115  A    
C118  H44   S    
C62   H16   S    
C115  C117  S    
C70   O6    A    
Cu12  O14   S    
C27   C45   S    
C72   O8    A    
C77   O19   A    
C78   C114  S    
C71   O9    A    
Cu2   O38   S    
C73   O11   A    
Cu6   O8    S    
C120  H47   S    
C35   C121  S    
C74   O14   A    
C117  C120  S    
C81   C96   A    
C72   C104  S    
C22   C136  S    
C108  C134  S    
C91   C93   A    
C98   H28   S    
C35   O33   A    
Cu5   O41   S    
C22   C124  T    
C81   C87   A    
C88   C90   A    
C86   H38   S    
C37   O35   A    
C34   C40   A    
Cu4   O36   S    
C102  C120  S    
C97   H26   S    
C8    C84   S    
C44   H69   S    
C18   C110  S    
C56   C80   S    
C6    C10   S    
C48   C58   A    
C19   C133  S    
C111  H39   S    
C25   C127  T    
C64   H20   S    
C90   C91   A    
C14   C136  S    
Cu3   O39   S    
C28   C30   A    
C84   C108  S    
C51   C53   A    
C54   H12   S    
C13   H55   S    
C5    C131  S    
C137  H71   S    
C69   C127  S    
C72   O10   A    
C101  C116  A    
C59   O39   A    
C66   O44   A    
Cu11  O17   S    
C14   C18   S    
C132  H64   S    
C4    C8    S    
C43   H67   S    
C47   C49   A    
C33   C39   A    
C33   O49   S    
C61   H13   S    
C99   H29   S    
C131  C135  S    
C11   C133  S    
C82   C88   A    
C55   C79   S    
C11   H53   S    
C79   O24   A    
C118  C119  S    
C106  H34   S    
C138  H75   S    
Cu9   O19   S    
C31   C33   A    
Cu7   O43   S    
C23   C125  T    
C10   C26   S    
Cu2   O2    S    
C1    C29   S    
C73   O12   A    
C52   C54   A    
C53   C55   A    
Cu5   O7    S    
C54   C56   A    
C101  C119  S    
C80   O26   A    
C96   C98   S    
Cu12  O18   S    
C36   C122  S    
C27   C41   A    
C137  H73   S    
C90   H22   S    
C138  H74   S    
Cu9   O23   S    
C1    O1    A    
C26   C128  T    
C89   C92   A    
C102  C104  A    
C9    C17   S    
C12   H54   S    
C36   O30   A    
Cu5   O46   S    
C130  H62   S    
C68   C126  S    
Cu10  O12   S    
C70   C128  S    
C78   O22   A    
C82   C100  S    
Cu3   O33   S    
Cu7   O3    S    
C4    H58   S    
C35   O29   A    
C119  H46   S    
C55   C57   A    
C29   C31   A    
C30   C32   A    
C37   O31   A    
C28   C42   A    
C83   C107  S    
C75   O15   A    
C76   O17   A    
Cu8   O6    S    
C117  H42   S    
C16   C108  S    
C45   H5    S    
Cu8   O10   S    
C100  H31   S    
