data_mof_unit_61454.cif
_audit_creation_date              2013-03-05T16:19:21-0500
_audit_creation_method            fapswitch 2.2
_symmetry_space_group_name_H-M    P1
_symmetry_Int_Tables_number       1
_space_group_crystal_system       triclinic
_cell_length_a                    18.773394
_cell_length_b                    18.923111
_cell_length_c                    18.668505
_cell_angle_alpha                 109.328977
_cell_angle_beta                  109.066221
_cell_angle_gamma                 109.550174
_cell_volume                      5134.54452294

loop_
_atom_site_label
_atom_site_type_symbol
_atom_site_description
_atom_site_fract_x
_atom_site_fract_y
_atom_site_fract_z
_atom_type_partial_charge
O1    O     O_R   0.090180 0.947810 0.537990 -0.592812
O2    O     O_R   0.090150 0.052180 0.642350 -0.585544
C1    C     C_R   0.119199 0.000673 0.618921 0.775963
O3    O     O_R   0.090190 0.037990 0.447830 -0.591529
O4    O     O_R   0.090170 0.142360 0.552190 -0.585147
C2    C     C_R   0.120189 0.118226 0.501040 0.760712
Cu1   Cu    Cu3+1 0.000020 0.938200 0.438210 1.017478
Cu2   Cu    Cu3+1 0.999980 0.061800 0.561790 1.022450
O5    O     O_R   0.909850 0.947820 0.357650 -0.578976
O6    O     O_R   0.909820 0.052190 0.462010 -0.529770
O7    O     O_R   0.909830 0.857640 0.447810 -0.548614
O8    O     O_R   0.909810 0.962010 0.552170 -0.577934
C3    C     C_R   0.878617 0.997598 0.381114 0.847121
C4    C     C_R   0.880721 0.881661 0.499971 0.811732
H1    H     H_    0.118345 0.250046 0.481573 0.152715
C5    C     C_R   0.283529 0.119360 0.531664 -0.245683
H2    H     H_    0.239725 0.074466 0.541599 0.156207
C6    C     C_R   0.358355 0.115673 0.539494 -0.138989
H3    H     H_    0.368061 0.067049 0.552495 0.142761
C7    C     C_R   0.418721 0.172647 0.528835 0.310699
C8    C     C_R   0.402274 0.232938 0.509289 -0.255815
H4    H     H_    0.447300 0.272611 0.496406 0.146517
C9    C     C_R   0.329060 0.240987 0.505778 0.069958
C10   C     C_R   0.266803 0.180471 0.512989 0.095246
C11   C     C_R   0.189963 0.183505 0.502566 -0.072166
C12   C     C_R   0.177212 0.247720 0.489509 -0.205803
H5    H     H_    0.228390 0.358981 0.477066 0.159687
C13   C     C_R   0.239301 0.308861 0.485532 -0.198897
C14   C     C_R   0.315475 0.307019 0.494349 -0.085826
C15   C     C_R   0.170302 0.927500 0.693365 0.055806
C16   C     C_R   0.185343 0.001776 0.686910 -0.106971
C17   C     C_R   0.261548 0.079759 0.752957 -0.199734
H6    H     H_    0.272531 0.139492 0.752378 0.151591
C18   C     C_R   0.326335 0.079852 0.817291 -0.194114
H7    H     H_    0.386317 0.139781 0.865794 0.156788
C19   C     C_R   0.313964 0.002259 0.817130 -0.112437
C20   C     C_R   0.233462 0.927650 0.757582 0.021096
C21   C     C_3   0.213210 0.839419 0.697338 0.007170
C22   C     C_3   0.141306 0.838302 0.626720 0.069927
H8    H     H_    0.267792 0.841081 0.685053 0.101445
H9    H     H_    0.152836 0.836458 0.571531 0.112950
C23   C     C_R   0.797353 0.731848 0.466907 0.068923
C24   C     C_R   0.813507 0.816293 0.500600 -0.106761
C25   C     C_R   0.761939 0.835684 0.535967 -0.155002
H10   H     H_    0.770979 0.900243 0.562722 0.188744
C26   C     C_R   0.696666 0.770507 0.535321 -0.211127
H11   H     H_    0.656809 0.785922 0.561475 0.140358
C27   C     C_R   0.684203 0.686213 0.501634 -0.039511
C28   C     C_R   0.737343 0.670443 0.469652 0.052642
C29   C     C_3   0.753453 0.601062 0.424951 -0.561505
C30   C     C_3   0.821721 0.670824 0.421073 0.183310
H12   H     H_    0.782131 0.578677 0.468850 0.180321
H13   H     H_    0.696303 0.549199 0.360751 0.219217
H14   H     H_    0.889554 0.686838 0.459661 0.119185
C31   C     C_R   0.785185 0.951478 0.227449 0.118091
C32   C     C_R   0.805133 0.991285 0.314408 -0.244323
C33   C     C_R   0.753522 0.025731 0.335373 0.269362
C34   C     C_R   0.694809 0.033343 0.271867 0.118577
C35   C     C_R   0.683604 0.000461 0.186856 -0.147062
C36   C     C_R   0.724666 0.954809 0.164647 0.038722
C37   C     C_3   0.776262 0.963709 0.118752 -0.469025
C38   C     C_3   0.843018 0.960004 0.188054 -0.413494
H15   H     H_    0.742629 0.906665 0.052801 0.202184
H16   H     H_    0.800569 0.027197 0.121184 0.209520
H17   H     H_    0.847836 0.900801 0.162023 0.211741
H18   H     H_    0.906120 0.021380 0.230876 0.187872
O9    O     O_R   0.447770 0.590190 0.538000 -0.588355
O10   O     O_R   0.552150 0.590170 0.642370 -0.581523
C39   C     C_R   0.499875 0.618561 0.619058 0.795067
O11   O     O_R   0.357600 0.409850 0.447820 -0.584804
O12   O     O_R   0.461980 0.409830 0.552180 -0.590888
C40   C     C_R   0.381449 0.377997 0.497074 0.784557
Cu3   Cu    Cu3+1 0.438170 0.500030 0.438220 0.958921
Cu4   Cu    Cu3+1 0.561770 0.500000 0.561810 0.953449
O13   O     O_R   0.447790 0.409860 0.357660 -0.580778
O14   O     O_R   0.552170 0.409840 0.462020 -0.595566
O15   O     O_R   0.537960 0.590200 0.447840 -0.578881
O16   O     O_R   0.642340 0.590180 0.552210 -0.584414
C41   C     C_R   0.500276 0.381909 0.381361 0.806675
C42   C     C_R   0.618368 0.618692 0.500131 0.803346
O17   O     O_R   0.552220 0.142430 0.090190 -0.589785
O18   O     O_R   0.447830 0.038100 0.090230 -0.587445
C43   C     C_R   0.500079 0.118052 0.119623 0.836415
O19   O     O_R   0.462030 0.052220 0.909860 -0.588263
O20   O     O_R   0.357640 0.947890 0.909900 -0.594557
C44   C     C_R   0.381219 0.000159 0.881219 0.795854
Cu5   Cu    Cu3+1 0.561810 0.061820 0.000030 0.948770
Cu6   Cu    Cu3+1 0.438190 0.938280 0.000080 0.955475
O21   O     O_R   0.552170 0.962000 0.909870 -0.583142
O22   O     O_R   0.447780 0.857670 0.909910 -0.588996
O23   O     O_R   0.642360 0.052210 0.090200 -0.599616
O24   O     O_R   0.537970 0.947880 0.090240 -0.568812
C45   C     C_R   0.500410 0.881679 0.881212 0.787200
C46   C     C_R   0.618451 0.999970 0.118708 0.871114
C47   C     C_R   0.510024 0.761039 0.683797 0.099268
C48   C     C_R   0.502660 0.686512 0.687210 -0.084086
C49   C     C_R   0.506856 0.682150 0.762133 -0.200112
H19   H     H_    0.506094 0.627220 0.768834 0.159450
C50   C     C_R   0.506369 0.746346 0.826326 -0.213920
H20   H     H_    0.505458 0.740228 0.881746 0.159980
C51   C     C_R   0.504790 0.816720 0.817341 -0.085690
C52   C     C_R   0.512303 0.825724 0.748493 0.141993
C53   C     C_3   0.458302 0.842562 0.684601 -0.495163
C54   C     C_3   0.455727 0.771340 0.613535 -0.449763
H21   H     H_    0.393898 0.826459 0.680362 0.184088
H22   H     H_    0.495199 0.907557 0.693726 0.205617
H23   H     H_    0.389769 0.713905 0.568110 0.210919
H24   H     H_    0.491179 0.795299 0.581723 0.198810
C55   C     C_R   0.504123 0.318571 0.245303 0.102480
C56   C     C_R   0.498274 0.313732 0.315561 -0.121868
C57   C     C_R   0.490313 0.239409 0.321160 -0.247063
H25   H     H_    0.483273 0.234013 0.374630 0.148147
C58   C     C_R   0.487382 0.171248 0.255797 0.232871
C59   C     C_R   0.498586 0.182155 0.187260 -0.164136
C60   C     C_R   0.506904 0.257147 0.185834 0.075647
C61   C     C_3   0.511602 0.300805 0.132883 -0.436358
C62   C     C_3   0.508814 0.371341 0.201160 -0.434567
H26   H     H_    0.574504 0.323006 0.133061 0.215966
H27   H     H_    0.452588 0.263272 0.067574 0.190966
H28   H     H_    0.569905 0.434172 0.240349 0.203190
H29   H     H_    0.448320 0.374570 0.175088 0.208574
N1    N     N_2   0.181943 0.777082 0.724276 -0.389383
H30   H     H_    0.210055 0.801944 0.790872 0.278749
C63   C     C_3   0.180062 0.696962 0.680669 -0.681330
H31   H     H_    0.145983 0.649868 0.697340 0.232023
H32   H     H_    0.247366 0.708147 0.702108 0.223088
H33   H     H_    0.144990 0.669136 0.608820 0.227612
N2    N     N_2   0.052703 0.774493 0.596713 -0.402170
H34   H     H_    0.037990 0.711294 0.564621 0.265025
C64   C     C_3   0.011370 0.790168 0.649214 -0.616171
H35   H     H_    0.945927 0.733453 0.617347 0.199352
H36   H     H_    0.003160 0.846902 0.654934 0.213997
H37   H     H_    0.050126 0.801059 0.715060 0.247873
N3    N     N_R   0.798080 0.655461 0.332313 0.165978
O25   O     O_R   0.722122 0.640248 0.280218 -0.343691
O26   O     O_R   0.854261 0.658651 0.305432 -0.351686
N4    N     N_R   0.760896 0.053470 0.420202 0.130998
O27   O     O_R   0.744524 0.998720 0.448252 -0.364521
O28   O     O_R   0.785937 0.133581 0.470406 -0.372654
N5    N     N_2   0.650099 0.077145 0.294081 -0.399246
H38   H     H_    0.633632 0.069787 0.339676 0.296728
C65   C     C_3   0.691056 0.166208 0.314150 -0.608324
H39   H     H_    0.655048 0.197252 0.334189 0.229904
H40   H     H_    0.691141 0.170011 0.256128 0.221958
H41   H     H_    0.758957 0.202768 0.368556 0.243863
N6    N     N_2   0.471742 0.092286 0.256984 -0.404996
H42   H     H_    0.414738 0.039251 0.204169 0.275965
C66   C     C_3   0.487217 0.090880 0.337570 -0.675712
H43   H     H_    0.484944 0.029323 0.329979 0.241317
H44   H     H_    0.435888 0.094608 0.353166 0.228457
H45   H     H_    0.552420 0.144807 0.391663 0.237492
N7    N     N_2   0.494877 0.168397 0.535081 -0.441967
H46   H     H_    0.531292 0.208543 0.519272 0.244098
C67   C     C_3   0.548103 0.171019 0.613249 -0.659151
H47   H     H_    0.606986 0.171167 0.612263 0.238056
H48   H     H_    0.512602 0.113324 0.616787 0.224813
H49   H     H_    0.568685 0.230518 0.672038 0.227184

loop_
_geom_bond_atom_site_label_1
_geom_bond_atom_site_label_2
_geom_bond_distance
_ccdc_geom_bond_type
Cu5   Cu6   2.687550 S    
C51   C52   1.395790 A    
Cu5   O23   1.969028 S    
C47   C48   1.395278 A    
Cu3   Cu4   2.685447 S    
Cu6   O22   1.968465 S    
C57   H25   1.081172 S    
C65   H41   1.110827 S    
O19   Cu5   1.971112 S    
C31   C32   1.395553 A    
C39   C48   1.450324 S    
N2    H34   1.030526 S    
C59   C60   1.385032 A    
C55   C62   1.489067 S    
Cu1   Cu2   2.687602 S    
C22   H9    1.112007 S    
O20   C44   1.293582 A    
C32   C33   1.420724 A    
Cu1   O7    1.968381 S    
N4    O28   1.300831 A    
Cu4   O14   1.970947 S    
C9    C14   1.423401 A    
C19   C20   1.395888 A    
O19   C44   1.295789 A    
C18   H7    1.083240 S    
C15   C16   1.392312 A    
O7    C4    1.293974 A    
O16   C42   1.289480 A    
O20   Cu6   1.969148 S    
C2    C11   1.453257 S    
O10   Cu4   1.972516 S    
C60   C61   1.488715 S    
C31   C38   1.492882 S    
C61   C62   1.540486 S    
C6    C7    1.399254 A    
C6    H3    1.081610 S    
C37   H15   1.111714 S    
C62   H29   1.111484 S    
C56   C57   1.406454 A    
O5    C3    1.298937 A    
C49   C50   1.401002 A    
C57   C58   1.422112 A    
Cu6   O24   1.971015 S    
O10   C39   1.292183 A    
C29   H12   1.111349 S    
C9    C10   1.415859 A    
C66   H45   1.110737 S    
O9    Cu3   1.970829 S    
C35   C46   1.443129 S    
C67   H48   1.109066 S    
C41   C56   1.436334 S    
C47   C52   1.382513 A    
C23   C30   1.493355 S    
C14   C40   1.463174 S    
C35   C36   1.389170 A    
C5    C10   1.412712 A    
C31   C36   1.376942 A    
Cu3   O13   1.972515 S    
C43   C59   1.448635 S    
C52   C53   1.493229 S    
O3    Cu1   1.975137 S    
O17   C43   1.299955 A    
C25   C26   1.411350 A    
C49   H19   1.083342 S    
N6    C66   1.447252 S    
C21   C22   1.536376 S    
C26   C27   1.408762 A    
C29   H13   1.107827 S    
C38   H18   1.112287 S    
C10   C11   1.414753 A    
C67   H49   1.111432 S    
O3    C2    1.293449 A    
C62   H28   1.107965 S    
C45   C51   1.449462 S    
C5    H2    1.081087 S    
H1    C12   1.084020 S    
N3    O26   1.300419 A    
C19   C44   1.450976 S    
C11   C12   1.394977 A    
C7    N7    1.427707 S    
C15   C20   1.382008 A    
C36   C37   1.493080 S    
O1    C1    1.295061 A    
C17   C18   1.401635 A    
C58   N6    1.432440 S    
C37   H16   1.112236 S    
C64   H36   1.110566 S    
C24   C25   1.415192 A    
C20   C21   1.499918 S    
O12   Cu4   1.972546 S    
C50   H20   1.083327 S    
Cu2   O8    1.975137 S    
C48   C49   1.406475 A    
O11   Cu3   1.970826 S    
O24   C46   1.291797 A    
C29   C30   1.543415 S    
C33   N4    1.435424 S    
C53   H21   1.111731 S    
C21   N1    1.452961 S    
N5    H38   1.030069 S    
C1    C16   1.445257 S    
C67   H47   1.110656 S    
O17   Cu5   1.968346 S    
N6    H42   1.030240 S    
C63   H33   1.110562 S    
Cu2   O6    1.969189 S    
C27   C28   1.382471 A    
C50   C51   1.404808 A    
O8    C4    1.294377 A    
O18   C43   1.287555 A    
C8    C9    1.415816 A    
C65   H40   1.109565 S    
C64   H37   1.109297 S    
C23   C24   1.388088 A    
N1    C63   1.446014 S    
C54   H24   1.111634 S    
C47   C54   1.492085 S    
O22   C45   1.294687 A    
C63   H32   1.111767 S    
C58   C59   1.430195 A    
N7    C67   1.447995 S    
O15   C42   1.290921 A    
C34   N5    1.424438 S    
Cu1   O5    1.970973 S    
C26   H11   1.083445 S    
C13   C14   1.398826 A    
C22   N2    1.462144 S    
C38   H17   1.111555 S    
O1    Cu1   1.969189 S    
C16   C17   1.405265 A    
O2    Cu2   1.970976 S    
C25   H10   1.082896 S    
C66   H44   1.110649 S    
O6    C3    1.294351 A    
N2    C64   1.452298 S    
O4    Cu2   1.968381 S    
N3    O25   1.302304 A    
N5    C65   1.448606 S    
N4    O27   1.301239 A    
C12   C13   1.383333 A    
C61   H27   1.111766 S    
C30   H14   1.109206 S    
C17   H6    1.083440 S    
C3    C32   1.461855 S    
Cu5   O21   1.975166 S    
C64   H35   1.110186 S    
C34   C35   1.410918 A    
O12   C40   1.292670 A    
C55   C56   1.381180 A    
O23   C46   1.292024 A    
C21   H8    1.113703 S    
C27   C42   1.434448 S    
C33   C34   1.416606 A    
O4    C2    1.293497 A    
O18   Cu6   1.975067 S    
C30   N3    1.463377 S    
C61   H26   1.111514 S    
C15   C22   1.498557 S    
O2    C1    1.291541 A    
C53   H22   1.111548 S    
C18   C19   1.406510 A    
C66   H43   1.110080 S    
O21   C45   1.293912 A    
C37   C38   1.519505 S    
C55   C60   1.345558 A    
C23   C28   1.350186 A    
O14   C41   1.290728 A    
C7    C8    1.402811 A    
C5    C6    1.392025 A    
C28   C29   1.488935 S    
Cu4   O16   1.970825 S    
C53   C54   1.519766 S    
Cu3   O15   1.972638 S    
C65   H39   1.107940 S    
C63   H31   1.110173 S    
O11   C40   1.299150 A    
N7    H46   1.031617 S    
O9    C39   1.295619 A    
N1    H30   1.031250 S    
C8    H4    1.078701 S    
O13   C41   1.290477 A    
C54   H23   1.112110 S    
C4    C24   1.448135 S    
H5    C13   1.083774 S    
