data_mof_unit_40690.cif
_audit_creation_date              2012-12-10T16:54:52-0500
_audit_creation_method            fapswitch 2.2
_symmetry_space_group_name_H-M    P1
_symmetry_Int_Tables_number       1
_space_group_crystal_system       triclinic
_cell_length_a                    7.772702
_cell_length_b                    8.568095
_cell_length_c                    15.712232
_cell_angle_alpha                 90.967186
_cell_angle_beta                  85.761809
_cell_angle_gamma                 93.638423
_cell_volume                      1041.34854664

loop_
_atom_site_label
_atom_site_type_symbol
_atom_type_description
_atom_site_fract_x
_atom_site_fract_y
_atom_site_fract_z
_atom_type_partial_charge
C1    C     C_R   0.545740 0.794716 0.497445 0.961780
C2    C     C_2   0.430062 0.041757 0.502469 -0.383501
C3    C     C_R   0.501928 0.500474 0.661623 0.905020
C4    C     C_R   0.454213 0.205265 0.501823 0.960890
C5    C     C_R   0.498072 0.499592 0.338446 0.902728
C6    C     C_3   0.492646 0.669459 0.952694 -0.518193
C7    C     C_3   0.667710 0.432350 0.945963 -0.414891
C8    C     C_3   0.660583 0.426754 0.044156 -0.521738
C9    C     C_1   0.494107 0.499160 0.249789 -0.187824
C10   C     C_3   0.500941 0.499618 0.917549 0.294713
C11   C     C_3   0.378073 0.899300 0.110621 0.060122
C12   C     C_3   0.492721 0.670880 0.051374 0.389898
C13   C     C_3   0.429972 0.912215 0.202904 -0.340847
C14   C     C_3   0.454371 0.082412 0.232007 -0.962127
C15   C     C_3   0.494573 0.499884 0.083039 0.281481
C16   C     C_3   0.335184 0.401223 0.053794 -0.426946
C17   C     C_3   0.337478 0.401586 0.954976 -0.037576
C18   C     C_1   0.493235 0.498972 0.174509 -0.069995
C19   C     C_1   0.505106 0.500764 0.825854 -0.059438
C20   C     C_1   0.505590 0.500778 0.750444 -0.178661
C21   C     C_2   0.569806 0.958181 0.495575 -0.382938
H1    H     H_    0.615242 0.733969 0.069738 0.052868
H2    H     H_    0.782830 0.507377 0.922082 0.175019
H3    H     H_    0.777645 0.491126 0.067101 0.180569
H4    H     H_    0.662409 0.303128 0.064519 0.188107
H5    H     H_    0.220888 0.459312 0.937094 0.148146
H6    H     H_    0.213831 0.450092 0.081625 0.193305
H7    H     H_    0.257356 0.960580 0.106211 0.162692
H8    H     H_    0.477673 0.960164 0.065931 0.110628
H9    H     H_    0.327914 0.851399 0.245826 0.240099
H10   H     H_    0.552711 0.854690 0.208409 0.208168
H11   H     H_    0.559159 0.144340 0.191393 0.260146
H12   H     H_    0.374559 0.721558 0.932634 0.192691
H13   H     H_    0.490483 0.087344 0.299119 0.269475
H14   H     H_    0.332632 0.142476 0.228477 0.261287
H15   H     H_    0.207584 0.188180 0.938668 0.176178
H16   H     H_    0.421085 0.176263 0.944732 0.187439
H17   H     H_    0.335270 0.279899 0.078060 0.158111
H18   H     H_    0.701791 0.009221 0.488924 0.181775
H19   H     H_    0.298066 0.990715 0.508938 0.183050
H20   H     H_    0.013378 0.381750 0.436456 0.192668
H21   H     H_    0.986625 0.618272 0.563528 0.192099
H22   H     H_    0.605563 0.743682 0.925508 0.142347
H23   H     H_    0.684710 0.313414 0.918461 0.183950
N1    N     N_2   0.950340 0.457950 0.477370 -0.172298
N2    N     N_2   0.049660 0.542050 0.522630 -0.172759
N3    N     N_3   0.328515 0.241840 0.919397 -0.460372
O1    O     O_R   0.389240 0.738570 0.505550 -0.613493
O2    O     O_R   0.678400 0.711630 0.491050 -0.631018
O3    O     O_R   0.355360 0.513470 0.630110 -0.610894
O4    O     O_R   0.644510 0.486530 0.615610 -0.621611
O5    O     O_R   0.321600 0.288370 0.508950 -0.628313
O6    O     O_R   0.610760 0.261430 0.494450 -0.612819
O7    O     O_R   0.355490 0.513470 0.384390 -0.620719
O8    O     O_R   0.644640 0.486530 0.369890 -0.612705
O9    O     O_3   0.342619 0.740519 0.087873 -0.644915
Zn1   Zn    Zn3+2 0.306930 0.517990 0.509680 0.945212
Zn2   Zn    Zn3+2 0.693070 0.482010 0.490320 0.943933

loop_
_geom_bond_atom_site_label_1
_geom_bond_atom_site_label_2
_ccdc_geom_bond_type
C14   H13   S    
C15   C18   S    
C2    C4    S    
O6    Zn2   S    
C6    H12   S    
C1    O1    A    
C6    C10   S    
C7    C8    S    
C2    H19   S    
C4    O6    A    
C7    C10   S    
C5    O7    A    
C19   C20   T    
C21   H18   S    
C12   C15   S    
C10   C19   S    
C2    C21   D    
O1    Zn1   S    
O4    Zn2   S    
C7    H23   S    
C1    C21   S    
C8    H4    S    
C11   C13   S    
C5    C9    S    
C12   O9    S    
C11   H7    S    
C4    O5    A    
C7    H2    S    
C17   H5    S    
C16   H6    S    
C8    H3    S    
C3    O3    A    
C5    O8    A    
C8    C15   S    
C6    H22   S    
N2    Zn1   S    
C6    C12   S    
N1    Zn2   S    
N1    N2    D    
H16   N3    S    
O5    Zn1   S    
C11   O9    S    
C10   C17   S    
C15   C16   S    
C12   H1    S    
C9    C18   T    
C3    C20   S    
C13   H9    S    
C11   H8    S    
H15   N3    S    
H21   N2    S    
O8    Zn2   S    
C16   H17   S    
C14   H14   S    
C3    O4    A    
H20   N1    S    
C13   C14   S    
O3    Zn1   S    
C1    O2    A    
C13   H10   S    
O2    Zn2   S    
C17   N3    S    
C14   H11   S    
C16   C17   S    
O7    Zn1   S    
