data_mof_unit_36545.cif
_audit_creation_date              2013-03-05T16:35:53-0500
_audit_creation_method            fapswitch 2.2
_symmetry_space_group_name_H-M    P1
_symmetry_Int_Tables_number       1
_space_group_crystal_system       triclinic
_cell_length_a                    23.613851
_cell_length_b                    9.091721
_cell_length_c                    7.777198
_cell_angle_alpha                 89.950436
_cell_angle_beta                  90.009683
_cell_angle_gamma                 90.083352
_cell_volume                      1669.68846236

loop_
_atom_site_label
_atom_site_type_symbol
_atom_site_description
_atom_site_fract_x
_atom_site_fract_y
_atom_site_fract_z
_atom_type_partial_charge
O1    O     O_R   0.500000 0.288390 0.642760 -0.552203
O2    O     O_R   0.500000 0.711610 0.357240 -0.589647
O3    O     O_R   0.500000 0.711610 0.642760 -0.552166
O4    O     O_R   0.500000 0.288390 0.357240 -0.588966
C1    C     C_R   0.500033 0.219991 0.500044 0.864146
C2    C     C_R   0.499913 0.780010 0.499946 0.876128
O5    O     O_R   0.417880 0.500000 0.642820 -0.547197
O6    O     O_R   0.582120 0.500000 0.357180 -0.600703
O7    O     O_R   0.582120 0.500000 0.642820 -0.550752
O8    O     O_R   0.417880 0.500000 0.357180 -0.605510
C3    C     C_R   0.208380 0.499845 0.505298 0.291176
C4    C     C_R   0.791040 0.498800 0.505228 0.292600
C5    C     C_R   0.390644 0.499778 0.499964 0.815297
C6    C     C_R   0.609231 0.500104 0.500005 0.822827
Cu1   Cu    Cu3+1 0.500000 0.500000 0.669080 1.078409
Cu2   Cu    Cu3+1 0.500000 0.500000 0.330920 1.024928
H1    H     H_    0.213842 0.627638 0.274394 0.194438
H2    H     H_    0.785402 0.342258 0.300410 0.194761
H3    H     H_    0.215644 0.371593 0.735957 0.156911
H4    H     H_    0.784358 0.655710 0.709904 0.157101
C7    C     C_R   0.297065 0.577734 0.373021 -0.088896
C8    C     C_R   0.702209 0.406725 0.387525 -0.093373
C9    C     C_R   0.297692 0.419097 0.628952 -0.035128
C10   C     C_R   0.701994 0.594514 0.614745 -0.039807
C11   C     C_R   0.327931 0.498347 0.500127 -0.137736
C12   C     C_R   0.671724 0.501050 0.500152 -0.133259
C13   C     C_R   0.880621 0.629069 0.484067 0.545600
C14   C     C_R   0.118636 0.368500 0.516435 0.544090
C15   C     C_R   0.880530 0.369066 0.530108 0.542116
C16   C     C_R   0.118698 0.630993 0.499130 0.541575
N1    N     N_R   0.852009 0.498958 0.506650 -0.463253
N2    N     N_R   0.147324 0.499800 0.507297 -0.462402
C17   C     C_R   0.939914 0.366260 0.527676 -0.012292
C18   C     C_R   0.059327 0.633129 0.494413 -0.012434
C19   C     C_R   0.939983 0.632295 0.488031 -0.014151
C20   C     C_R   0.059273 0.366131 0.522134 -0.013730
C21   C     C_R   0.969743 0.499375 0.508101 -0.018212
C22   C     C_R   0.029502 0.499553 0.508312 -0.018245
C23   C     C_R   0.970052 0.233934 0.544767 -0.158481
C24   C     C_R   0.029211 0.765391 0.476386 -0.157946
C25   C     C_R   0.970167 0.764834 0.471500 -0.160273
C26   C     C_R   0.029104 0.233724 0.540313 -0.159716
C27   C     C_1   0.500001 0.065369 0.500059 -0.129183
C28   C     C_1   0.499957 0.934634 0.499928 -0.124684
C29   C     C_R   0.237755 0.571726 0.373703 -0.069809
C30   C     C_R   0.761552 0.410802 0.388234 -0.062715
C31   C     C_R   0.238640 0.427289 0.634254 -0.155924
C32   C     C_R   0.761076 0.587569 0.619896 -0.164571
N3    N     N_1   0.500000 0.500000 0.076820 -0.041088
N4    N     N_1   0.500000 0.500000 0.923180 -0.030328
O9    O     O_2   0.851744 0.754828 0.456025 -0.514293
O10   O     O_2   0.147386 0.240313 0.517770 -0.513959
O11   O     O_2   0.851540 0.243127 0.557234 -0.511984
O12   O     O_2   0.147537 0.759261 0.497312 -0.510101
H5    H     H_    0.948129 0.130121 0.560406 0.185522
H6    H     H_    0.051167 0.869434 0.463965 0.185906
H7    H     H_    0.948287 0.868520 0.455632 0.185653
H8    H     H_    0.051022 0.129796 0.552786 0.185804
C33   C     C_2   0.325136 0.674577 0.244210 0.413665
H9    H     H_    0.367588 0.716106 0.265393 0.085972
O13   O     O_2   0.300464 0.712348 0.113317 -0.527934
C34   C     C_2   0.673400 0.297777 0.274461 0.417966
H10   H     H_    0.629601 0.267221 0.295840 0.077862
O14   O     O_2   0.698755 0.238257 0.156686 -0.518379
C35   C     C_2   0.324874 0.320336 0.756560 0.435538
H11   H     H_    0.305463 0.304926 0.881862 0.078463
O15   O     O_2   0.366715 0.248087 0.720121 -0.527250
C36   C     C_2   0.674728 0.706028 0.726819 0.422559
H12   H     H_    0.695872 0.741281 0.843753 0.084907
O16   O     O_2   0.630507 0.765951 0.685945 -0.533240

loop_
_geom_bond_atom_site_label_1
_geom_bond_atom_site_label_2
_geom_bond_distance
_ccdc_geom_bond_type
O4    Cu2   1.934583 S    
O6    C6    1.281969 A    
O7    C6    1.282082 A    
O8    C5    1.283351 A    
C21   C22   1.411128 A    
O1    Cu1   1.934935 S    
O2    Cu2   1.934934 S    
C8    C34   1.488784 S    
C14   O10   1.349654 S    
C3    C31   1.396982 A    
O5    C5    1.283656 A    
C17   C21   1.407585 A    
C4    C32   1.396564 A    
O3    C2    1.272469 A    
C13   C19   1.402376 A    
C9    C35   1.484281 S    
C9    C31   1.397163 A    
O5    Cu1   1.949862 S    
C1    C27   1.405778 S    
Cu1   N4    1.976185 S    
C25   H7    1.082599 S    
C33   H9    1.083324 S    
O6    Cu2   1.949860 S    
C24   H6    1.082297 S    
C2    C28   1.405801 S    
C6    C12   1.475711 S    
C16   N2    1.373267 A    
C16   O12   1.349661 S    
C10   C12   1.423583 A    
C5    C11   1.480937 S    
C34   H10   1.083368 S    
O8    Cu2   1.949931 S    
C15   O11   1.349631 S    
C27   C28   1.188609 T    
O1    C1    1.272736 A    
H2    C30   1.083491 S    
C20   C22   1.406926 A    
C24   C25   1.394769 A    
C8    C30   1.401751 A    
C13   O9    1.349679 S    
C3    N2    1.441872 S    
C7    C33   1.488356 S    
C23   C26   1.394888 A    
C7    C29   1.401527 A    
C9    C11   1.424888 A    
C4    N1    1.439757 S    
O7    Cu1   1.949929 S    
C19   C25   1.404931 A    
C18   C24   1.404837 A    
C3    C29   1.397659 A    
C33   O13   1.222049 D    
C16   C18   1.402611 A    
C13   N1    1.372594 A    
Cu1   Cu2   2.629938 S    
C10   C32   1.397244 A    
C15   C17   1.402685 A    
C14   N2    1.373493 A    
O3    Cu1   1.934582 S    
Cu2   N3    1.976185 S    
C14   C20   1.402633 A    
C15   N1    1.372365 A    
C35   H11   1.085867 S    
C8    C12   1.422755 A    
H3    C31   1.084239 S    
N3    N4    1.194889 T    
C36   O16   1.220454 D    
C7    C11   1.424574 A    
O4    C1    1.272391 A    
C34   O14   1.221574 D    
C26   H8    1.082293 S    
H4    C32   1.084292 S    
C19   C21   1.407377 A    
C18   C22   1.407088 A    
C10   C36   1.485191 S    
C20   C26   1.404958 A    
C17   C23   1.404886 A    
C23   H5    1.082591 S    
O2    C2    1.272672 A    
H1    C29   1.083422 S    
C36   H12   1.085796 S    
C35   O15   1.220771 D    
C4    C30   1.397235 A    
