data_mof_unit_61038.cif
_audit_creation_date              2012-12-10T20:32:43-0500
_audit_creation_method            fapswitch 2.2
_symmetry_space_group_name_H-M    P1
_symmetry_Int_Tables_number       1
_space_group_crystal_system       triclinic
_cell_length_a                    28.032747
_cell_length_b                    28.032806
_cell_length_c                    34.501591
_cell_angle_alpha                 90.0
_cell_angle_beta                  89.999954
_cell_angle_gamma                 89.995978
_cell_volume                      27112.6114604

loop_
_atom_site_label
_atom_site_type_symbol
_atom_type_description
_atom_site_fract_x
_atom_site_fract_y
_atom_site_fract_z
_atom_type_partial_charge
C1    C     C_R   0.801477 0.698522 0.750000 -0.062585
C2    C     C_R   0.198523 0.301478 0.250000 -0.062585
C3    C     C_R   0.698523 0.198523 0.750000 -0.062613
C4    C     C_R   0.301477 0.801477 0.250000 -0.062612
C5    C     C_R   0.198523 0.301478 0.750000 -0.062584
C6    C     C_R   0.801477 0.698522 0.250000 -0.062585
C7    C     C_R   0.301477 0.801477 0.750000 -0.062612
C8    C     C_R   0.698523 0.198523 0.250000 -0.062613
C9    C     C_R   0.801477 0.301477 0.250000 -0.062609
C10   C     C_R   0.198523 0.698523 0.750000 -0.062613
C11   C     C_R   0.698522 0.801477 0.249999 -0.062586
C12   C     C_R   0.301478 0.198523 0.750000 -0.062586
C13   C     C_R   0.198523 0.698523 0.250000 -0.062614
C14   C     C_R   0.801477 0.301477 0.750000 -0.062614
C15   C     C_R   0.301478 0.198523 0.250000 -0.062583
C16   C     C_R   0.698522 0.801477 0.750000 -0.062587
C17   C     C_R   0.811422 0.673846 0.784430 0.380879
C18   C     C_R   0.188579 0.326155 0.215570 0.380880
C19   C     C_R   0.711225 0.151200 0.741760 0.376713
C20   C     C_R   0.288775 0.848800 0.258240 0.376713
C21   C     C_R   0.188579 0.326155 0.784430 0.380880
C22   C     C_R   0.811422 0.673846 0.215570 0.380880
C23   C     C_R   0.288775 0.848800 0.741759 0.376713
C24   C     C_R   0.711225 0.151200 0.258240 0.376713
C25   C     C_R   0.848799 0.288776 0.258244 0.376711
C26   C     C_R   0.151200 0.711224 0.741760 0.376711
C27   C     C_R   0.673847 0.811423 0.215569 0.380886
C28   C     C_R   0.326153 0.188577 0.784431 0.380888
C29   C     C_R   0.151200 0.711225 0.258240 0.376710
C30   C     C_R   0.848800 0.288775 0.741760 0.376712
C31   C     C_R   0.326154 0.188578 0.215570 0.380887
C32   C     C_R   0.673849 0.811425 0.784431 0.380886
C33   C     C_R   0.311422 0.173847 0.284429 0.380885
C34   C     C_R   0.688575 0.826150 0.715570 0.380880
C35   C     C_R   0.211225 0.651200 0.241760 0.376711
C36   C     C_R   0.788775 0.348800 0.758240 0.376712
C37   C     C_R   0.688577 0.826152 0.284430 0.380883
C38   C     C_R   0.311423 0.173848 0.715570 0.380881
C39   C     C_R   0.788776 0.348799 0.241756 0.376712
C40   C     C_R   0.211224 0.651200 0.758240 0.376710
C41   C     C_R   0.348800 0.788775 0.758241 0.376712
C42   C     C_R   0.651200 0.211224 0.241760 0.376711
C43   C     C_R   0.173846 0.311421 0.715571 0.380884
C44   C     C_R   0.826153 0.688578 0.284430 0.380881
C45   C     C_R   0.651200 0.211224 0.758240 0.376711
C46   C     C_R   0.348800 0.788775 0.241760 0.376710
C47   C     C_R   0.826153 0.688578 0.715570 0.380881
C48   C     C_R   0.173846 0.311421 0.284429 0.380881
C49   C     C_R   0.846381 0.637452 0.784327 0.012769
C50   C     C_R   0.153620 0.362549 0.215673 0.012766
C51   C     C_R   0.675461 0.115612 0.740931 0.004957
C52   C     C_R   0.324539 0.884387 0.259069 0.004959
C53   C     C_R   0.153619 0.362549 0.784327 0.012768
C54   C     C_R   0.846381 0.637452 0.215673 0.012769
C55   C     C_R   0.324539 0.884387 0.740930 0.004957
C56   C     C_R   0.675461 0.115612 0.259069 0.004958
C57   C     C_R   0.884387 0.324540 0.259072 0.004951
C58   C     C_R   0.115612 0.675461 0.740931 0.004955
C59   C     C_R   0.637453 0.846382 0.215672 0.012769
C60   C     C_R   0.362547 0.153618 0.784328 0.012770
C61   C     C_R   0.115612 0.675461 0.259069 0.004956
C62   C     C_R   0.884388 0.324539 0.740931 0.004956
C63   C     C_R   0.362548 0.153618 0.215672 0.012768
C64   C     C_R   0.637455 0.846384 0.784328 0.012773
C65   C     C_R   0.346381 0.137453 0.284327 0.012763
C66   C     C_R   0.653616 0.862545 0.715672 0.012771
C67   C     C_R   0.175461 0.615612 0.240931 0.004955
C68   C     C_R   0.824539 0.384387 0.759069 0.004954
C69   C     C_R   0.653618 0.862547 0.284327 0.012767
C70   C     C_R   0.346382 0.137454 0.715673 0.012767
C71   C     C_R   0.824539 0.384387 0.240927 0.004949
C72   C     C_R   0.175461 0.615612 0.759069 0.004955
C73   C     C_R   0.384387 0.824539 0.759070 0.004960
C74   C     C_R   0.615612 0.175461 0.240931 0.004962
C75   C     C_R   0.137452 0.346380 0.715673 0.012765
C76   C     C_R   0.862547 0.653619 0.284327 0.012768
C77   C     C_R   0.615612 0.175461 0.759069 0.004960
C78   C     C_R   0.384388 0.824539 0.240931 0.004961
C79   C     C_R   0.862548 0.653619 0.715673 0.012768
C80   C     C_R   0.137452 0.346380 0.284327 0.012766
C81   C     C_R   0.872112 0.627888 0.750000 -0.181086
C82   C     C_R   0.127888 0.372112 0.250000 -0.181085
C83   C     C_R   0.627890 0.127890 0.750000 -0.188595
C84   C     C_R   0.372110 0.872110 0.250000 -0.188596
C85   C     C_R   0.127888 0.372112 0.750000 -0.181085
C86   C     C_R   0.872112 0.627888 0.250000 -0.181087
C87   C     C_R   0.372110 0.872110 0.750000 -0.188595
C88   C     C_R   0.627890 0.127890 0.250000 -0.188597
C89   C     C_R   0.872110 0.372110 0.250000 -0.188590
C90   C     C_R   0.127890 0.627890 0.750000 -0.188599
C91   C     C_R   0.627888 0.872112 0.250000 -0.181078
C92   C     C_R   0.372112 0.127888 0.750000 -0.181079
C93   C     C_R   0.127890 0.627890 0.250000 -0.188599
C94   C     C_R   0.872110 0.372110 0.750000 -0.188598
C95   C     C_R   0.372112 0.127888 0.250000 -0.181075
C96   C     C_R   0.627888 0.872112 0.750000 -0.181083
C97   C     C_1   0.765162 0.734837 0.750000 0.212327
C98   C     C_1   0.234838 0.265163 0.249999 0.212328
C99   C     C_1   0.734838 0.234838 0.750000 0.209165
C100  C     C_1   0.265162 0.765162 0.250000 0.209165
C101  C     C_1   0.234838 0.265163 0.750001 0.212329
C102  C     C_1   0.765162 0.734837 0.249999 0.212328
C103  C     C_1   0.265162 0.765162 0.750000 0.209165
C104  C     C_1   0.734838 0.234838 0.250000 0.209165
C105  C     C_1   0.765162 0.265162 0.250000 0.209166
C106  C     C_1   0.234838 0.734838 0.750000 0.209164
C107  C     C_1   0.734837 0.765162 0.249999 0.212327
C108  C     C_1   0.265163 0.234838 0.750001 0.212327
C109  C     C_1   0.234838 0.734838 0.250000 0.209164
C110  C     C_1   0.765162 0.265162 0.750000 0.209164
C111  C     C_1   0.265163 0.234838 0.249999 0.212329
C112  C     C_1   0.734837 0.765162 0.750000 0.212326
C113  C     C_R   0.993607 0.586645 0.979773 -0.181364
C114  C     C_R   0.006393 0.413355 0.020227 -0.181364
C115  C     C_R   0.586627 0.993360 0.979773 -0.181355
C116  C     C_R   0.413373 0.006640 0.020227 -0.181355
C117  C     C_R   0.006393 0.413355 0.979773 -0.181364
C118  C     C_R   0.993607 0.586645 0.020227 -0.181364
C119  C     C_R   0.413373 0.006640 0.979773 -0.181354
C120  C     C_R   0.586627 0.993360 0.020227 -0.181354
C121  C     C_R   0.493536 0.086640 0.479773 -0.181361
C122  C     C_R   0.506464 0.913360 0.520227 -0.181361
C123  C     C_R   0.086644 0.493587 0.479773 -0.181363
C124  C     C_R   0.913356 0.506413 0.520227 -0.181362
C125  C     C_R   0.506464 0.913360 0.479773 -0.181361
C126  C     C_R   0.493536 0.086640 0.520227 -0.181361
C127  C     C_R   0.913356 0.506413 0.479773 -0.181362
C128  C     C_R   0.086644 0.493587 0.520227 -0.181362
C129  C     C_R   0.003149 0.456742 0.918826 -0.214227
C130  C     C_R   0.996851 0.543258 0.081174 -0.214227
C131  C     C_R   0.456751 0.003269 0.918826 -0.214224
C132  C     C_R   0.543249 0.996731 0.081174 -0.214224
C133  C     C_R   0.996851 0.543258 0.918826 -0.214227
C134  C     C_R   0.003148 0.456742 0.081174 -0.214226
C135  C     C_R   0.543249 0.996731 0.918826 -0.214222
C136  C     C_R   0.456751 0.003269 0.081174 -0.214223
C137  C     C_R   0.503183 0.956744 0.418826 -0.214226
C138  C     C_R   0.496817 0.043255 0.581174 -0.214226
C139  C     C_R   0.956743 0.503158 0.418826 -0.214226
C140  C     C_R   0.043257 0.496842 0.581174 -0.214226
C141  C     C_R   0.496817 0.043255 0.418826 -0.214226
C142  C     C_R   0.503183 0.956744 0.581174 -0.214225
C143  C     C_R   0.043257 0.496842 0.418826 -0.214226
C144  C     C_R   0.956743 0.503158 0.581174 -0.214226
C145  C     C_R   0.000000 0.500000 0.898464 -0.049414
C146  C     C_R   1.000000 0.500000 0.101536 -0.049414
C147  C     C_R   0.500000 0.000000 0.898464 -0.049436
C148  C     C_R   0.500000 1.000000 0.101536 -0.049435
C149  C     C_R   0.500000 1.000000 0.398464 -0.049420
C150  C     C_R   0.500000 0.000000 0.601536 -0.049420
C151  C     C_R   1.000000 0.500000 0.398464 -0.049417
C152  C     C_R   1.000000 0.500000 0.601536 -0.049417
C153  C     C_R   0.996804 0.543555 0.959298 0.104735
C154  C     C_R   0.003196 0.456445 0.040702 0.104735
C155  C     C_R   0.543546 0.996681 0.959298 0.104730
C156  C     C_R   0.456454 0.003319 0.040702 0.104730
C157  C     C_R   0.003196 0.456445 0.959298 0.104735
C158  C     C_R   0.996804 0.543555 0.040702 0.104735
C159  C     C_R   0.456454 0.003319 0.959298 0.104730
C160  C     C_R   0.543546 0.996681 0.040702 0.104730
C161  C     C_R   0.496769 0.043552 0.459298 0.104734
C162  C     C_R   0.503231 0.956448 0.540702 0.104735
C163  C     C_R   0.043554 0.496794 0.459298 0.104736
C164  C     C_R   0.956446 0.503206 0.540702 0.104736
C165  C     C_R   0.503231 0.956448 0.459298 0.104735
C166  C     C_R   0.496769 0.043552 0.540702 0.104735
C167  C     C_R   0.956446 0.503206 0.459298 0.104736
C168  C     C_R   0.043554 0.496794 0.540702 0.104736
C169  C     C_R   0.500000 1.000000 0.855949 0.849165
C170  C     C_R   0.500000 1.000000 0.144051 0.849165
C171  C     C_R   1.000000 0.500000 0.855949 0.849168
C172  C     C_R   0.000000 0.500000 0.144051 0.849169
C173  C     C_R   1.000000 0.500000 0.355949 0.849169
C174  C     C_R   0.000000 0.500000 0.644051 0.849169
C175  C     C_R   0.500000 0.000000 0.355949 0.849166
C176  C     C_R   0.500000 0.000000 0.644051 0.849166
C177  C     C_R   0.409133 0.909133 0.750000 0.916803
C178  C     C_R   0.590867 0.090867 0.250000 0.916803
C179  C     C_R   0.909134 0.590866 0.750000 0.931326
C180  C     C_R   0.090866 0.409134 0.250000 0.931326
C181  C     C_R   0.590867 0.090867 0.750000 0.916803
C182  C     C_R   0.409133 0.909133 0.250000 0.916803
C183  C     C_R   0.090866 0.409134 0.750000 0.931327
C184  C     C_R   0.909134 0.590866 0.250000 0.931326
C185  C     C_R   0.409134 0.090866 0.250000 0.931330
C186  C     C_R   0.590866 0.909134 0.750000 0.931328
C187  C     C_R   0.909133 0.409133 0.250000 0.916804
C188  C     C_R   0.090867 0.590867 0.750000 0.916801
C189  C     C_R   0.590866 0.909134 0.250000 0.931329
C190  C     C_R   0.409134 0.090866 0.750000 0.931329
C191  C     C_R   0.090867 0.590867 0.250000 0.916800
C192  C     C_R   0.909133 0.409133 0.750000 0.916801
C193  C     C_R   1.000000 0.500000 0.979636 0.067207
C194  C     C_R   1.000000 0.500000 0.020363 0.067207
C195  C     C_R   0.500000 0.000000 0.979636 0.067197
C196  C     C_R   0.500000 1.000000 0.020363 0.067197
C197  C     C_R   0.500000 1.000000 0.479636 0.067202
C198  C     C_R   0.500000 0.000000 0.520363 0.067202
C199  C     C_R   0.000000 0.500000 0.479637 0.067204
C200  C     C_R   0.000000 0.500000 0.520363 0.067204
H1    H     H_    0.005676 0.423268 0.903214 0.178022
H2    H     H_    0.994324 0.576731 0.096786 0.178022
H3    H     H_    0.423285 0.005893 0.903214 0.178045
H4    H     H_    0.576715 0.994107 0.096786 0.178044
H5    H     H_    0.994324 0.576731 0.903214 0.178022
H6    H     H_    0.005676 0.423268 0.096786 0.178022
H7    H     H_    0.576715 0.994107 0.903214 0.178045
H8    H     H_    0.423285 0.005893 0.096786 0.178044
H9    H     H_    0.505738 0.923273 0.403214 0.178029
H10   H     H_    0.494262 0.076727 0.596786 0.178029
H11   H     H_    0.923269 0.505694 0.403214 0.178024
H12   H     H_    0.076730 0.494306 0.596785 0.178024
H13   H     H_    0.494262 0.076727 0.403214 0.178029
H14   H     H_    0.505738 0.923273 0.596786 0.178029
H15   H     H_    0.076730 0.494306 0.403214 0.178024
H16   H     H_    0.923270 0.505694 0.596786 0.178024
H17   H     H_    0.991115 0.620329 0.964498 0.164136
H18   H     H_    0.008885 0.379670 0.035501 0.164136
H19   H     H_    0.620305 0.990772 0.964499 0.164152
H20   H     H_    0.379695 0.009228 0.035501 0.164152
H21   H     H_    0.008885 0.379670 0.964498 0.164136
H22   H     H_    0.991115 0.620329 0.035501 0.164136
H23   H     H_    0.379695 0.009228 0.964499 0.164152
H24   H     H_    0.620304 0.990772 0.035501 0.164152
H25   H     H_    0.491017 0.120323 0.464499 0.164140
H26   H     H_    0.508983 0.879677 0.535501 0.164140
H27   H     H_    0.120328 0.491087 0.464499 0.164136
H28   H     H_    0.879672 0.508912 0.535501 0.164136
H29   H     H_    0.508983 0.879677 0.464499 0.164140
H30   H     H_    0.491017 0.120323 0.535501 0.164140
H31   H     H_    0.879672 0.508912 0.464499 0.164136
H32   H     H_    0.120328 0.491087 0.535501 0.164136
O1    O     O_3   0.500000 0.000000 0.750000 -0.513211
O2    O     O_3   0.500000 0.000000 0.250000 -0.513211
O3    O     O_3   1.000000 0.500000 0.750000 -0.513209
O4    O     O_3   1.000000 0.500000 0.250000 -0.513209
O5    O     O_R   0.539300 0.000000 0.837360 -0.637517
O6    O     O_R   0.460700 0.000000 0.162640 -0.637518
O7    O     O_R   1.000000 0.460700 0.837360 -0.637526
O8    O     O_R   0.000000 0.539300 0.162640 -0.637526
O9    O     O_R   0.460700 0.000000 0.837360 -0.637518
O10   O     O_R   0.539300 0.000000 0.162640 -0.637518
O11   O     O_R   1.000000 0.539300 0.837360 -0.637526
O12   O     O_R   0.000000 0.460700 0.162640 -0.637526
O13   O     O_R   0.039300 0.500000 0.337360 -0.637526
O14   O     O_R   0.960700 0.500000 0.662640 -0.637526
O15   O     O_R   0.500000 0.960700 0.337360 -0.637524
O16   O     O_R   0.500000 0.039300 0.662640 -0.637525
O17   O     O_R   0.960700 0.500000 0.337360 -0.637526
O18   O     O_R   0.039300 0.500000 0.662640 -0.637526
O19   O     O_R   0.500000 0.039300 0.337360 -0.637524
O20   O     O_R   0.500000 0.960700 0.662640 -0.637524
O21   O     O_R   0.405600 0.944810 0.772850 -0.620165
O22   O     O_R   0.594400 0.055190 0.227150 -0.620165
O23   O     O_R   0.944810 0.594400 0.772850 -0.614595
O24   O     O_R   0.055190 0.405600 0.227150 -0.614596
O25   O     O_R   0.594400 0.055190 0.772850 -0.620165
O26   O     O_R   0.405600 0.944810 0.227150 -0.620165
O27   O     O_R   0.055190 0.405600 0.772850 -0.614595
O28   O     O_R   0.944810 0.594400 0.227150 -0.614595
O29   O     O_R   0.405600 0.055190 0.227150 -0.614601
O30   O     O_R   0.594400 0.944810 0.772850 -0.614600
O31   O     O_R   0.944810 0.405600 0.227150 -0.620177
O32   O     O_R   0.055190 0.594400 0.772850 -0.620176
O33   O     O_R   0.594400 0.944810 0.227150 -0.614601
O34   O     O_R   0.405600 0.055190 0.772850 -0.614601
O35   O     O_R   0.055190 0.594400 0.227150 -0.620176
O36   O     O_R   0.944810 0.405600 0.772850 -0.620176
O37   O     O_R   0.905600 0.444810 0.272850 -0.620176
O38   O     O_R   0.094400 0.555190 0.727150 -0.620176
O39   O     O_R   0.444810 0.094400 0.272850 -0.614594
O40   O     O_R   0.555190 0.905600 0.727150 -0.614595
O41   O     O_R   0.094400 0.555190 0.272850 -0.620176
O42   O     O_R   0.905600 0.444810 0.727150 -0.620176
O43   O     O_R   0.555190 0.905600 0.272850 -0.614595
O44   O     O_R   0.444810 0.094400 0.727150 -0.614595
O45   O     O_R   0.905600 0.555190 0.727150 -0.614596
O46   O     O_R   0.094400 0.444810 0.272850 -0.614595
O47   O     O_R   0.444810 0.905600 0.727150 -0.620176
O48   O     O_R   0.555190 0.094400 0.272850 -0.620176
O49   O     O_R   0.094400 0.444810 0.727150 -0.614595
O50   O     O_R   0.905600 0.555190 0.272850 -0.614596
O51   O     O_R   0.555190 0.094400 0.727150 -0.620177
O52   O     O_R   0.444810 0.905600 0.272850 -0.620177
Zn1   Zn    Zn3+2 0.500000 0.943960 0.717190 1.037724
Zn2   Zn    Zn3+2 0.500000 0.056040 0.282810 1.037725
Zn3   Zn    Zn3+2 0.943960 0.500000 0.717190 1.037723
Zn4   Zn    Zn3+2 0.056040 0.500000 0.282810 1.037723
Zn5   Zn    Zn3+2 0.500000 0.056040 0.717190 1.037724
Zn6   Zn    Zn3+2 0.500000 0.943960 0.282810 1.037724
Zn7   Zn    Zn3+2 0.056040 0.500000 0.717190 1.037724
Zn8   Zn    Zn3+2 0.943960 0.500000 0.282810 1.037724
Zn9   Zn    Zn3+2 1.000000 0.443960 0.217190 1.037723
Zn10  Zn    Zn3+2 0.000000 0.556040 0.782810 1.037723
Zn11  Zn    Zn3+2 0.443960 0.000000 0.217190 1.037730
Zn12  Zn    Zn3+2 0.556040 0.000000 0.782810 1.037730
Zn13  Zn    Zn3+2 1.000000 0.556040 0.217190 1.037723
Zn14  Zn    Zn3+2 0.000000 0.443960 0.782810 1.037723
Zn15  Zn    Zn3+2 0.556040 0.000000 0.217190 1.037730
Zn16  Zn    Zn3+2 0.443960 0.000000 0.782810 1.037730
O53   O     O_3   0.785601 0.685949 0.817148 -0.702935
H33   H     H_    0.801046 0.672572 0.840429 0.374149
O54   O     O_3   0.214401 0.314053 0.182852 -0.702935
H34   H     H_    0.198958 0.327432 0.159572 0.374150
O55   O     O_3   0.758703 0.141637 0.734094 -0.704069
H35   H     H_    0.764537 0.106969 0.735414 0.375440
O56   O     O_3   0.241296 0.858363 0.265905 -0.704068
H36   H     H_    0.235462 0.893030 0.264584 0.375439
O57   O     O_3   0.214400 0.314052 0.817148 -0.702935
H37   H     H_    0.198955 0.327430 0.840429 0.374149
O58   O     O_3   0.785602 0.685950 0.182852 -0.702934
H38   H     H_    0.801047 0.672573 0.159571 0.374148
O59   O     O_3   0.241297 0.858363 0.734093 -0.704068
H39   H     H_    0.235463 0.893030 0.735413 0.375440
O60   O     O_3   0.758704 0.141637 0.265906 -0.704068
H40   H     H_    0.764537 0.106969 0.264585 0.375439
O61   O     O_3   0.858361 0.241298 0.265914 -0.704070
H41   H     H_    0.893029 0.235464 0.264597 0.375441
O62   O     O_3   0.141637 0.758703 0.734094 -0.704069
H42   H     H_    0.106970 0.764537 0.735414 0.375440
O63   O     O_3   0.685952 0.785604 0.182851 -0.702935
H43   H     H_    0.672575 0.801049 0.159570 0.374147
O64   O     O_3   0.314048 0.214396 0.817149 -0.702936
H44   H     H_    0.327424 0.198950 0.840430 0.374146
O65   O     O_3   0.141637 0.758703 0.265906 -0.704068
H45   H     H_    0.106969 0.764537 0.264585 0.375440
O66   O     O_3   0.858363 0.241296 0.734094 -0.704069
H46   H     H_    0.893030 0.235463 0.735414 0.375440
O67   O     O_3   0.314050 0.214398 0.182852 -0.702936
H47   H     H_    0.327428 0.198953 0.159571 0.374147
O68   O     O_3   0.685955 0.785607 0.817150 -0.702934
H48   H     H_    0.672582 0.801056 0.840431 0.374145
O69   O     O_3   0.285601 0.185951 0.317147 -0.702936
H49   H     H_    0.301042 0.172569 0.340428 0.374151
O70   O     O_3   0.714393 0.814044 0.682851 -0.702932
H50   H     H_    0.698944 0.827416 0.659570 0.374146
O71   O     O_3   0.258704 0.641637 0.234094 -0.704069
H51   H     H_    0.264537 0.606970 0.235414 0.375440
O72   O     O_3   0.741296 0.358363 0.765906 -0.704069
H52   H     H_    0.735463 0.393030 0.764586 0.375440
O73   O     O_3   0.714396 0.814047 0.317148 -0.702933
H53   H     H_    0.698950 0.827423 0.340429 0.374148
O74   O     O_3   0.285604 0.185953 0.682852 -0.702933
H54   H     H_    0.301050 0.172578 0.659571 0.374148
O75   O     O_3   0.741298 0.358361 0.234086 -0.704071
H55   H     H_    0.735464 0.393028 0.235400 0.375442
O76   O     O_3   0.258703 0.641637 0.765906 -0.704068
H56   H     H_    0.264537 0.606970 0.764586 0.375439
O77   O     O_3   0.358363 0.741297 0.765907 -0.704068
H57   H     H_    0.393030 0.735463 0.764587 0.375439
O78   O     O_3   0.641637 0.258703 0.234095 -0.704068
H58   H     H_    0.606969 0.264537 0.235415 0.375439
O79   O     O_3   0.185949 0.285600 0.682853 -0.702935
H59   H     H_    0.172568 0.301041 0.659572 0.374151
O80   O     O_3   0.814049 0.714398 0.317148 -0.702932
H60   H     H_    0.827426 0.698953 0.340428 0.374149
O81   O     O_3   0.641637 0.258703 0.765906 -0.704067
H61   H     H_    0.606970 0.264537 0.764585 0.375439
O82   O     O_3   0.358363 0.741296 0.234095 -0.704068
H62   H     H_    0.393030 0.735463 0.235416 0.375439
O83   O     O_3   0.814050 0.714399 0.682852 -0.702933
H63   H     H_    0.827427 0.698954 0.659572 0.374149
O84   O     O_3   0.185948 0.285599 0.317147 -0.702933
H64   H     H_    0.172570 0.301043 0.340428 0.374150
I1    I     I_    0.857876 0.593734 0.834614 -0.273010
I2    I     I_    0.142126 0.406267 0.165387 -0.273012
I3    I     I_    0.691691 0.044145 0.722720 -0.254153
I4    I     I_    0.308308 0.955855 0.277279 -0.254153
I5    I     I_    0.142125 0.406267 0.834613 -0.273010
I6    I     I_    0.857876 0.593735 0.165386 -0.273009
I7    I     I_    0.308309 0.955855 0.722719 -0.254153
I8    I     I_    0.691691 0.044145 0.277279 -0.254152
I9    I     I_    0.955853 0.308311 0.277286 -0.254162
I10   I     I_    0.044145 0.691691 0.722720 -0.254158
I11   I     I_    0.593738 0.857879 0.165385 -0.273114
I12   I     I_    0.406262 0.142120 0.834615 -0.273115
I13   I     I_    0.044145 0.691691 0.277279 -0.254158
I14   I     I_    0.955855 0.308309 0.722720 -0.254159
I15   I     I_    0.406264 0.142122 0.165385 -0.273115
I16   I     I_    0.593741 0.857882 0.834617 -0.273112
I17   I     I_    0.357877 0.093736 0.334614 -0.273045
I18   I     I_    0.642120 0.906259 0.665384 -0.273037
I19   I     I_    0.191691 0.544145 0.222720 -0.254158
I20   I     I_    0.808309 0.455855 0.777280 -0.254159
I21   I     I_    0.642122 0.906262 0.334614 -0.273040
I22   I     I_    0.357878 0.093738 0.665385 -0.273039
I23   I     I_    0.808311 0.455854 0.222715 -0.254165
I24   I     I_    0.191691 0.544145 0.777280 -0.254157
I25   I     I_    0.455855 0.808309 0.777281 -0.254143
I26   I     I_    0.544145 0.191691 0.222721 -0.254139
I27   I     I_    0.093734 0.357875 0.665387 -0.273021
I28   I     I_    0.906264 0.642124 0.334614 -0.273018
I29   I     I_    0.544145 0.191691 0.777280 -0.254141
I30   I     I_    0.455855 0.808308 0.222721 -0.254140
I31   I     I_    0.906265 0.642125 0.665386 -0.273018
I32   I     I_    0.093733 0.357874 0.334613 -0.273017

loop_
_geom_bond_atom_site_label_1
_geom_bond_atom_site_label_2
_ccdc_geom_bond_type
O27   Zn14  S    
O81   H61   S    
C27   O63   S    
C37   C69   A    
C130  C146  A    
C115  H19   S    
O71   H51   S    
C25   O61   S    
O69   H49   S    
C50   C82   A    
C45   O81   S    
C157  C193  A    
C61   I13   S    
C181  O51   A    
C182  O52   A    
O24   Zn9   S    
C123  H27   S    
C74   I26   S    
C9    C39   A    
C121  H25   S    
C10   C40   A    
C192  O36   A    
C23   O59   S    
O21   Zn16  S    
C59   I11   S    
O22   Zn15  S    
C192  O42   A    
C3    C19   A    
C140  C152  A    
C129  C145  A    
C130  H2    S    
C160  C196  A    
C143  C151  A    
C170  O6    A    
O52   Zn6   S    
C199  C200  A    
C128  H32   S    
C6    C44   A    
C144  C164  A    
C143  H15   S    
C144  H16   S    
C143  C163  A    
C104  C105  T    
C60   I12   S    
C40   O76   S    
C43   C75   A    
C134  C146  A    
C5    C101  S    
C71   I23   S    
O64   H44   S    
C140  H12   S    
O37   Zn8   S    
C180  O46   A    
O38   Zn7   S    
C12   C108  S    
C97   C112  T    
C47   O83   S    
O53   H33   S    
C99   C110  T    
C117  C157  A    
C149  C175  S    
C132  C148  A    
C166  C198  A    
C87   C177  S    
C123  C163  A    
O80   H60   S    
C11   C27   A    
C121  C161  A    
C119  H23   S    
C76   I28   S    
C158  C194  A    
C139  C167  A    
C8    C104  S    
C32   C64   A    
C57   C89   A    
O49   Zn7   S    
C124  C127  A    
O50   Zn8   S    
C20   O56   S    
C118  C158  A    
C133  C145  A    
C1    C97   S    
C51   C83   A    
C58   I10   S    
C174  O14   A    
C11   C37   A    
C136  H8    S    
C188  O38   A    
C191  O35   A    
C41   O77   S    
C176  O20   A    
C36   C68   A    
C23   C55   A    
C24   C56   A    
C162  C198  A    
C84   C182  S    
C78   I30   S    
O15   Zn6   S    
C6    C102  S    
C116  C156  A    
O70   H50   S    
C4    C20   A    
C28   O64   S    
C5    C21   A    
C119  C159  A    
O63   H43   S    
O82   H62   S    
C120  C160  A    
C39   C71   A    
C53   C85   A    
C80   I32   S    
C114  C154  A    
C6    C22   A    
O77   H57   S    
C67   I19   S    
C118  H22   S    
O78   H58   S    
C62   I14   S    
C34   C66   A    
C22   C54   A    
C186  O30   A    
C159  C195  A    
C91   C189  S    
O3    Zn7   S    
C13   C35   A    
C125  H29   S    
C14   C36   A    
C181  O25   A    
C56   C88   A    
O28   Zn13  S    
C9    C105  S    
C95   C185  S    
C83   C181  S    
C57   I9    S    
C44   C76   A    
O36   Zn14  S    
O25   Zn12  S    
C16   C34   A    
O26   Zn11  S    
C63   I15   S    
C131  C147  A    
C22   O58   S    
C116  H20   S    
C66   I18   S    
C38   O74   S    
C129  H1    S    
C189  O43   A    
C163  C199  A    
C120  H24   S    
C7    C103  S    
C189  O33   A    
C55   I7    S    
C114  H18   S    
O23   Zn10  S    
O9    Zn16  S    
C60   C92   A    
O10   Zn15  S    
C182  O26   A    
C29   C61   A    
C31   C63   A    
C64   C96   A    
C80   C82   A    
C17   C49   A    
C54   C86   A    
C173  O17   A    
O40   Zn1   S    
C138  H10   S    
C78   C84   A    
C68   C94   A    
C195  C196  A    
C125  C165  A    
C72   C90   A    
C175  O19   A    
C16   C112  S    
C35   C67   A    
C18   O54   S    
C102  C107  T    
C131  C159  A    
C136  C148  A    
O44   Zn5   S    
C172  O8    A    
C37   O73   S    
C193  C194  A    
C135  C147  A    
O29   Zn11  S    
C44   O80   S    
O1    Zn5   S    
C31   O67   S    
C50   I2    S    
O39   Zn2   S    
C135  H7    S    
C14   C110  S    
C40   C72   A    
C171  O11   A    
C169  O9    A    
O43   Zn6   S    
C15   C31   A    
C178  O22   A    
C16   C32   A    
C68   I20   S    
C1    C17   A    
C122  C162  A    
O1    Zn12  S    
C138  C166  A    
O2    Zn11  S    
C122  C125  A    
C52   C84   A    
C144  C152  A    
C7    C23   A    
C175  O15   A    
C8    C24   A    
C53   I5    S    
O35   Zn13  S    
O30   Zn12  S    
C7    C41   A    
C55   C87   A    
C197  C198  A    
O48   Zn2   S    
C114  C117  A    
C10   C106  S    
C41   C73   A    
C42   O78   S    
C3    C99   S    
C100  C109  T    
C153  C193  A    
C172  O12   A    
C67   C93   A    
C167  C199  A    
C45   C77   A    
C69   C91   A    
C191  O41   A    
C65   I17   S    
C86   C184  S    
C38   C70   A    
C19   O55   S    
O74   H54   S    
O20   Zn1   S    
C137  C165  A    
O79   H59   S    
C9    C25   A    
O11   Zn10  S    
O45   Zn3   S    
C184  O28   A    
O46   Zn4   S    
O16   Zn5   S    
C12   C28   A    
O47   Zn1   S    
C13   C29   A    
C156  C196  A    
C73   I25   S    
C61   C93   A    
O12   Zn9   S    
C134  H6    S    
C122  H26   S    
C63   C95   A    
C49   I1    S    
O2    Zn15  S    
C49   C81   A    
C73   C87   A    
C75   C85   A    
O1    Zn1   S    
C43   O79   S    
O84   H64   S    
C131  H3    S    
C101  C108  T    
O60   H40   S    
C85   C183  S    
C169  O5    A    
C21   O57   S    
C89   C187  S    
O32   Zn10  S    
C92   C190  S    
C93   C191  S    
C180  O24   A    
C42   C74   A    
C132  H4    S    
C141  C149  A    
O56   H36   S    
C96   C186  S    
C81   C179  S    
C69   I21   S    
O76   H56   S    
C46   C78   A    
C1    C47   A    
C2    C48   A    
O73   H53   S    
C3    C45   A    
O51   Zn5   S    
C137  H9    S    
C183  O49   A    
O3    Zn14  S    
C79   I31   S    
O4    Zn9   S    
O5    Zn12  S    
C165  C197  A    
O6    Zn11  S    
O72   H52   S    
C32   O68   S    
C30   O66   S    
O31   Zn9   S    
C190  O34   A    
C88   C178  S    
C26   C58   A    
C142  H14   S    
C176  O16   A    
C17   O53   S    
C183  O27   A    
C62   C94   A    
C52   I4    S    
C76   C86   A    
C18   C50   A    
C66   C96   A    
C173  O13   A    
C168  C200  A    
C70   C92   A    
C126  C166  A    
C142  C162  A    
C161  C197  A    
C130  C158  A    
C142  C150  A    
O3    Zn10  S    
O66   H46   S    
O4    Zn13  S    
O59   H39   S    
C134  C154  A    
C72   I24   S    
C29   O65   S    
O2    Zn6   S    
O65   H45   S    
C155  C195  A    
C185  O39   A    
O62   H42   S    
C186  O40   A    
C187  O37   A    
O55   H35   S    
O41   Zn4   S    
O42   Zn3   S    
C74   C88   A    
C64   I16   S    
C164  C200  A    
C124  C164  A    
C140  C168  A    
C150  C176  S    
O58   H38   S    
C145  C171  S    
C141  C161  A    
C151  C173  S    
O1    Zn16  S    
C146  C172  S    
C34   O70   S    
C2    C18   A    
O67   H47   S    
C117  H21   S    
C148  C170  S    
C47   C79   A    
O68   H48   S    
C129  C157  A    
C56   I8    S    
C33   C65   A    
C4    C46   A    
O57   H37   S    
C138  C150  A    
C132  C160  A    
C90   C188  S    
C133  C153  A    
C126  H30   S    
C8    C42   A    
C136  C156  A    
C77   C83   A    
C133  H5    S    
C135  C155  A    
C139  C151  A    
O8    Zn13  S    
C51   I3    S    
O4    Zn4   S    
O19   Zn2   S    
C46   O82   S    
O7    Zn14  S    
C152  C174  S    
C10   C26   A    
C13   C109  S    
O54   H34   S    
O13   Zn4   S    
C137  C149  A    
O14   Zn3   S    
C14   C30   A    
C24   O60   S    
C54   I6    S    
C113  H17   S    
C124  H28   S    
C35   O71   S    
O33   Zn15  S    
O34   Zn16  S    
C25   C57   A    
C15   C111  S    
C141  H13   S    
C79   C81   A    
C174  O18   A    
C59   C91   A    
C139  H11   S    
O2    Zn2   S    
O17   Zn8   S    
C39   O75   S    
O18   Zn7   S    
C178  O48   A    
C58   C90   A    
O3    Zn3   S    
C71   C89   A    
C65   C95   A    
C127  H31   S    
O4    Zn8   S    
C26   O62   S    
C179  O45   A    
C28   C60   A    
C127  C167  A    
C77   I29   S    
C4    C100  S    
C11   C107  S    
C75   I27   S    
C48   O84   S    
C36   O72   S    
C70   I22   S    
C98   C111  T    
C115  C155  A    
C170  O10   A    
C113  C153  A    
C33   O69   S    
C177  O21   A    
O83   H63   S    
C188  O32   A    
C116  C119  A    
C48   C80   A    
C30   C62   A    
C179  O23   A    
C121  C126  A    
C20   C52   A    
C27   C59   A    
C21   C53   A    
C185  O29   A    
C123  C128  A    
C171  O7    A    
C187  O31   A    
C103  C106  T    
C12   C38   A    
O61   H41   S    
C94   C192  S    
C177  O47   A    
C113  C118  A    
C154  C194  A    
C19   C51   A    
C2    C98   S    
C184  O50   A    
C115  C120  A    
C82   C180  S    
C128  C168  A    
C5    C43   A    
C190  O44   A    
O75   H55   S    
C15   C33   A    
C147  C169  S    
