data_mof_unit_27285.cif
_audit_creation_date              2012-12-10T17:50:46-0500
_audit_creation_method            fapswitch 2.2
_symmetry_space_group_name_H-M    P1
_symmetry_Int_Tables_number       1
_space_group_crystal_system       triclinic
_cell_length_a                    14.677296
_cell_length_b                    14.795246
_cell_length_c                    15.84898
_cell_angle_alpha                 76.849534
_cell_angle_beta                  102.862926
_cell_angle_gamma                 115.000781
_cell_volume                      3006.0490448

loop_
_atom_site_label
_atom_site_type_symbol
_atom_type_description
_atom_site_fract_x
_atom_site_fract_y
_atom_site_fract_z
_atom_type_partial_charge
C1    C     C_R   0.879790 0.312487 0.512651 0.798941
C2    C     C_R   0.120003 0.687615 0.484406 0.801379
C3    C     C_R   0.782787 0.032280 0.586822 -0.214679
C4    C     C_R   0.213484 0.966767 0.485564 -0.220523
C5    C     C_R   0.848068 0.132955 0.570889 -0.240931
C6    C     C_R   0.149327 0.865692 0.484765 -0.251528
C7    C     C_R   0.706183 0.174886 0.490666 0.188725
C8    C     C_R   0.291797 0.827753 0.475478 0.194784
C9    C     C_R   0.637898 0.077301 0.520978 0.039052
C10   C     C_R   0.359013 0.924733 0.494152 0.034405
C11   C     C_R   0.676849 0.002436 0.562738 0.066467
C12   C     C_R   0.319135 0.998306 0.489303 0.091132
C13   C     C_R   0.531711 0.052139 0.509332 0.043045
C14   C     C_R   0.465087 0.950184 0.516309 0.032054
C15   C     C_R   0.504626 0.875952 0.554384 -0.182929
C16   C     C_R   0.491061 0.125805 0.498917 -0.208488
C17   C     C_R   0.609259 0.900266 0.580145 0.073548
C18   C     C_R   0.386271 0.100523 0.489704 0.065598
C19   C     C_R   0.716269 0.668289 0.351512 -0.015722
C20   C     C_R   0.286458 0.336146 0.652675 -0.017389
C21   C     C_R   0.797852 0.637291 0.377083 0.062238
C22   C     C_R   0.204139 0.366094 0.625786 0.060004
C23   C     C_R   0.999680 0.499967 0.660094 0.830922
C24   C     C_R   0.000311 0.500011 0.339921 0.818905
C25   C     C_R   0.715319 0.511015 0.488472 -0.028946
C26   C     C_R   0.283100 0.485694 0.509594 -0.034073
C27   C     C_R   0.629617 0.536995 0.467704 -0.043260
C28   C     C_R   0.371292 0.463644 0.533905 -0.040099
C29   C     C_R   0.630604 0.616359 0.397140 0.114861
C30   C     C_R   0.371985 0.387354 0.606858 0.122178
C31   C     C_R   0.543686 0.487034 0.514492 0.101533
C32   C     C_R   0.457899 0.514356 0.488034 0.078671
C33   C     C_R   0.461925 0.592468 0.417132 -0.252041
C34   C     C_R   0.541414 0.411807 0.587774 -0.263463
C35   C     C_R   0.545890 0.642383 0.373577 -0.199972
C36   C     C_R   0.458176 0.363656 0.632550 -0.243152
C37   C     C_3   0.988729 0.408070 0.045136 -0.159235
C38   C     C_3   0.011194 0.591724 0.954974 -0.158254
C39   C     C_3   0.911303 0.430801 0.968641 -0.159909
C40   C     C_3   0.088619 0.568994 0.031469 -0.159722
C41   C     C_1   0.999165 0.500043 0.749792 -0.187835
C42   C     C_1   0.000795 0.499861 0.250263 -0.192185
C43   C     C_3   0.076906 0.477236 0.992244 -0.157977
C44   C     C_3   0.923017 0.522558 0.007865 -0.158809
C45   C     C_3   0.999483 0.499967 0.917286 0.194374
C46   C     C_3   0.000440 0.499829 0.082816 0.194324
C47   C     C_1   0.999130 0.500031 0.825433 -0.079832
C48   C     C_1   0.000810 0.499809 0.174646 -0.080000
C49   C     C_R   0.810853 0.205274 0.523388 -0.095699
C50   C     C_R   0.187534 0.795165 0.479804 -0.092663
Cu1   Cu    Cu3+1 0.081740 0.475690 0.522610 0.926241
Cu2   Cu    Cu3+1 0.918260 0.524310 0.477390 0.925355
H1    H     H_    0.838513 0.374109 0.941474 0.127147
H2    H     H_    0.161397 0.625682 0.058662 0.127149
H3    H     H_    0.273729 0.538744 0.453230 0.136726
H4    H     H_    0.720819 0.451261 0.539819 0.130856
H5    H     H_    0.137975 0.331334 0.658803 0.127650
H6    H     H_    0.864807 0.673511 0.345094 0.129265
H7    H     H_    0.401431 0.618435 0.393656 0.139115
H8    H     H_    0.603532 0.388246 0.613433 0.136367
H9    H     H_    0.979552 0.332711 0.083533 0.128234
H10   H     H_    0.020371 0.667091 0.916596 0.128160
H11   H     H_    0.859862 0.541165 0.015659 0.128025
H12   H     H_    0.140060 0.458624 0.984457 0.128613
H13   H     H_    0.069299 0.843018 0.487005 0.168410
H14   H     H_    0.928270 0.153962 0.595194 0.158446
H15   H     H_    0.816548 0.979254 0.620731 0.138135
H16   H     H_    0.179466 0.018503 0.486519 0.151646
H17   H     H_    0.452388 0.799523 0.570715 0.143731
H18   H     H_    0.540917 0.203294 0.504313 0.143706
H19   H     H_    0.542558 0.701877 0.320366 0.138007
H20   H     H_    0.462972 0.306993 0.688052 0.143490
N1    N     N_R   0.795440 0.560790 0.443380 -0.193433
N2    N     N_R   0.204560 0.439210 0.556620 -0.192408
O1    O     O_R   0.977900 0.338120 0.529810 -0.589209
O2    O     O_R   0.022100 0.661880 0.470190 -0.591419
O3    O     O_R   0.839850 0.379180 0.491620 -0.589732
O4    O     O_R   0.160150 0.620820 0.508380 -0.584919
O5    O     O_R   0.069010 0.479460 0.640020 -0.581137
O6    O     O_R   0.930990 0.520540 0.359980 -0.579551
O7    O     O_R   0.930960 0.520530 0.601820 -0.575196
O8    O     O_R   0.069040 0.479470 0.398180 -0.574867
C51   C     C_3   0.719343 0.755651 0.277340 -0.432387
C52   C     C_3   0.817088 0.808257 0.234806 -0.361738
C53   C     C_3   0.811384 0.894993 0.163095 -0.844878
H21   H     H_    0.746660 0.866478 0.110937 0.251231
H22   H     H_    0.801841 0.952455 0.190851 0.252150
H23   H     H_    0.882717 0.931374 0.133512 0.239485
H24   H     H_    0.883397 0.839330 0.285078 0.216702
H25   H     H_    0.828441 0.753314 0.204990 0.216059
H26   H     H_    0.654634 0.726614 0.225205 0.202829
H27   H     H_    0.708860 0.813619 0.303703 0.207420
C54   C     C_3   0.284373 0.250739 0.728548 -0.433335
C55   C     C_3   0.185850 0.197140 0.769926 -0.362594
C56   C     C_3   0.191941 0.111304 0.842529 -0.846205
H28   H     H_    0.203129 0.054082 0.815833 0.251438
H29   H     H_    0.255808 0.140867 0.895026 0.251966
H30   H     H_    0.120095 0.074296 0.871353 0.238883
H31   H     H_    0.172685 0.251740 0.798674 0.216349
H32   H     H_    0.120496 0.165037 0.719227 0.211314
H33   H     H_    0.297152 0.192853 0.704126 0.202236
H34   H     H_    0.348054 0.281847 0.780800 0.203403
C57   C     C_3   0.650208 0.819054 0.624935 -0.409002
C58   C     C_3   0.570985 0.710555 0.641633 -0.356914
C59   C     C_3   0.621960 0.637376 0.685826 -0.821378
H35   H     H_    0.671346 0.635990 0.642640 0.259450
H36   H     H_    0.668420 0.659827 0.749000 0.243946
H37   H     H_    0.562936 0.560355 0.699177 0.254721
H38   H     H_    0.519226 0.706855 0.685119 0.215009
H39   H     H_    0.525923 0.686281 0.578578 0.234188
H40   H     H_    0.702526 0.819248 0.583709 0.203830
H41   H     H_    0.694456 0.839825 0.689323 0.193325
C60   C     C_3   0.349565 0.185059 0.477653 -0.407346
C61   C     C_3   0.302058 0.206434 0.382588 -0.344794
C62   C     C_3   0.268099 0.293492 0.369905 -0.829447
H42   H     H_    0.214708 0.277861 0.416314 0.259182
H43   H     H_    0.334984 0.364486 0.380425 0.262146
H44   H     H_    0.229058 0.303512 0.302016 0.237629
H45   H     H_    0.358789 0.226334 0.338107 0.226516
H46   H     H_    0.235325 0.138701 0.363534 0.219650
H47   H     H_    0.295462 0.167063 0.524032 0.189915
H48   H     H_    0.414205 0.255607 0.493603 0.216854
N3    N     N_2   0.327600 0.772795 0.437094 -0.435496
H49   H     H_    0.326617 0.705200 0.472926 0.255445
C63   C     C_3   0.293522 0.770578 0.344319 -0.681984
H50   H     H_    0.337182 0.740537 0.317872 0.213380
H51   H     H_    0.306497 0.848038 0.308870 0.236823
H52   H     H_    0.211550 0.721434 0.332430 0.212471
N4    N     N_2   0.670658 0.234014 0.417283 -0.435473
H53   H     H_    0.673132 0.301175 0.427875 0.267927
C64   C     C_3   0.701195 0.239213 0.335042 -0.644492
H54   H     H_    0.660939 0.277310 0.281234 0.219273
H55   H     H_    0.680910 0.162024 0.321467 0.229110
H56   H     H_    0.784304 0.282874 0.336573 0.214776

loop_
_geom_bond_atom_site_label_1
_geom_bond_atom_site_label_2
_ccdc_geom_bond_type
C38   C40   S    
C20   C54   S    
C54   C55   S    
C27   C29   A    
C1    O3    A    
C56   H28   S    
Cu1   N2    S    
C64   H56   S    
C26   H3    S    
C22   H5    S    
C61   C62   S    
C56   H30   S    
N3    H49   S    
C20   C30   A    
C53   H21   S    
C40   C46   S    
C51   H27   S    
C59   H36   S    
C19   C21   A    
Cu1   O1    S    
N4    H53   S    
C58   H38   S    
N3    C63   S    
C36   H20   S    
C62   H42   S    
C21   N1    A    
C24   C42   S    
C57   H40   S    
C9    C13   A    
C38   C45   S    
C24   O8    A    
C2    C50   S    
C26   N2    A    
C24   O6    A    
C6    H13   S    
C60   H48   S    
C51   C52   S    
C62   H43   S    
C63   H52   S    
C25   H4    S    
C4    C12   A    
C25   N1    A    
C61   H45   S    
C39   C45   S    
C53   H22   S    
C35   H19   S    
C33   H7    S    
C13   C14   A    
C34   H8    S    
C5    C49   A    
C55   C56   S    
C52   H25   S    
C19   C51   S    
C18   C60   S    
C58   C59   S    
C44   C46   S    
C43   H12   S    
C45   C47   S    
C44   H11   S    
C15   H17   S    
C59   H37   S    
C46   C48   S    
C27   C31   A    
Cu1   Cu2   S    
C1    O1    A    
C28   C32   A    
C16   H18   S    
C52   C53   S    
C7    C49   A    
C4    C6    A    
Cu2   N1    S    
C10   C14   A    
C54   H33   S    
C4    H16   S    
Cu2   O2    S    
C57   H41   S    
C37   C43   S    
C38   C44   S    
C2    O4    A    
C43   C45   S    
C31   C32   A    
C55   H32   S    
C62   H44   S    
C40   C43   S    
C64   H55   S    
C41   C47   T    
C31   C34   A    
C42   C48   T    
C6    C50   A    
C9    C11   A    
Cu1   O8    S    
C10   C12   A    
C16   C18   A    
C20   C22   A    
C40   H2    S    
C63   H50   S    
C52   H24   S    
C22   N2    A    
Cu2   O3    S    
C19   C29   A    
C8    C50   A    
C2    O2    A    
C60   C61   S    
C53   H23   S    
C15   C17   A    
C11   C17   A    
C23   O7    A    
C3    H15   S    
C5    H14   S    
C3    C5    A    
C54   H34   S    
C37   H9    S    
C56   H29   S    
C8    N3    S    
C39   C44   S    
C25   C27   A    
C51   H26   S    
C59   H35   S    
C29   C35   A    
C26   C28   A    
C23   C41   S    
C30   C36   A    
C32   C33   A    
C28   C30   A    
C17   C57   S    
Cu1   O4    S    
C21   H6    S    
C37   C39   S    
C58   H39   S    
C39   H1    S    
C55   H31   S    
N4    C64   S    
C33   C35   A    
C34   C36   A    
Cu2   O7    S    
Cu1   O5    S    
C7    N4    S    
C3    C11   A    
C7    C9    A    
C60   H47   S    
C8    C10   A    
C13   C16   A    
C12   C18   A    
C57   C58   S    
C63   H51   S    
C14   C15   A    
C23   O5    A    
C37   C46   S    
Cu2   O6    S    
C1    C49   S    
C61   H46   S    
C64   H54   S    
C38   H10   S    
