data_mof_unit_37197.cif
_audit_creation_date              2012-12-11T17:07:29-0500
_audit_creation_method            fapswitch 2.2
_symmetry_space_group_name_H-M    P1
_symmetry_Int_Tables_number       1
_space_group_crystal_system       triclinic
_cell_length_a                    6.970936
_cell_length_b                    14.667701
_cell_length_c                    15.99108
_cell_angle_alpha                 90.043519
_cell_angle_beta                  90.441463
_cell_angle_gamma                 89.950126
_cell_volume                      1635.00001402

loop_
_atom_site_label
_atom_site_type_symbol
_atom_type_description
_atom_site_fract_x
_atom_site_fract_y
_atom_site_fract_z
_atom_type_partial_charge
O1    O     O_R   0.505720 0.583900 0.413310 -0.534797
O2    O     O_R   0.175940 0.594920 0.586080 -0.539387
O3    O     O_R   0.005640 0.416100 0.586690 -0.543739
C1    C     C_R   0.346344 0.618381 0.613628 0.684040
O4    O     O_R   0.176000 0.594930 0.413930 -0.541757
O5    O     O_R   0.005700 0.416110 0.413310 -0.545259
C2    C     C_R   0.344446 0.616891 0.385126 0.693470
O6    O     O_R   0.505660 0.583890 0.586690 -0.540925
O7    O     O_3   0.339200 0.441330 0.500000 -0.380617
V1    V     V_3+5 0.064350 0.510880 0.500000 1.362469
O8    O     O_R   0.675980 0.405080 0.413920 -0.539884
C3    C     C_R   0.844450 0.383090 0.385248 0.690626
O9    O     O_R   0.675920 0.405070 0.586070 -0.548024
C4    C     C_R   0.845320 0.380942 0.613681 0.691002
V2    V     V_3+5 0.564340 0.489120 0.500000 1.361375
O10   O     O_3   0.839360 0.558670 0.500000 -0.366801
C5    C     C_R   0.591958 0.389142 0.763520 -0.172029
C6    C     C_R   0.496869 0.404228 0.838688 -0.149386
C7    C     C_R   0.547299 0.355129 0.909525 -0.114683
C8    C     C_R   0.682497 0.285789 0.903962 -0.126441
C9    C     C_R   0.769844 0.264497 0.826657 0.064303
C10   C     C_R   0.739381 0.322771 0.756671 0.085811
C11   C     C_R   0.874795 0.183064 0.816688 -0.172249
C12   C     C_R   0.940847 0.159432 0.736554 0.065314
C13   C     C_R   0.959689 0.227583 0.674185 0.004071
C14   C     C_R   0.853966 0.311330 0.682940 -0.201625
C15   C     C_R   0.973085 0.067356 0.715027 -0.187653
C16   C     C_R   0.010980 0.043311 0.632593 -0.167165
C17   C     C_R   0.051377 0.110797 0.573647 0.215211
C18   C     C_R   0.062489 0.202485 0.600931 0.050795
H1    H     H_    0.543928 0.430545 0.712201 0.133442
H2    H     H_    0.386601 0.456090 0.842312 0.112941
H3    H     H_    0.477416 0.368967 0.968424 0.110233
H4    H     H_    0.016158 0.971877 0.615465 0.119169
C19   C     C_R   0.723789 0.185789 0.238522 0.110047
C20   C     C_R   0.881704 0.182618 0.185263 -0.140421
C21   C     C_R   0.030511 0.245053 0.201034 -0.204194
H5    H     H_    0.152262 0.246662 0.159842 0.133804
C22   C     C_R   0.021159 0.306494 0.268950 -0.198081
H6    H     H_    0.134756 0.354114 0.280538 0.127432
C23   C     C_R   0.856753 0.313481 0.318188 -0.092669
C24   C     C_R   0.706703 0.254183 0.299106 0.079354
C25   C     C_3   0.505254 0.274763 0.272108 -0.069435
C26   C     C_3   0.517143 0.191299 0.214722 -0.064922
H7    H     H_    0.403047 0.266384 0.324535 0.124485
H8    H     H_    0.493219 0.207291 0.147460 0.129693
C27   C     C_R   0.504447 0.684554 0.743440 0.036083
C28   C     C_R   0.359151 0.687144 0.681792 -0.127879
C29   C     C_R   0.211556 0.752051 0.693100 -0.162251
H9    H     H_    0.093042 0.755529 0.649143 0.121584
C30   C     C_R   0.218600 0.815282 0.759773 -0.173768
H10   H     H_    0.105784 0.865487 0.764928 0.116500
C31   C     C_R   0.375251 0.816638 0.816180 -0.100652
C32   C     C_R   0.512062 0.748271 0.807294 0.058347
C33   C     C_3   0.724557 0.750466 0.810951 -0.386748
C34   C     C_3   0.720328 0.678258 0.741752 -0.038554
H11   H     H_    0.778639 0.726959 0.872837 0.172906
H12   H     H_    0.782392 0.817018 0.789746 0.149048
C35   C     C_R   0.505828 0.682802 0.258320 0.102123
C36   C     C_R   0.352236 0.682473 0.314463 -0.112798
C37   C     C_R   0.202070 0.744774 0.299138 -0.180699
H13   H     H_    0.080024 0.747031 0.340334 0.133888
C38   C     C_R   0.214047 0.809169 0.233898 -0.177957
H14   H     H_    0.100074 0.858695 0.226693 0.127367
C39   C     C_R   0.376759 0.813435 0.182034 -0.100183
C40   C     C_R   0.518056 0.746695 0.194011 0.101168
C41   C     C_3   0.728954 0.757414 0.206153 -0.410162
C42   C     C_3   0.715842 0.687269 0.275769 -0.395059
H15   H     H_    0.767297 0.826711 0.228920 0.167623
H16   H     H_    0.811419 0.732983 0.151290 0.175725
H17   H     H_    0.747784 0.715620 0.338836 0.171909
O11   O     O_R   0.229140 0.916090 0.913340 -0.540064
O12   O     O_R   0.558860 0.905090 0.086080 -0.539195
O13   O     O_R   0.729100 0.083920 0.086690 -0.543098
C43   C     C_R   0.390174 0.883081 0.114907 0.682821
O14   O     O_R   0.558860 0.905090 0.913930 -0.539980
O15   O     O_R   0.729100 0.083920 0.913310 -0.537408
C44   C     C_R   0.389381 0.884740 0.884135 0.707787
O16   O     O_R   0.229140 0.916080 0.086720 -0.541553
O17   O     O_3   0.395570 0.058660 0.000020 -0.373461
V3    V     V_3+5 0.670450 0.989140 0.000000 1.390554
O18   O     O_R   0.058810 0.094980 0.913910 -0.534861
C45   C     C_R   0.888997 0.116521 0.885820 0.702883
O19   O     O_R   0.058810 0.094980 0.086060 -0.547276
C46   C     C_R   0.890276 0.116994 0.114742 0.680070
V4    V     V_3+5 0.170450 0.010950 0.999970 1.390282
O20   O     O_3   0.895460 0.941370 0.999990 -0.369933
C47   C     C_3   0.096217 0.083166 0.484651 -0.380965
C48   C     C_3   0.916784 0.049260 0.439478 -0.783121
H18   H     H_    0.859161 0.987375 0.470348 0.226572
H19   H     H_    0.805553 0.103517 0.439274 0.230185
H20   H     H_    0.952721 0.032008 0.373781 0.218129
H21   H     H_    0.152830 0.141330 0.448042 0.190370
H22   H     H_    0.206910 0.028577 0.484833 0.179140
C49   C     C_3   0.481406 0.367430 0.224049 -0.351803
C50   C     C_3   0.638732 0.395066 0.162324 -0.733868
H23   H     H_    0.765280 0.423445 0.195411 0.224817
H24   H     H_    0.681673 0.337456 0.121683 0.221885
H25   H     H_    0.583246 0.450240 0.121163 0.199611
H26   H     H_    0.348907 0.365029 0.185850 0.168401
H27   H     H_    0.464001 0.423247 0.270379 0.184199
C51   C     C_3   0.402663 0.105729 0.242842 -0.331717
C52   C     C_3   0.475579 0.057653 0.321891 -0.800526
H28   H     H_    0.619118 0.027379 0.310936 0.230367
H29   H     H_    0.481986 0.105979 0.375261 0.222584
H30   H     H_    0.376040 0.001402 0.338112 0.222275
H31   H     H_    0.251553 0.123581 0.253974 0.195007
H32   H     H_    0.404028 0.055681 0.190871 0.195549
C53   C     C_3   0.790006 0.584073 0.770827 -0.300062
C54   C     C_3   0.000479 0.580050 0.797424 -0.748725
H33   H     H_    0.091872 0.576045 0.741643 0.230215
H34   H     H_    0.043124 0.639340 0.836372 0.235289
H35   H     H_    0.025939 0.516938 0.834216 0.205593
H36   H     H_    0.702275 0.560903 0.824463 0.190151
H37   H     H_    0.771414 0.537002 0.717456 0.180662
H38   H     H_    0.781515 0.701366 0.681426 0.138749
H39   H     H_    0.789605 0.622068 0.260889 0.168258
H40   H     H_    0.713080 0.247440 0.960278 0.098629
H41   H     H_    0.950515 0.012973 0.759525 0.103586
C55   C     C_3   0.234726 0.258107 0.573824 -0.299905
C56   C     C_3   0.424847 0.205688 0.582395 -0.771906
H42   H     H_    0.450254 0.186057 0.648674 0.238612
H43   H     H_    0.428742 0.143754 0.542917 0.210898
H44   H     H_    0.544676 0.249288 0.561589 0.229061
H45   H     H_    0.213971 0.281012 0.508298 0.186287
H46   H     H_    0.253895 0.317789 0.615502 0.215442

loop_
_geom_bond_atom_site_label_1
_geom_bond_atom_site_label_2
_ccdc_geom_bond_type
C33   C34   S    
C38   C39   A    
C23   C24   A    
C2    C36   S    
C7    C8    A    
C12   C15   A    
C1    O6    A    
C8    H40   S    
C22   C23   A    
C31   C32   A    
C17   C18   A    
C11   C45   S    
C16   C17   A    
O19   V4    S    
C35   C40   A    
O5    C3    A    
C35   C42   S    
C55   H46   S    
O15   C45   A    
V2    O10   S    
C50   H25   S    
C6    C7    A    
C37   C38   A    
C19   C24   A    
C54   H33   S    
C17   C47   S    
O17   V4    S    
C32   C33   S    
O8    V2    S    
C49   C50   S    
C29   C30   A    
C50   H24   S    
C25   C49   S    
C11   C12   A    
C51   H32   S    
O1    V2    S    
C48   H19   S    
O7    V1    S    
C47   C48   S    
C40   C41   S    
C16   H4    S    
C35   C36   A    
O9    C4    A    
O12   C43   A    
C37   H13   S    
O12   V3    S    
C26   H8    S    
C9    C11   A    
C47   H22   S    
C41   C42   S    
C12   C13   A    
C49   H26   S    
C7    H3    S    
C22   H6    S    
O4    C2    A    
C26   C51   S    
V4    O20   S    
C13   C14   A    
O18   V4    S    
C4    C14   S    
C30   H10   S    
C36   C37   A    
C41   H15   S    
C19   C20   A    
O2    C1    A    
C25   C26   S    
C21   H5    S    
C42   H39   S    
C27   C28   A    
O15   V3    S    
C50   H23   S    
C5    C6    A    
C34   H38   S    
C51   H31   S    
C52   H29   S    
O19   C46   A    
C48   H20   S    
C19   C26   S    
C25   H7    S    
C54   H35   S    
C56   H42   S    
V3    O20   S    
O3    C4    A    
C53   H36   S    
C27   C32   A    
C28   C29   A    
C39   C40   A    
O6    V2    S    
O9    V2    S    
C5    H1    S    
C29   H9    S    
C6    H2    S    
C24   C25   S    
O13   V3    S    
O2    V1    S    
C34   C53   S    
C15   C16   A    
C55   C56   S    
C3    C23   S    
C1    C28   S    
C13   C18   A    
C47   H21   S    
C20   C21   A    
O1    C2    A    
O14   C44   A    
O17   V3    S    
O14   V3    S    
O5    V1    S    
O11   V4    S    
O8    C3    A    
C15   H41   S    
C20   C46   S    
C5    C10   A    
C39   C43   S    
C41   H16   S    
C33   H11   S    
C31   C44   S    
O7    V2    S    
O4    V1    S    
C21   C22   A    
O3    V1    S    
V1    O10   S    
C53   C54   S    
C18   C55   S    
C42   H17   S    
C55   H45   S    
C52   H30   S    
O13   C46   A    
C51   C52   S    
C54   H34   S    
C56   H43   S    
C53   H37   S    
C38   H14   S    
C8    C9    A    
O18   C45   A    
C10   C14   A    
C33   H12   S    
O11   C44   A    
C52   H28   S    
C56   H44   S    
C30   C31   A    
C48   H18   S    
C9    C10   A    
C43   O16   A    
O16   V4    S    
C49   H27   S    
C27   C34   S    
