data_mof_unit_25876.cif
_audit_creation_date              2012-12-10T17:44:28-0500
_audit_creation_method            fapswitch 2.2
_symmetry_space_group_name_H-M    P1
_symmetry_Int_Tables_number       1
_space_group_crystal_system       triclinic
_cell_length_a                    9.867801
_cell_length_b                    10.733465
_cell_length_c                    15.386733
_cell_angle_alpha                 91.312797
_cell_angle_beta                  69.132348
_cell_angle_gamma                 88.892597
_cell_volume                      1521.73887502

loop_
_atom_site_label
_atom_site_type_symbol
_atom_type_description
_atom_site_fract_x
_atom_site_fract_y
_atom_site_fract_z
_atom_type_partial_charge
C1    C     C_R   0.500041 0.740470 0.495507 0.873181
C2    C     C_R   0.757524 0.552426 0.028512 0.143370
C3    C     C_R   0.611927 0.591426 0.078462 0.042175
C4    C     C_R   0.410556 0.503411 0.676046 0.848858
C5    C     C_R   0.848605 0.519161 0.076239 -0.216371
C6    C     C_R   0.792548 0.510356 0.172416 -0.240466
C7    C     C_R   0.548696 0.563607 0.174344 0.084445
C8    C     C_R   0.236903 0.895888 0.498157 -0.177575
C9    C     C_R   0.104166 0.961569 0.532471 -0.146961
C10   C     C_R   0.093587 0.075303 0.579515 -0.155225
C11   C     C_R   0.218588 0.128928 0.583571 -0.154462
C12   C     C_R   0.453939 0.597769 0.896396 0.087191
C13   C     C_R   0.356105 0.068251 0.540492 0.100199
C14   C     C_R   0.362406 0.943692 0.510429 0.098837
C15   C     C_R   0.494674 0.874645 0.493701 -0.126107
C16   C     C_R   0.495488 0.261226 0.509580 0.886366
C17   C     C_R   0.621350 0.935088 0.488828 -0.221696
C18   C     C_R   0.619376 0.061959 0.499780 -0.220549
C19   C     C_R   0.488520 0.129216 0.522509 -0.133447
C20   C     C_R   0.789049 0.664046 0.623027 -0.175364
C21   C     C_R   0.824355 0.741733 0.684924 -0.212873
C22   C     C_R   0.964056 0.739292 0.685808 -0.191793
C23   C     C_R   0.324139 0.669020 0.941562 0.177489
C24   C     C_R   0.069589 0.660274 0.623969 -0.179633
C25   C     C_R   0.037412 0.579835 0.560801 0.142797
C26   C     C_R   0.892686 0.580610 0.560548 0.170146
C27   C     C_R   0.961652 0.421907 0.442953 -0.127044
C28   C     C_R   0.589061 0.504973 0.323570 0.891756
C29   C     C_R   0.104842 0.421525 0.443293 -0.131143
C30   C     C_R   0.362667 0.537714 0.774976 -0.053632
C31   C     C_R   0.642721 0.525840 0.222156 -0.110095
C32   C     C_R   0.213965 0.671667 0.903681 -0.215999
C33   C     C_R   0.233909 0.607269 0.819901 -0.224135
C34   C     C_R   0.564373 0.594630 0.934804 0.062644
C35   C     C_R   0.466736 0.527311 0.816710 -0.261916
C36   C     C_3   0.383691 0.548651 0.217581 -0.346950
C37   C     C_3   0.304395 0.659157 0.282415 -0.824076
C38   C     C_R   0.528906 0.637618 0.027205 0.062039
C39   C     C_R   0.411059 0.722881 0.065114 -0.229363
C40   C     C_R   0.308191 0.737605 0.023053 -0.258724
C41   C     C_R   0.707828 0.550238 0.885692 -0.226972
C42   C     C_R   0.806407 0.538388 0.931443 -0.228577
H1    H     H_    0.214077 0.798623 0.055978 0.150139
H2    H     H_    0.679543 0.672561 0.626958 0.213377
H3    H     H_    0.742536 0.804104 0.732581 0.161635
H4    H     H_    0.991516 0.800154 0.733786 0.157583
H5    H     H_    0.175348 0.665643 0.626963 0.209851
H6    H     H_    0.185972 0.357546 0.397037 0.150704
H7    H     H_    0.866026 0.483211 0.207239 0.169242
H8    H     H_    0.916940 0.507157 0.892138 0.151201
H9    H     H_    0.114710 0.726366 0.937292 0.143208
H10   H     H_    0.152718 0.617251 0.788178 0.150525
H11   H     H_    0.560747 0.466604 0.783825 0.155270
H12   H     H_    0.962187 0.495341 0.038877 0.152442
H13   H     H_    0.397733 0.776497 0.127856 0.177420
H14   H     H_    0.746958 0.528780 0.811791 0.164034
H15   H     H_    0.246715 0.628177 0.353668 0.273473
H16   H     H_    0.380544 0.732456 0.285745 0.241344
H17   H     H_    0.220483 0.700965 0.258458 0.225993
H18   H     H_    0.334637 0.533901 0.163736 0.193822
H19   H     H_    0.358139 0.458868 0.253215 0.201629
H20   H     H_    0.723593 0.884669 0.474626 0.170861
H21   H     H_    0.238821 0.811104 0.459016 0.170580
H22   H     H_    0.008932 0.922898 0.523976 0.147710
H23   H     H_    0.989582 0.124060 0.609882 0.138910
H24   H     H_    0.206803 0.218078 0.620194 0.156538
H25   H     H_    0.721222 0.107354 0.488238 0.168300
H26   H     H_    0.934672 0.358418 0.396346 0.141016
N1    N     N_R   0.856800 0.501200 0.500850 -0.117546
N2    N     N_R   0.142390 0.501280 0.500880 -0.131621
O1    O     O_R   0.385310 0.683220 0.500000 -0.652020
O2    O     O_R   0.614640 0.683250 0.500010 -0.635162
O3    O     O_R   0.319840 0.499980 0.632240 -0.637467
O4    O     O_R   0.549160 0.500000 0.632250 -0.631487
O5    O     O_R   0.385360 0.316750 0.499990 -0.617544
O6    O     O_R   0.614690 0.316780 0.500000 -0.616098
O7    O     O_R   0.450840 0.500000 0.367750 -0.602912
O8    O     O_R   0.680160 0.500020 0.367760 -0.611885
Zn1   Zn    Zn3+2 0.346880 0.499980 0.499990 0.909509
Zn2   Zn    Zn3+2 0.653120 0.500020 0.500010 0.927083

loop_
_geom_bond_atom_site_label_1
_geom_bond_atom_site_label_2
_ccdc_geom_bond_type
C35   H11   S    
C9    H22   S    
C7    C36   S    
O1    Zn1   S    
C41   H14   S    
C33   H10   S    
C12   C23   A    
C1    O1    A    
C30   C35   A    
C36   C37   S    
C3    C7    A    
C5    C6    A    
O8    Zn2   S    
C27   C29   A    
C23   C40   A    
C16   O5    A    
C18   C19   A    
C41   C42   A    
C27   H26   S    
C40   H1    S    
C39   H13   S    
C3    C38   A    
C8    C9    A    
C1    C15   S    
C28   O8    A    
C9    C10   A    
C4    O4    A    
C37   H16   S    
C27   N1    A    
C11   H24   S    
C6    C31   A    
O4    Zn2   S    
C13   C14   A    
C34   C41   A    
C20   H2    S    
C21   H3    S    
O7    Zn1   S    
C1    O2    A    
C7    C31   A    
C13   C19   A    
C29   H6    S    
C5    H12   S    
C24   C25   A    
C39   C40   A    
C25   C26   A    
C34   C38   A    
C32   H9    S    
C17   H20   S    
C17   C18   A    
O3    Zn1   S    
C12   C35   A    
C28   O7    A    
C4    O3    A    
C37   H17   S    
C42   H8    S    
C22   H4    S    
C22   C24   A    
C2    C5    A    
C12   C34   A    
C36   H19   S    
C29   N2    A    
C10   H23   S    
C15   C17   A    
C8    C14   A    
C30   C33   A    
N2    Zn1   S    
C16   O6    A    
C24   H5    S    
C28   C31   S    
O6    Zn2   S    
C36   H18   S    
C23   C32   A    
C2    C3    A    
C18   H25   S    
O2    Zn2   S    
C32   C33   A    
C11   C13   A    
C38   C39   A    
C20   C26   A    
C2    C42   A    
C16   C19   S    
C6    H7    S    
C4    C30   S    
C10   C11   A    
C8    H21   S    
C20   C21   A    
C26   N1    A    
C14   C15   A    
N1    Zn2   S    
C25   N2    A    
C21   C22   A    
O5    Zn1   S    
C37   H15   S    
