data_mof_unit_11155.cif
_audit_creation_date              2012-10-26T19:52:22-0400
_audit_creation_method            fapswitch 2.2
_symmetry_space_group_name_H-M    P1
_symmetry_Int_Tables_number       1
_space_group_crystal_system       triclinic
_cell_length_a                    9.538121
_cell_length_b                    10.837707
_cell_length_c                    13.480288
_cell_angle_alpha                 90.12934
_cell_angle_beta                  73.533693
_cell_angle_gamma                 89.581809
_cell_volume                      1336.27532319

loop_
_atom_site_label
_atom_site_type_symbol
_atom_type_description
_atom_site_fract_x
_atom_site_fract_y
_atom_site_fract_z
_atom_type_partial_charge
C1    C     C_R   0.501912 0.737609 0.494366 0.546059
C2    C     C_R   0.386541 0.452607 0.809863 -0.002739
C3    C     C_R   0.403911 0.939572 0.450166 0.042798
C4    C     C_R   0.424428 0.485494 0.698733 0.543999
C5    C     C_R   0.509845 0.870678 0.480769 -0.027197
C6    C     C_R   0.629939 0.934151 0.497592 -0.156332
C7    C     C_R   0.629108 0.062802 0.502200 -0.160488
C8    C     C_R   0.506228 0.129079 0.493367 -0.006438
C9    C     C_R   0.397959 0.065255 0.464829 0.006853
C10   C     C_3   0.235851 0.068935 0.505150 -0.197499
C11   C     C_3   0.239852 0.933125 0.475092 0.130263
C12   C     C_R   0.449620 0.437852 0.974046 0.035118
C13   C     C_R   0.943982 0.403713 0.457122 0.153094
C14   C     C_R   0.902773 0.585252 0.555045 -0.027624
C15   C     C_R   0.051426 0.584321 0.556051 -0.038557
C16   C     C_R   0.500373 0.262274 0.500852 0.549578
C17   C     C_R   0.091839 0.404672 0.455835 0.157332
C18   C     C_3   0.139066 0.365090 0.345295 -0.285281
C19   C     C_3   0.979111 0.358946 0.348378 -0.277464
C20   C     C_R   0.577720 0.500173 0.300367 0.547186
C21   C     C_R   0.808448 0.504751 0.023159 -0.138063
C22   C     C_R   0.622911 0.494971 0.187276 0.000957
C23   C     C_R   0.494813 0.440177 0.864364 0.028429
C24   C     C_R   0.239098 0.434600 0.863588 -0.139968
C25   C     C_R   0.198218 0.410716 0.969047 -0.148285
C26   C     C_R   0.300295 0.416685 0.024566 -0.123436
C27   C     C_3   0.189349 0.802662 0.351803 0.023446
C28   C     C_3   0.149937 0.804737 0.249481 -0.251789
C29   C     C_3   0.138113 0.675222 0.208996 -0.488132
C30   C     C_R   0.556005 0.457245 0.028253 0.031446
C31   C     C_R   0.704914 0.472104 0.972303 0.052762
C32   C     C_R   0.749505 0.450776 0.866487 -0.149292
C33   C     C_R   0.646579 0.428802 0.814190 -0.123354
C34   C     C_R   0.518661 0.467363 0.136059 -0.136572
C35   C     C_R   0.768028 0.515657 0.130314 -0.139968
Cu1   Cu    Cu3+1 0.359330 0.500020 0.500010 0.917613
Cu2   Cu    Cu3+1 0.640670 0.499980 0.499990 0.923574
H1    H     H_    0.849912 0.540133 0.168311 0.117515
H2    H     H_    0.864579 0.449832 0.823987 0.102630
H3    H     H_    0.940527 0.263145 0.343706 0.135258
H4    H     H_    0.920057 0.523285 0.979509 0.102701
H5    H     H_    0.408939 0.454114 0.182064 0.105163
H6    H     H_    0.258835 0.401289 0.106459 0.097410
H7    H     H_    0.085927 0.389899 0.009196 0.116849
H8    H     H_    0.690444 0.398744 0.735247 0.158872
H9    H     H_    0.720575 0.885032 0.513332 0.139983
H10   H     H_    0.103581 0.751667 0.409477 0.141153
H11   H     H_    0.297654 0.756518 0.339358 0.169258
H12   H     H_    0.720372 0.109223 0.518513 0.136707
H13   H     H_    0.043468 0.853423 0.260839 0.177120
H14   H     H_    0.234941 0.856057 0.190887 0.175894
H15   H     H_    0.244817 0.626669 0.193776 0.149029
H16   H     H_    0.107447 0.680378 0.135552 0.149830
H17   H     H_    0.052744 0.623263 0.266313 0.150153
H18   H     H_    0.089482 0.654481 0.599147 0.110240
H19   H     H_    0.155149 0.437042 0.823781 0.124154
H20   H     H_    0.198359 0.084339 0.590247 0.087295
H21   H     H_    0.183917 0.130410 0.459931 0.164660
H22   H     H_    0.183606 0.871250 0.539756 0.099719
H23   H     H_    0.829473 0.656206 0.597347 0.121763
H24   H     H_    0.196526 0.439851 0.294966 0.133125
H25   H     H_    0.195549 0.274138 0.332773 0.136727
H26   H     H_    0.948408 0.425298 0.295464 0.144918
N1    N     N_R   0.852320 0.499070 0.499340 -0.236602
N2    N     N_R   0.148230 0.499110 0.499340 -0.235762
O1    O     O_R   0.381190 0.680360 0.500000 -0.523121
O2    O     O_R   0.618780 0.680320 0.499990 -0.502730
O3    O     O_R   0.323230 0.500000 0.650990 -0.501045
O4    O     O_R   0.560820 0.499960 0.650980 -0.514435
O5    O     O_R   0.381220 0.319680 0.500010 -0.499145
O6    O     O_R   0.618810 0.319640 0.500000 -0.509228
O7    O     O_R   0.439180 0.500040 0.349020 -0.514471
O8    O     O_R   0.676770 0.500000 0.349010 -0.504079
O9    O     O_3   0.193102 0.925343 0.384608 -0.579535

loop_
_geom_bond_atom_site_label_1
_geom_bond_atom_site_label_2
_ccdc_geom_bond_type
C27   H11   S    
Cu2   O4    S    
C33   H8    S    
C34   H5    S    
C7    C8    A    
C22   C35   A    
C21   C31   A    
C12   C23   A    
C1    C5    S    
C28   C29   S    
C10   H21   S    
C5    C6    A    
C28   H14   S    
Cu1   O1    S    
C29   H17   S    
C15   N2    A    
C18   C19   S    
C32   H2    S    
C28   H13   S    
C19   H26   S    
C8    C9    A    
C23   C33   A    
C27   O9    S    
C9    C10   S    
C8    C16   S    
C16   O6    A    
C11   H22   S    
C25   H7    S    
C4    O4    A    
Cu1   O5    S    
C26   H6    S    
C1    O1    A    
C22   C34   A    
C30   C34   A    
C35   H1    S    
C16   O5    A    
C24   C25   A    
C7    H12   S    
C19   H3    S    
C4    O3    A    
C13   C19   S    
Cu1   N2    S    
C18   H25   S    
C25   C26   A    
C12   C26   A    
C15   H18   S    
C2    C4    S    
C3    C9    A    
C31   C32   A    
C14   N1    A    
C10   H20   S    
C17   C18   S    
C21   H4    S    
C20   C22   S    
Cu2   O6    S    
C2    C24   A    
C27   C28   S    
Cu2   N1    S    
C27   H10   S    
Cu2   O8    S    
Cu1   Cu2   S    
C6    H9    S    
C12   C30   A    
C3    C5    A    
C11   O9    S    
Cu1   O3    S    
C18   H24   S    
C6    C7    A    
C21   C35   A    
C24   H19   S    
C14   H23   S    
C17   N2    A    
C13   C17   A    
C32   C33   A    
C30   C31   A    
C13   N1    A    
C29   H16   S    
Cu2   O2    S    
C1    O2    A    
C20   O8    A    
C3    C11   S    
C10   C11   S    
C2    C23   A    
C14   C15   A    
C20   O7    A    
Cu1   O7    S    
C29   H15   S    
