data_mof_unit_12006.cif
_audit_creation_date              2012-12-10T18:03:16-0500
_audit_creation_method            fapswitch 2.2
_symmetry_space_group_name_H-M    P1
_symmetry_Int_Tables_number       1
_space_group_crystal_system       triclinic
_cell_length_a                    10.940205
_cell_length_b                    9.609322
_cell_length_c                    15.059817
_cell_angle_alpha                 89.980384
_cell_angle_beta                  96.03969
_cell_angle_gamma                 90.022305
_cell_volume                      1574.41954202

loop_
_atom_site_label
_atom_site_type_symbol
_atom_type_description
_atom_site_fract_x
_atom_site_fract_y
_atom_site_fract_z
_atom_type_partial_charge
C1    C     C_R   0.263078 0.499968 0.505414 0.880995
C2    C     C_R   0.936339 0.627225 0.491795 0.304615
C3    C     C_R   0.936129 0.372910 0.491123 0.304625
C4    C     C_R   0.063873 0.627091 0.508882 0.304637
C5    C     C_R   0.556368 0.623819 0.095985 0.372987
C6    C     C_R   0.443557 0.376159 0.903993 0.373151
C7    C     C_R   0.443065 0.623498 0.903895 0.373014
C8    C     C_R   0.556825 0.376459 0.096093 0.372914
C9    C     C_R   0.553379 0.626352 0.188892 0.291307
C10   C     C_R   0.446591 0.373626 0.811093 0.291290
C11   C     C_R   0.446035 0.626016 0.810983 0.291108
C12   C     C_R   0.736922 0.500032 0.494587 0.880992
C13   C     C_R   0.553905 0.373965 0.189011 0.291110
C14   C     C_R   0.534531 0.500107 0.234894 -0.356343
C15   C     C_R   0.465452 0.499882 0.765100 -0.356381
C16   C     C_R   0.525112 0.500049 0.048675 -0.148771
C17   C     C_R   0.474817 0.499919 0.951306 -0.148786
C18   C     C_R   0.870726 0.500085 0.489632 -0.330390
C19   C     C_R   0.129275 0.499916 0.510373 -0.330388
C20   C     C_3   0.330454 0.146921 0.371180 -0.634948
C21   C     C_3   0.669536 0.853078 0.628826 -0.634957
C22   C     C_3   0.669907 0.146928 0.628573 -0.635241
C23   C     C_R   0.510587 0.500031 0.330493 0.883105
C24   C     C_3   0.330093 0.853072 0.371427 -0.635229
C25   C     C_R   0.489412 0.499967 0.669506 0.883109
C26   C     C_R   0.420439 0.074377 0.440011 0.288132
C27   C     C_R   0.579559 0.925623 0.559990 0.288124
C28   C     C_R   0.579590 0.074385 0.559967 0.288199
C29   C     C_R   0.420409 0.925615 0.440033 0.288195
C30   C     C_R   0.063662 0.372777 0.508213 0.304620
Cl1   Cl    Cl    0.632958 0.760230 0.044862 -0.345999
Cl2   Cl    Cl    0.864635 0.789481 0.463430 -0.409224
Cl3   Cl    Cl    0.864115 0.211084 0.461886 -0.407972
Cl4   Cl    Cl    0.135888 0.788918 0.538118 -0.407946
Cl5   Cl    Cl    0.366735 0.239917 0.955066 -0.346043
Cl6   Cl    Cl    0.365889 0.759431 0.954900 -0.346164
Cl7   Cl    Cl    0.633755 0.240375 0.045070 -0.346158
Cl8   Cl    Cl    0.587080 0.786234 0.244850 -0.384675
Cl9   Cl    Cl    0.412883 0.213754 0.755131 -0.384653
Cl10  Cl    Cl    0.411501 0.785590 0.754839 -0.383814
Cl11  Cl    Cl    0.588440 0.214392 0.245162 -0.383853
Cl12  Cl    Cl    0.135367 0.210523 0.536584 -0.409200
Cu1   Cu    Cu3+1 0.500000 0.640660 0.500000 1.045979
Cu2   Cu    Cu3+1 0.500000 0.359340 0.500000 1.045979
H1    H     H_    0.327216 0.259476 0.373903 0.255726
H2    H     H_    0.327343 0.740479 0.373812 0.255644
H3    H     H_    0.234722 0.885041 0.379766 0.240077
H4    H     H_    0.350712 0.880360 0.303011 0.236083
H5    H     H_    0.351888 0.120273 0.302866 0.236376
H6    H     H_    0.235028 0.114355 0.378879 0.239790
H7    H     H_    0.672784 0.740525 0.626096 0.255727
H8    H     H_    0.764964 0.885653 0.621140 0.239786
H9    H     H_    0.648085 0.879715 0.697138 0.236371
H10   H     H_    0.672655 0.259522 0.626190 0.255644
H11   H     H_    0.649292 0.119636 0.696990 0.236062
H12   H     H_    0.765279 0.114963 0.620230 0.240091
N1    N     N_R   0.500000 0.852070 0.500000 -0.174125
N2    N     N_R   0.500000 0.147930 0.500000 -0.174123
O1    O     O_R   0.319640 0.618740 0.499990 -0.555460
O2    O     O_R   0.680360 0.381260 0.500010 -0.555458
O3    O     O_R   0.680360 0.618740 0.500010 -0.555373
O4    O     O_R   0.319640 0.381260 0.499990 -0.555374
O5    O     O_R   0.499990 0.618780 0.371460 -0.559612
O6    O     O_R   0.500010 0.381220 0.628540 -0.559621
O7    O     O_R   0.500010 0.618780 0.628540 -0.559644
O8    O     O_R   0.499990 0.381220 0.371460 -0.559638

loop_
_geom_bond_atom_site_label_1
_geom_bond_atom_site_label_2
_ccdc_geom_bond_type
C14   C23   S    
C6    C10   A    
C3    C30   A    
C2    C4    A    
C9    C14   A    
C5    C9    A    
C22   H11   S    
C28   N2    A    
C26   C29   A    
C2    C18   A    
C26   N2    A    
C7    Cl6   S    
C24   H4    S    
Cu2   O8    S    
C20   H1    S    
Cu1   O1    S    
Cu1   O7    S    
C24   H2    S    
C1    O4    A    
C23   O5    A    
C21   C27   S    
Cu1   O5    S    
C19   C30   A    
C8    C16   A    
C22   C28   S    
C13   C14   A    
Cu2   O6    S    
C7    C11   A    
C12   O3    A    
C24   H3    S    
C20   H5    S    
C20   C26   S    
Cu2   O2    S    
C2    Cl2   S    
C21   H9    S    
C23   O8    A    
C13   Cl11  S    
C9    Cl8   S    
C29   N1    A    
C10   C15   A    
C1    O1    A    
Cu1   Cu2   S    
C11   Cl10  S    
C4    Cl4   S    
C15   C25   S    
C1    C19   S    
C8    Cl7   S    
C3    Cl3   S    
C22   H12   S    
C12   O2    A    
C8    C13   A    
C21   H7    S    
C25   O7    A    
C6    Cl5   S    
Cu1   O3    S    
C3    C18   A    
C22   H10   S    
C27   N1    A    
C12   C18   S    
C27   C28   A    
C6    C17   A    
Cu1   N1    S    
C24   C29   S    
C30   Cl12  S    
C5    C16   A    
C20   H6    S    
Cu2   O4    S    
C4    C19   A    
C11   C15   A    
C21   H8    S    
C16   C17   S    
Cu2   N2    S    
C10   Cl9   S    
C5    Cl1   S    
C25   O6    A    
C7    C17   A    
