data_mof_unit_61855.cif
_audit_creation_date              2013-03-05T16:15:55-0500
_audit_creation_method            fapswitch 2.2
_symmetry_space_group_name_H-M    P1
_symmetry_Int_Tables_number       1
_space_group_crystal_system       triclinic
_cell_length_a                    34.50712
_cell_length_b                    24.347962
_cell_length_c                    24.388286
_cell_angle_alpha                 90.019503
_cell_angle_beta                  89.995823
_cell_angle_gamma                 89.997683
_cell_volume                      20490.5012304

loop_
_atom_site_label
_atom_site_type_symbol
_atom_site_description
_atom_site_fract_x
_atom_site_fract_y
_atom_site_fract_z
_atom_type_partial_charge
Zn1   Zn    Zn3+2 0.782760 0.500000 0.564970 1.098265
Zn2   Zn    Zn3+2 0.217240 0.500000 0.435030 1.083347
Zn3   Zn    Zn3+2 0.782760 0.500000 0.435030 1.097954
Zn4   Zn    Zn3+2 0.217240 0.500000 0.564970 1.097256
Zn5   Zn    Zn3+2 0.282760 0.000000 0.064970 1.090694
Zn6   Zn    Zn3+2 0.717240 1.000000 0.935030 1.076320
Zn7   Zn    Zn3+2 0.282760 1.000000 0.935030 1.089033
Zn8   Zn    Zn3+2 0.717240 0.000000 0.064970 1.076880
Zn9   Zn    Zn3+2 0.717260 0.564980 0.500000 0.983272
Zn10  Zn    Zn3+2 0.282740 0.435020 0.500000 1.005461
Zn11  Zn    Zn3+2 0.717260 0.435020 0.500000 0.983357
Zn12  Zn    Zn3+2 0.282740 0.564980 0.500000 0.993412
Zn13  Zn    Zn3+2 0.217260 0.064980 0.000000 1.008071
Zn14  Zn    Zn3+2 0.782740 0.935020 0.000000 1.015691
Zn15  Zn    Zn3+2 0.217260 0.935020 0.000000 0.995500
Zn16  Zn    Zn3+2 0.782740 0.064980 0.000000 1.015662
O1    O     O_3   0.750010 0.500000 0.500000 -0.522442
O2    O     O_3   0.249990 0.500000 0.500000 -0.525899
O3    O     O_3   0.250010 0.000000 0.000000 -0.524426
O4    O     O_3   0.749990 0.000000 0.000000 -0.526049
O5    O     O_R   0.772930 0.563990 0.390540 -0.604232
O6    O     O_R   0.227070 0.436010 0.609460 -0.610971
O7    O     O_R   0.772930 0.436010 0.609460 -0.604211
O8    O     O_R   0.227070 0.563990 0.390540 -0.617104
O9    O     O_R   0.227070 0.436010 0.390540 -0.618995
O10   O     O_R   0.772930 0.563990 0.609460 -0.610507
O11   O     O_R   0.227070 0.563990 0.609460 -0.610997
O12   O     O_R   0.772930 0.436010 0.390540 -0.610663
O13   O     O_R   0.272930 0.063990 0.890540 -0.595831
O14   O     O_R   0.727070 0.936010 0.109460 -0.588546
O15   O     O_R   0.272930 0.936010 0.109460 -0.596856
O16   O     O_R   0.727070 0.063990 0.890540 -0.588687
O17   O     O_R   0.727070 0.936010 0.890540 -0.598453
O18   O     O_R   0.272930 0.063990 0.109460 -0.582768
O19   O     O_R   0.727070 0.063990 0.109460 -0.598018
O20   O     O_R   0.272930 0.936010 0.890540 -0.588016
O21   O     O_R   0.727090 0.609470 0.563990 -0.637441
O22   O     O_R   0.272910 0.390530 0.436010 -0.615436
O23   O     O_R   0.727090 0.390530 0.436010 -0.637332
O24   O     O_R   0.272910 0.609470 0.563990 -0.631818
O25   O     O_R   0.272910 0.390530 0.563990 -0.627914
O26   O     O_R   0.727090 0.609470 0.436010 -0.638012
O27   O     O_R   0.272910 0.609470 0.436010 -0.632776
O28   O     O_R   0.727090 0.390530 0.563990 -0.637996
O29   O     O_R   0.227090 0.109470 0.063990 -0.653850
O30   O     O_R   0.772910 0.890530 0.936010 -0.647251
O31   O     O_R   0.227090 0.890530 0.936010 -0.647922
O32   O     O_R   0.772910 0.109470 0.063990 -0.647612
O33   O     O_R   0.772910 0.890530 0.063990 -0.644166
O34   O     O_R   0.227090 0.109470 0.936010 -0.638559
O35   O     O_R   0.772910 0.109470 0.936010 -0.643942
O36   O     O_R   0.227090 0.890530 0.063990 -0.652693
O37   O     O_R   0.662570 0.545500 0.500000 -0.654535
O38   O     O_R   0.337430 0.454500 0.500000 -0.652061
O39   O     O_R   0.662570 0.454500 0.500000 -0.654507
O40   O     O_R   0.337430 0.545500 0.500000 -0.654334
O41   O     O_R   0.162570 0.045500 0.000000 -0.644794
O42   O     O_R   0.837430 0.954500 0.000000 -0.635217
O43   O     O_R   0.162570 0.954500 0.000000 -0.638280
O44   O     O_R   0.837430 0.045500 0.000000 -0.635170
O45   O     O_R   0.837440 0.500000 0.454520 -0.590766
O46   O     O_R   0.162560 0.500000 0.545480 -0.583849
O47   O     O_R   0.837440 0.500000 0.545480 -0.590377
O48   O     O_R   0.162560 0.500000 0.454520 -0.591943
O49   O     O_R   0.337440 0.000000 0.954520 -0.622706
O50   O     O_R   0.662560 1.000000 0.045480 -0.609564
O51   O     O_R   0.337440 1.000000 0.045480 -0.601024
O52   O     O_R   0.662560 0.000000 0.954520 -0.610077
C1    C     C_R   0.749913 0.605042 0.394873 0.869558
C2    C     C_R   0.250093 0.394972 0.605122 0.872862
C3    C     C_R   0.749912 0.394959 0.605126 0.869392
C4    C     C_R   0.250055 0.604982 0.394989 0.875332
C5    C     C_R   0.250102 0.395089 0.394929 0.874228
C6    C     C_R   0.749937 0.604989 0.605042 0.873148
C7    C     C_R   0.250012 0.604966 0.604904 0.880911
C8    C     C_R   0.749938 0.395012 0.394956 0.873176
C9    C     C_R   0.250014 0.104988 0.895104 0.884918
C10   C     C_R   0.749984 0.895016 0.104888 0.884494
C11   C     C_R   0.250031 0.894894 0.104989 0.866946
C12   C     C_R   0.749984 0.104983 0.895113 0.884606
C13   C     C_R   0.749945 0.894860 0.895060 0.872047
C14   C     C_R   0.249922 0.104980 0.105070 0.875276
C15   C     C_R   0.749944 0.105139 0.104941 0.871921
C16   C     C_R   0.250047 0.894823 0.894981 0.877170
C17   C     C_R   0.644229 0.500000 0.500007 0.777145
C18   C     C_R   0.355768 0.500000 0.500024 0.773995
C19   C     C_R   0.144230 0.000003 0.000022 0.816555
C20   C     C_R   0.855770 1.000000 0.000006 0.833579
C21   C     C_R   0.855656 0.499970 0.499994 0.990502
C22   C     C_R   0.144206 0.499955 0.500003 0.977984
C23   C     C_R   0.355656 0.000021 0.999995 0.961760
C24   C     C_R   0.644211 0.000005 0.000002 0.924708
C25   C     C_R   0.081610 0.544938 0.521544 0.357683
C26   C     C_R   0.917771 0.450168 0.495156 0.358791
C27   C     C_R   0.081686 0.454642 0.478449 0.358802
C28   C     C_R   0.917792 0.549714 0.504618 0.358195
C29   C     C_R   0.581681 0.045010 0.978121 0.350298
C30   C     C_R   0.417783 0.950350 0.005409 0.347768
C31   C     C_R   0.581669 0.955051 0.021903 0.351262
C32   C     C_R   0.417772 0.049737 0.994455 0.352092
C33   C     C_R   0.101730 0.499833 0.500003 -0.245859
C34   C     C_R   0.897910 0.499946 0.499960 -0.249454
C35   C     C_R   0.601746 0.000022 0.000008 -0.224103
C36   C     C_R   0.397912 0.000041 0.999974 -0.222662
C37   C     C_R   0.040900 0.451465 0.484634 -0.098153
C38   C     C_R   0.958580 0.549418 0.511070 -0.100825
C39   C     C_R   0.040891 0.548193 0.515039 -0.102687
C40   C     C_R   0.958548 0.450437 0.488535 -0.100888
C41   C     C_R   0.540909 0.951823 0.015647 -0.093794
C42   C     C_R   0.458572 0.049386 0.988056 -0.096521
C43   C     C_R   0.540920 0.048256 0.984367 -0.094032
C44   C     C_R   0.458571 0.950715 0.011866 -0.089619
C45   C     C_R   0.020301 0.499855 0.499799 -0.084368
C46   C     C_R   0.979160 0.499904 0.499791 -0.084852
C47   C     C_R   0.520318 0.000044 0.000000 -0.094532
C48   C     C_R   0.479169 0.000051 0.999981 -0.094325
C49   C     C_R   0.019948 0.402373 0.474859 0.365967
C50   C     C_R   0.979532 0.596886 0.526805 0.365370
C51   C     C_R   0.020014 0.597369 0.524612 0.364273
C52   C     C_R   0.979456 0.402979 0.472652 0.365699
C53   C     C_R   0.519980 0.902818 0.025834 0.372137
C54   C     C_R   0.479525 0.096657 0.971774 0.374269
C55   C     C_R   0.520000 0.097268 0.974174 0.375096
C56   C     C_R   0.479504 0.903443 0.028177 0.375699
C57   C     C_R   0.784431 0.287853 0.704937 -0.196007
C58   C     C_R   0.218237 0.722058 0.305516 -0.191274
C59   C     C_R   0.784432 0.712134 0.295045 -0.196430
C60   C     C_R   0.215707 0.286989 0.704023 -0.192968
C61   C     C_R   0.222218 0.728343 0.687974 -0.187863
C62   C     C_R   0.782611 0.280233 0.303011 -0.189087
C63   C     C_R   0.236996 0.259513 0.324301 -0.185416
C64   C     C_R   0.782608 0.719771 0.696972 -0.188422
C65   C     C_R   0.240784 0.825462 0.242032 -0.180997
C66   C     C_R   0.770596 0.180621 0.764522 -0.183235
C67   C     C_R   0.230324 0.180021 0.763855 -0.180617
C68   C     C_R   0.770601 0.819371 0.235469 -0.183459
C69   C     C_R   0.759880 0.175345 0.241458 -0.188571
C70   C     C_R   0.246720 0.826187 0.756809 -0.190939
C71   C     C_R   0.759881 0.824654 0.758541 -0.188547
C72   C     C_R   0.283359 0.218684 0.197793 -0.196953
H1    H     H_    0.811564 0.269174 0.717270 0.190809
H2    H     H_    0.193072 0.748184 0.300418 0.192329
H3    H     H_    0.811565 0.730804 0.282700 0.190464
H4    H     H_    0.188670 0.267596 0.715663 0.190499
H5    H     H_    0.199788 0.759502 0.688150 0.195318
H6    H     H_    0.808314 0.255533 0.296385 0.195125
H7    H     H_    0.226785 0.218641 0.334302 0.191595
H8    H     H_    0.808311 0.744471 0.703588 0.195600
H9    H     H_    0.233428 0.836333 0.283846 0.194203
H10   H     H_    0.786548 0.174023 0.726824 0.194468
H11   H     H_    0.215070 0.172955 0.725669 0.195396
H12   H     H_    0.786558 0.825964 0.273160 0.194330
H13   H     H_    0.767741 0.164831 0.283173 0.194830
H14   H     H_    0.243681 0.837919 0.714164 0.192344
H15   H     H_    0.767739 0.835169 0.716823 0.194883
H16   H     H_    0.309453 0.242336 0.205095 0.184335
C73   C     C_R   0.784594 0.327965 0.664275 0.356067
C74   C     C_R   0.217865 0.681279 0.345567 0.348226
C75   C     C_R   0.784595 0.672023 0.335707 0.356075
C76   C     C_R   0.215545 0.327114 0.663367 0.361828
C77   C     C_R   0.221742 0.687849 0.647681 0.348855
C78   C     C_R   0.782911 0.320810 0.343281 0.345901
C79   C     C_R   0.237282 0.299897 0.364741 0.353094
C80   C     C_R   0.782907 0.679197 0.656700 0.345828
C81   C     C_R   0.240852 0.865988 0.201709 0.346166
C82   C     C_R   0.770615 0.139862 0.804528 0.348333
C83   C     C_R   0.230317 0.139244 0.803849 0.350860
C84   C     C_R   0.770619 0.860131 0.195464 0.348259
C85   C     C_R   0.759667 0.134625 0.201345 0.345603
C86   C     C_R   0.246471 0.866687 0.797108 0.351773
C87   C     C_R   0.759669 0.865374 0.798655 0.345775
C88   C     C_R   0.283451 0.178108 0.157541 0.343591
C89   C     C_R   0.749525 0.352735 0.647892 -0.115059
C90   C     C_R   0.250422 0.647160 0.352465 -0.102808
C91   C     C_R   0.749525 0.647264 0.352105 -0.114980
C92   C     C_R   0.250488 0.352768 0.647876 -0.108965
C93   C     C_R   0.250502 0.646952 0.647413 -0.103225
C94   C     C_R   0.749560 0.352880 0.352310 -0.108314
C95   C     C_R   0.250555 0.353122 0.352231 -0.091081
C96   C     C_R   0.749558 0.647125 0.647684 -0.108451
C97   C     C_R   0.250220 0.852214 0.147195 -0.097052
C98   C     C_R   0.749672 0.147689 0.853329 -0.096923
C99   C     C_R   0.250331 0.147716 0.853323 -0.100019
C100  C     C_R   0.749671 0.852311 0.146672 -0.096676
C101  C     C_R   0.749695 0.147981 0.146967 -0.107723
C102  C     C_R   0.250329 0.851978 0.852768 -0.114428
C103  C     C_R   0.749700 0.852017 0.853035 -0.107865
C104  C     C_R   0.249674 0.147227 0.147638 -0.100645
C105  C     C_R   0.714273 0.336989 0.673124 0.126039
C106  C     C_R   0.283277 0.653817 0.318533 0.130952
C107  C     C_R   0.714272 0.663021 0.326887 0.125774
C108  C     C_R   0.285614 0.337925 0.673955 0.130338
C109  C     C_R   0.279859 0.646783 0.687719 0.134036
C110  C     C_R   0.715999 0.344407 0.320152 0.133905
C111  C     C_R   0.263924 0.365443 0.298752 0.133535
C112  C     C_R   0.715999 0.655597 0.679855 0.134550
C113  C     C_R   0.259979 0.797469 0.133603 0.132186
C114  C     C_R   0.728622 0.196624 0.861945 0.119360
C115  C     C_R   0.270467 0.197305 0.862601 0.092999
C116  C     C_R   0.728614 0.803384 0.138064 0.119522
C117  C     C_R   0.739445 0.202522 0.133277 0.134069
C118  C     C_R   0.254837 0.796060 0.867410 0.136517
C119  C     C_R   0.739453 0.797476 0.866727 0.134072
C120  C     C_R   0.215856 0.156966 0.178903 0.120186
C121  C     C_R   0.714819 0.296734 0.714044 -0.142539
C122  C     C_R   0.282904 0.694528 0.278041 -0.140965
C123  C     C_R   0.714818 0.703275 0.285968 -0.142403
C124  C     C_R   0.285074 0.297679 0.714894 -0.140393
C125  C     C_R   0.279771 0.687605 0.728094 -0.142323
C126  C     C_R   0.716498 0.304055 0.279279 -0.144375
C127  C     C_R   0.263591 0.324174 0.258857 -0.156505
C128  C     C_R   0.716499 0.695948 0.720730 -0.145017
C129  C     C_R   0.260283 0.757531 0.174842 -0.142337
C130  C     C_R   0.728827 0.237109 0.821247 -0.136909
C131  C     C_R   0.270293 0.237779 0.821874 -0.136683
C132  C     C_R   0.728820 0.762898 0.178761 -0.136956
C133  C     C_R   0.739190 0.242653 0.174384 -0.143248
C134  C     C_R   0.255334 0.756096 0.826200 -0.142504
C135  C     C_R   0.739196 0.757346 0.825619 -0.143347
C136  C     C_R   0.216492 0.197483 0.219619 -0.129857
H17   H     H_    0.687928 0.284033 0.733188 0.158010
H18   H     H_    0.307941 0.700067 0.251776 0.158733
H19   H     H_    0.687926 0.715985 0.266835 0.158111
H20   H     H_    0.311875 0.285688 0.734731 0.157569
H21   H     H_    0.302282 0.688078 0.759098 0.154447
H22   H     H_    0.690969 0.297134 0.254316 0.156178
H23   H     H_    0.273617 0.333354 0.217729 0.163365
H24   H     H_    0.690972 0.702867 0.745703 0.155665
H25   H     H_    0.267593 0.715403 0.164844 0.152938
H26   H     H_    0.713035 0.275048 0.827651 0.151431
H27   H     H_    0.285410 0.276187 0.828738 0.151886
H28   H     H_    0.713023 0.724963 0.172362 0.151422
H29   H     H_    0.731388 0.284612 0.164444 0.153813
H30   H     H_    0.258436 0.713145 0.837049 0.152483
H31   H     H_    0.731396 0.715387 0.835561 0.153783
H32   H     H_    0.190704 0.205462 0.243717 0.166034
C137  C     C_R   0.749687 0.272028 0.729956 0.021674
C138  C     C_R   0.250597 0.728743 0.271561 0.016925
C139  C     C_R   0.749686 0.727970 0.270042 0.021822
C140  C     C_R   0.250330 0.272072 0.729934 0.019641
C141  C     C_R   0.251086 0.728373 0.728346 0.018171
C142  C     C_R   0.749568 0.271845 0.270834 0.016602
C143  C     C_R   0.250188 0.271367 0.271363 0.020965
C144  C     C_R   0.749569 0.728157 0.729163 0.016512
C145  C     C_R   0.250571 0.771264 0.228864 0.018251
C146  C     C_R   0.749745 0.229324 0.772573 0.020762
C147  C     C_R   0.250276 0.229361 0.772554 0.022979
C148  C     C_R   0.749744 0.770675 0.227425 0.020802
C149  C     C_R   0.749562 0.229291 0.228238 0.018022
C150  C     C_R   0.251145 0.770898 0.771072 0.022743
C151  C     C_R   0.749564 0.770709 0.771762 0.018015
C152  C     C_R   0.250023 0.228493 0.228982 0.021447
C153  C     C_R   0.541589 0.546863 0.517171 -0.169099
C154  C     C_R   0.458400 0.453352 0.517751 -0.168511
C155  C     C_R   0.541570 0.453116 0.483188 -0.168118
C156  C     C_R   0.458422 0.546665 0.482654 -0.168279
C157  C     C_R   0.041578 0.046850 0.983068 -0.153159
C158  C     C_R   0.958431 0.953224 0.982905 -0.150151
C159  C     C_R   0.041591 0.953210 0.017276 -0.153957
C160  C     C_R   0.958399 0.046792 0.017374 -0.153454
H33   H     H_    0.526448 0.583151 0.531344 0.141427
H34   H     H_    0.473541 0.417246 0.532352 0.142090
H35   H     H_    0.526412 0.416828 0.469058 0.142276
H36   H     H_    0.473579 0.582769 0.468083 0.142252
H37   H     H_    0.026432 0.083095 0.968826 0.147825
H38   H     H_    0.973585 0.917013 0.968566 0.147464
H39   H     H_    0.026454 0.916967 0.031542 0.146535
H40   H     H_    0.973529 0.083008 0.031746 0.145386
C161  C     C_R   0.581808 0.546993 0.516741 -0.180307
C162  C     C_R   0.418179 0.453221 0.517335 -0.176228
C163  C     C_R   0.581789 0.452997 0.483475 -0.180261
C164  C     C_R   0.418203 0.546793 0.482957 -0.178335
C165  C     C_R   0.081795 0.046977 0.983406 -0.158277
C166  C     C_R   0.918214 0.953086 0.983233 -0.152387
C167  C     C_R   0.081807 0.953072 0.016851 -0.161782
C168  C     C_R   0.918184 0.046920 0.016938 -0.151731
H41   H     H_    0.597036 0.583513 0.530155 0.162418
H42   H     H_    0.402943 0.416883 0.531195 0.163708
H43   H     H_    0.597001 0.416480 0.470012 0.162683
H44   H     H_    0.402986 0.583133 0.469060 0.163895
H45   H     H_    0.097007 0.083462 0.969892 0.171628
H46   H     H_    0.903007 0.916628 0.969613 0.170393
H47   H     H_    0.097030 0.916585 0.030334 0.168806
H48   H     H_    0.902953 0.083375 0.030520 0.169918
C169  C     C_R   0.602062 0.500000 0.500066 0.004916
C170  C     C_R   0.397931 0.500002 0.500101 0.004995
C171  C     C_R   0.102063 0.000016 0.000090 -0.008871
C172  C     C_R   0.897937 0.000003 0.000055 -0.009627
C173  C     C_R   0.521214 0.499989 0.500209 0.108637
C174  C     C_R   0.478776 0.500006 0.500220 0.107344
C175  C     C_R   0.021219 0.000028 0.000181 0.105305
C176  C     C_R   0.978781 0.000012 0.000163 0.104115
Cl1   Cl    Cl    0.108255 0.593151 0.561145 -0.404156
Cl2   Cl    Cl    0.890446 0.389120 0.505123 -0.393997
Cl3   Cl    Cl    0.108644 0.406050 0.439646 -0.443320
Cl4   Cl    Cl    0.890453 0.610763 0.494708 -0.394633
Cl5   Cl    Cl    0.608546 0.093207 0.938732 -0.526714
Cl6   Cl    Cl    0.390425 0.889173 0.996328 -0.539334
Cl7   Cl    Cl    0.608519 0.906848 0.061305 -0.525496
Cl8   Cl    Cl    0.390350 0.110905 0.003178 -0.471381
Cl9   Cl    Cl    0.042260 0.336690 0.474457 -0.348790
Cl10  Cl    Cl    0.957179 0.654392 0.558454 -0.343539
Cl11  Cl    Cl    0.042471 0.662963 0.524675 -0.337999
Cl12  Cl    Cl    0.956999 0.345667 0.440803 -0.347193
Cl13  Cl    Cl    0.542298 0.837140 0.026576 -0.425212
Cl14  Cl    Cl    0.457211 0.153667 0.939243 -0.411553
Cl15  Cl    Cl    0.542331 0.162937 0.973496 -0.420687
Cl16  Cl    Cl    0.457142 0.846465 0.060695 -0.410829
Cl17  Cl    Cl    0.829292 0.344487 0.633345 -0.476308
Cl18  Cl    Cl    0.176445 0.674845 0.387380 -0.494437
Cl19  Cl    Cl    0.829296 0.655487 0.366618 -0.477432
Cl20  Cl    Cl    0.171067 0.342598 0.631291 -0.492156
Cl21  Cl    Cl    0.185044 0.689972 0.597491 -0.447904
Cl22  Cl    Cl    0.825275 0.329382 0.382771 -0.465504
Cl23  Cl    Cl    0.219852 0.282750 0.430501 -0.496200
Cl24  Cl    Cl    0.825267 0.670626 0.617192 -0.464506
Cl25  Cl    Cl    0.227853 0.933395 0.220660 -0.573409
Cl26  Cl    Cl    0.797565 0.079591 0.792561 -0.496156
Cl27  Cl    Cl    0.204476 0.078171 0.791049 -0.500847
Cl28  Cl    Cl    0.797576 0.920394 0.207422 -0.497728
Cl29  Cl    Cl    0.773218 0.067526 0.220395 -0.487286
Cl30  Cl    Cl    0.239750 0.935319 0.776173 -0.481574
Cl31  Cl    Cl    0.773217 0.932472 0.779602 -0.486503
Cl32  Cl    Cl    0.326131 0.168189 0.119072 -0.513174
C177  C     C_3   0.676169 0.363411 0.658110 -0.844134
H49   H     H_    0.668285 0.352718 0.615312 0.266693
H50   H     H_    0.652258 0.349291 0.685153 0.239359
H51   H     H_    0.678420 0.408724 0.662224 0.219373
C178  C     C_3   0.318347 0.617317 0.324320 -0.877089
H52   H     H_    0.309733 0.573670 0.319168 0.223174
H53   H     H_    0.340768 0.626891 0.293069 0.247068
H54   H     H_    0.331532 0.622986 0.365445 0.255620
C179  C     C_3   0.676167 0.636611 0.341916 -0.843715
H55   H     H_    0.678414 0.591297 0.337803 0.219416
H56   H     H_    0.668287 0.647308 0.384717 0.266647
H57   H     H_    0.652255 0.650736 0.314881 0.239482
C180  C     C_3   0.323539 0.365309 0.659776 -0.855232
H58   H     H_    0.320702 0.410545 0.664028 0.218422
H59   H     H_    0.347353 0.351631 0.687207 0.240751
H60   H     H_    0.331947 0.355018 0.617075 0.265481
C181  C     C_3   0.311024 0.603366 0.688227 -0.886608
H61   H     H_    0.297607 0.562076 0.692034 0.229751
H62   H     H_    0.327975 0.605309 0.649570 0.248466
H63   H     H_    0.331394 0.608987 0.723055 0.248223
C182  C     C_3   0.680001 0.378616 0.328140 -0.874777
H64   H     H_    0.687133 0.422824 0.323304 0.222934
H65   H     H_    0.657178 0.368111 0.297778 0.243932
H66   H     H_    0.667939 0.371524 0.369728 0.257403
C183  C     C_3   0.279403 0.421104 0.282546 -0.864573
H67   H     H_    0.280903 0.450533 0.317134 0.220154
H68   H     H_    0.309202 0.416527 0.265962 0.242048
H69   H     H_    0.260618 0.439052 0.250228 0.256700
C184  C     C_3   0.680002 0.621388 0.671879 -0.876176
H70   H     H_    0.687137 0.577180 0.676714 0.223119
H71   H     H_    0.657181 0.631894 0.702248 0.243461
H72   H     H_    0.667938 0.628479 0.630295 0.257326
C185  C     C_3   0.270657 0.781293 0.075897 -0.845432
H73   H     H_    0.245285 0.787063 0.048622 0.250599
H74   H     H_    0.295113 0.806985 0.061134 0.250762
H75   H     H_    0.279634 0.737560 0.073256 0.243903
C186  C     C_3   0.705892 0.205874 0.913917 -0.827711
H76   H     H_    0.725752 0.204995 0.949680 0.230467
H77   H     H_    0.690777 0.246151 0.913694 0.250621
H78   H     H_    0.683759 0.173119 0.918664 0.273620
C187  C     C_3   0.292315 0.207192 0.915229 -0.776996
H79   H     H_    0.272002 0.205770 0.950508 0.242673
H80   H     H_    0.314855 0.175077 0.920586 0.263674
H81   H     H_    0.306868 0.247883 0.915381 0.248243
C188  C     C_3   0.705878 0.794143 0.086100 -0.827989
H82   H     H_    0.725735 0.795017 0.050330 0.230436
H83   H     H_    0.690759 0.753870 0.086329 0.250580
H84   H     H_    0.683748 0.826904 0.081364 0.273618
C189  C     C_3   0.728100 0.218212 0.075667 -0.862390
H85   H     H_    0.753136 0.212444 0.047697 0.254455
H86   H     H_    0.703562 0.192250 0.061652 0.237588
H87   H     H_    0.718916 0.261855 0.072992 0.244859
C190  C     C_3   0.259866 0.778373 0.926219 -0.846088
H88   H     H_    0.232763 0.786384 0.949334 0.256607
H89   H     H_    0.266364 0.733814 0.929574 0.239752
H90   H     H_    0.284232 0.801258 0.945281 0.243941
C191  C     C_3   0.728110 0.781785 0.924341 -0.862996
H91   H     H_    0.753147 0.787553 0.952304 0.254718
H92   H     H_    0.703571 0.807748 0.938361 0.237280
H93   H     H_    0.718929 0.738142 0.927017 0.244762
C192  C     C_3   0.179419 0.123893 0.170198 -0.811782
H94   H     H_    0.185808 0.079475 0.175213 0.249586
H95   H     H_    0.156459 0.135132 0.200092 0.248611
H96   H     H_    0.167890 0.131340 0.128378 0.249626

loop_
_geom_bond_atom_site_label_1
_geom_bond_atom_site_label_2
_geom_bond_distance
_ccdc_geom_bond_type
C31   C35   1.401578 A    
C131  C147  1.402108 A    
C185  H73   1.108557 S    
Zn7   O13   1.928981 S    
C113  C185  1.506998 S    
C62   H6    1.083661 S    
C83   Cl27  1.761702 S    
C40   C52   1.416096 A    
Zn6   O16   1.928975 S    
C175  C176  1.464382 S    
C84   Cl28  1.761553 S    
Zn5   O51   1.945770 S    
C167  C171  1.400858 A    
C180  H58   1.110551 S    
C57   C137  1.399384 A    
C95   C111  1.415663 A    
C179  H55   1.110522 S    
C109  C181  1.508003 S    
C93   C109  1.411628 A    
Zn3   O12   1.928408 S    
C19   C171  1.455045 S    
C44   C56   1.416010 A    
C28   C34   1.397112 A    
C20   C172  1.455045 S    
C32   C36   1.397148 A    
O33   C10   1.277695 A    
C50   Cl10  1.774904 S    
C86   Cl30  1.762804 S    
O35   C12   1.277762 A    
C39   C45   1.424058 A    
C190  H90   1.110620 S    
C106  C122  1.399486 A    
Zn2   O48   1.945770 S    
C82   Cl26  1.761551 S    
C166  H46   1.083295 S    
C71   C87   1.392642 A    
C61   H5    1.083788 S    
C96   C112  1.413829 A    
C188  H84   1.110315 S    
Zn4   O2    1.946160 S    
C70   H14   1.083746 S    
C163  H43   1.083347 S    
C38   C50   1.416187 A    
Zn10  O25   1.930043 S    
C134  C150  1.399565 A    
C162  C170  1.400886 A    
O11   C7    1.278516 A    
C184  H71   1.110819 S    
C186  H78   1.110316 S    
C132  H28   1.083767 S    
C157  H37   1.082954 S    
C126  C142  1.399813 A    
C189  H87   1.110789 S    
C25   C33   1.401272 A    
C139  C148  1.470414 S    
Zn8   O19   1.928406 S    
Zn12  O24   1.929431 S    
C106  C178  1.508051 S    
C67   C147  1.400766 A    
O16   C12   1.278217 A    
C186  H77   1.110742 S    
O40   C18   1.275812 A    
Zn16  O4    1.944330 S    
C69   H13   1.083688 S    
C122  C138  1.400653 A    
C59   H3    1.083531 S    
C182  H66   1.109872 S    
C60   H4    1.083542 S    
C29   C35   1.401606 A    
C72   H16   1.083591 S    
C108  C124  1.399319 A    
C155  H35   1.082970 S    
C110  C182  1.508156 S    
Zn7   O3    1.946162 S    
C156  H36   1.082969 S    
C191  H91   1.109628 S    
C165  C171  1.400866 A    
C166  C172  1.400838 A    
C125  C141  1.401781 A    
C114  C130  1.399121 A    
O34   C9    1.277769 A    
C42   C48   1.425762 A    
C180  H60   1.109612 S    
C129  H25   1.083985 S    
C179  H57   1.110859 S    
C153  H33   1.082970 S    
O49   C23   1.274841 A    
C53   Cl13  1.774997 S    
C142  C149  1.466976 S    
O42   C20   1.275877 A    
C132  C148  1.402045 A    
Zn6   O17   1.928358 S    
Zn10  O22   1.929488 S    
C165  H45   1.083296 S    
C187  H79   1.110286 S    
Zn13  O29   1.929488 S    
C162  H42   1.083380 S    
Zn10  O2    1.944259 S    
C138  C145  1.468628 S    
C9    C99   1.456515 S    
Zn3   O1    1.946162 S    
C10   C100  1.456169 S    
C7    C93   1.455808 S    
O43   C19   1.275909 A    
C31   Cl7   1.777659 S    
C112  C128  1.399505 A    
C26   C34   1.397221 A    
O5    C1    1.280979 A    
O37   C17   1.275873 A    
C1    C91   1.464815 S    
C154  C174  1.402804 A    
C2    C92   1.464275 S    
C66   C146  1.400785 A    
C192  H95   1.110808 S    
C160  C176  1.402760 A    
C123  H19   1.083858 S    
C183  H67   1.107818 S    
Zn4   O46   1.945837 S    
C158  C166  1.387789 A    
C82   C98   1.405259 A    
Zn16  O35   1.930070 S    
C97   C113  1.414086 A    
O44   C20   1.275843 A    
C102  C118  1.416222 A    
C115  C131  1.399424 A    
C37   C45   1.424708 A    
O22   C5    1.278952 A    
Zn13  O41   1.945905 S    
C40   C46   1.425403 A    
C47   C48   1.419916 A    
C118  C190  1.507685 S    
Zn16  O44   1.945868 S    
C177  H50   1.110858 S    
O52   C24   1.277176 A    
C64   C144  1.399152 A    
C57   H1    1.083533 S    
C100  C116  1.411074 A    
C191  H93   1.110791 S    
C63   H7    1.083572 S    
C12   C98   1.456183 S    
C160  H40   1.082959 S    
O36   C11   1.279763 A    
C167  H47   1.083292 S    
C120  C192  1.508096 S    
C62   C78   1.392861 A    
C164  H44   1.083353 S    
C126  H22   1.084021 S    
C133  C149  1.399761 A    
C74   C90   1.407328 A    
C181  H62   1.110499 S    
C30   C44   1.416291 A    
C61   C77   1.391875 A    
C41   C53   1.416742 A    
C135  H31   1.084023 S    
C79   Cl23  1.763072 S    
C187  H81   1.110787 S    
C153  C161  1.387874 A    
O38   C18   1.275839 A    
O50   C24   1.277165 A    
C168  H48   1.083295 S    
C104  C120  1.413896 A    
O41   C19   1.275808 A    
C14   C104  1.461244 S    
C110  C126  1.399501 A    
Zn4   O6    1.928983 S    
C74   Cl18  1.762741 S    
C71   H15   1.083687 S    
O47   C21   1.274986 A    
C173  C174  1.464420 S    
C25   Cl1   1.776418 S    
Zn11  O28   1.930067 S    
C107  C123  1.399117 A    
C129  C145  1.399860 A    
C183  H69   1.110257 S    
C79   C95   1.408018 A    
Zn1   O10   1.928356 S    
C56   Cl16  1.774747 S    
C105  C177  1.508960 S    
C158  H38   1.082954 S    
C44   C48   1.425650 A    
Zn4   O11   1.928406 S    
C157  C175  1.402780 A    
C158  C176  1.402793 A    
C161  H41   1.083350 S    
C70   C150  1.398872 A    
C124  H20   1.083863 S    
Zn1   O1    1.946294 S    
O32   C15   1.279297 A    
C118  C134  1.398778 A    
C155  C173  1.402763 A    
Zn2   O8    1.928975 S    
C62   C142  1.399153 A    
C122  H18   1.083947 S    
C116  C132  1.399116 A    
O9    C5    1.279002 A    
C78   C94   1.407986 A    
Zn13  O34   1.930046 S    
C160  C168  1.387776 A    
O13   C9    1.278281 A    
C154  H34   1.082973 S    
O7    C3    1.281039 A    
C54   Cl14  1.774776 S    
C67   C83   1.392036 A    
O18   C14   1.279797 A    
O6    C2    1.280846 A    
C27   C33   1.401841 A    
C65   C145  1.399369 A    
C188  H83   1.110743 S    
O21   C6    1.279058 A    
C59   C139  1.399383 A    
C144  C151  1.466983 S    
C18   C170  1.454932 S    
Zn7   O20   1.928408 S    
C16   C102  1.465438 S    
C72   C152  1.399503 A    
O48   C22   1.277297 A    
C184  H70   1.110484 S    
Zn14  O30   1.929488 S    
Zn15  O3    1.944334 S    
C94   C110  1.413829 A    
O8    C4    1.279448 A    
C120  C136  1.399682 A    
C8    C94   1.460654 S    
C189  H86   1.110545 S    
C29   C43   1.416976 A    
C57   C73   1.392083 A    
C108  C180  1.508956 S    
C70   C86   1.392023 A    
Zn3   O45   1.945837 S    
C31   C41   1.416960 A    
C103  C119  1.414340 A    
C68   C148  1.400783 A    
C87   Cl31  1.761825 S    
C101  C117  1.414341 A    
C111  C183  1.509489 S    
C68   H12   1.083468 S    
C105  C121  1.399121 A    
C66   C82   1.391929 A    
C159  C167  1.387777 A    
C4    C90   1.459826 S    
C182  H65   1.110815 S    
C80   C96   1.407983 A    
C123  C139  1.400096 A    
C185  H74   1.110521 S    
C135  C151  1.399763 A    
C37   C49   1.417098 A    
C125  H21   1.084130 S    
C39   C51   1.416632 A    
C180  H59   1.110848 S    
C179  H56   1.109559 S    
Zn14  O42   1.945906 S    
C71   C151  1.398624 A    
Zn13  O3    1.944255 S    
C43   C55   1.416720 A    
Zn14  O4    1.944259 S    
C29   Cl5   1.777656 S    
C49   C52   1.398376 A    
O19   C15   1.280262 A    
C58   H2    1.083584 S    
C11   C97   1.462945 S    
C27   Cl3   1.777542 S    
O39   C17   1.275854 A    
C64   C80   1.392859 A    
C65   C81   1.393340 A    
Zn7   O49   1.945837 S    
C63   C79   1.392479 A    
C86   C102  1.410309 A    
O51   C23   1.274959 A    
O31   C16   1.280504 A    
C121  C137  1.400101 A    
C73   Cl17  1.763520 S    
C90   C106  1.412946 A    
Zn9   O37   1.945906 S    
C133  H29   1.084024 S    
O12   C8    1.279701 A    
C184  H72   1.109873 S    
Zn11  O39   1.945868 S    
C192  H94   1.110540 S    
C168  C172  1.400866 A    
Zn11  O1    1.944334 S    
Zn15  O43   1.945869 S    
C141  C150  1.468697 S    
C119  C191  1.507884 S    
C69   C149  1.398626 A    
Zn5   O3    1.946294 S    
C119  C135  1.399713 A    
C60   C140  1.399568 A    
Zn6   O4    1.946296 S    
O24   C7    1.277477 A    
Zn8   O14   1.928983 S    
C26   Cl2   1.777029 S    
C42   C54   1.416154 A    
C61   C141  1.400701 A    
C67   H11   1.083497 S    
C32   C42   1.416542 A    
C137  C146  1.470422 S    
Zn2   O9    1.928358 S    
C177  H49   1.109558 S    
C88   Cl32  1.762706 S    
C159  H39   1.082956 S    
C85   C101  1.408277 A    
C128  H24   1.084022 S    
C58   C138  1.399711 A    
C107  C179  1.508960 S    
C49   Cl9   1.774939 S    
C191  H92   1.110544 S    
C51   Cl11  1.775184 S    
C52   Cl12  1.774967 S    
C73   C89   1.409962 A    
O25   C2    1.279729 A    
C80   Cl24  1.763011 S    
C81   Cl25  1.762913 S    
Zn8   O50   1.945837 S    
O27   C4    1.278597 A    
C21   C34   1.458064 S    
Zn2   O2    1.946296 S    
C178  H52   1.110617 S    
O29   C14   1.279301 A    
C98   C114  1.411076 A    
Zn15  O31   1.929433 S    
C23   C36   1.458136 S    
C124  C140  1.400286 A    
C156  C174  1.402779 A    
C155  C163  1.387880 A    
C181  H61   1.110727 S    
C156  C164  1.387864 A    
C26   C40   1.416332 A    
Zn9   O26   1.930045 S    
Zn8   O4    1.946160 S    
C17   C169  1.455083 S    
C38   C46   1.425842 A    
C131  H27   1.083788 S    
C115  C187  1.507870 S    
C161  C169  1.400924 A    
O20   C16   1.281005 A    
Zn12  O27   1.930069 S    
C187  H80   1.110602 S    
C91   C107  1.416162 A    
C92   C108  1.415826 A    
Zn14  O33   1.930043 S    
C164  C170  1.400852 A    
C66   H10   1.083466 S    
O28   C3    1.279987 A    
C55   Cl15  1.775010 S    
C89   C105  1.416157 A    
C50   C51   1.397952 A    
C53   C56   1.397932 A    
C27   C37   1.417587 A    
C24   C35   1.465369 S    
C75   Cl19  1.763521 S    
C45   C46   1.419648 A    
C76   Cl20  1.763558 S    
C83   C99   1.405440 A    
C84   C100  1.405256 A    
C32   Cl8   1.777168 S    
C69   C85   1.392642 A    
C192  H96   1.109761 S    
Zn6   O52   1.945770 S    
C183  H68   1.110529 S    
C75   C91   1.409962 A    
C76   C92   1.409576 A    
Zn1   O47   1.945770 S    
O45   C21   1.274814 A    
C163  C169  1.400925 A    
C58   C74   1.393086 A    
C190  H89   1.110890 S    
C64   H8    1.083661 S    
C65   H9    1.083588 S    
C134  H30   1.084094 S    
C112  C184  1.508156 S    
C68   C84   1.391926 A    
Zn15  O36   1.930067 S    
C154  C162  1.387928 A    
O26   C1    1.279924 A    
C99   C115  1.411291 A    
C3    C89   1.464816 S    
O14   C10   1.278152 A    
C177  H51   1.110524 S    
C28   Cl4   1.777084 S    
C22   C33   1.465721 S    
C111  C127  1.398494 A    
C140  C147  1.470577 S    
O30   C13   1.279319 A    
C109  C125  1.398870 A    
C159  C175  1.402768 A    
Zn5   O18   1.928356 S    
C127  C143  1.400140 A    
Zn9   O21   1.929486 S    
C178  H53   1.110796 S    
C130  C146  1.402047 A    
O23   C8    1.279036 A    
Zn11  O23   1.929433 S    
C190  H88   1.109208 S    
Zn12  O40   1.945869 S    
Zn9   O1    1.944257 S    
Zn1   O7    1.928977 S    
Zn16  O32   1.929432 S    
C178  H54   1.109948 S    
Zn3   O5    1.928981 S    
C117  C189  1.507883 S    
C30   Cl6   1.777332 S    
C59   C75   1.392080 A    
C60   C76   1.392233 A    
C188  H82   1.109476 S    
C181  H63   1.110990 S    
C28   C38   1.416282 A    
C85   Cl29  1.761828 S    
C143  C152  1.468766 S    
C78   Cl22  1.763007 S    
C116  C188  1.507371 S    
C136  H32   1.083912 S    
C153  C173  1.402766 A    
C43   C47   1.424447 A    
O15   C11   1.280026 A    
C185  H75   1.110779 S    
C186  H76   1.109473 S    
C157  C165  1.387774 A    
C87   C103  1.408278 A    
C81   C97   1.408590 A    
C136  C152  1.400344 A    
C182  H64   1.110484 S    
C117  C133  1.399707 A    
C128  C144  1.399816 A    
C63   C143  1.399144 A    
C189  H85   1.109627 S    
C25   C39   1.416254 A    
O17   C13   1.280277 A    
C88   C104  1.407901 A    
C30   C36   1.396998 A    
O46   C22   1.277230 A    
C121  H17   1.083856 S    
O10   C6    1.279712 A    
Zn10  O38   1.945905 S    
C77   Cl21  1.762050 S    
C41   C47   1.424525 A    
C5    C95   1.458762 S    
C113  C129  1.399236 A    
C6    C96   1.460651 S    
C72   C88   1.392490 A    
Zn12  O2    1.944332 S    
C15   C101  1.462166 S    
C127  H23   1.084363 S    
C54   C55   1.398003 A    
C77   C93   1.405859 A    
C13   C103  1.462172 S    
Zn5   O15   1.928977 S    
C114  C186  1.507371 S    
C130  H26   1.083767 S    
