data_mof_unit_28426.cif
_audit_creation_date              2012-12-10T18:55:14-0500
_audit_creation_method            fapswitch 2.2
_symmetry_space_group_name_H-M    P1
_symmetry_Int_Tables_number       1
_space_group_crystal_system       triclinic
_cell_length_a                    10.909336
_cell_length_b                    10.052143
_cell_length_c                    26.88501
_cell_angle_alpha                 88.784272
_cell_angle_beta                  83.126263
_cell_angle_gamma                 93.595409
_cell_volume                      2920.08944355

loop_
_atom_site_label
_atom_site_type_symbol
_atom_type_description
_atom_site_fract_x
_atom_site_fract_y
_atom_site_fract_z
_atom_type_partial_charge
C1    C     C_R   0.258152 0.496708 0.505134 1.047945
C2    C     C_R   0.741614 0.503528 0.494151 1.060887
C3    C     C_R   0.522445 0.265012 0.111450 -0.076174
C4    C     C_R   0.500513 0.375854 0.906951 -0.078734
C5    C     C_R   0.412378 0.243103 0.144814 -0.077436
C6    C     C_R   0.609329 0.387770 0.872526 -0.069384
C7    C     C_R   0.300067 0.211461 0.125128 -0.062269
C8    C     C_R   0.722085 0.351146 0.888012 -0.043951
C9    C     C_R   0.637014 0.276250 0.130788 -0.161171
C10   C     C_R   0.387000 0.411794 0.891413 -0.160142
C11   C     C_R   0.501540 0.501681 0.350718 -0.228314
C12   C     C_R   0.500433 0.486714 0.649466 -0.233570
C13   C     C_R   0.397431 0.320201 0.991468 -0.003727
C14   C     C_R   0.628273 0.285151 0.025678 -0.006711
C15   C     C_R   0.621696 0.307813 0.973611 0.073754
C16   C     C_R   0.402565 0.274395 0.041176 0.067921
C17   C     C_R   0.506540 0.334222 0.957343 0.095828
C18   C     C_R   0.517998 0.273121 0.059240 0.098624
C19   C     C_R   0.287196 0.361363 0.976271 -0.276120
C20   C     C_R   0.740955 0.275184 0.045715 -0.259899
C21   C     C_R   0.279657 0.406125 0.927395 0.426481
C22   C     C_R   0.746290 0.265788 0.097332 0.444851
C23   C     C_R   0.495592 0.500813 0.405736 1.006755
C24   C     C_R   0.502830 0.498133 0.594429 0.987834
C25   C     C_R   0.296061 0.230327 0.073684 -0.203650
C26   C     C_R   0.726492 0.309648 0.937477 -0.175895
C27   C     C_R   0.048509 0.375791 0.504226 0.281228
C28   C     C_R   0.951892 0.626131 0.490832 0.302912
C29   C     C_R   0.935737 0.383871 0.484987 0.330627
C30   C     C_R   0.065128 0.619531 0.509763 0.303324
C31   C     C_R   0.878876 0.506782 0.486355 -0.344735
C32   C     C_R   0.121077 0.495123 0.510109 -0.389723
C33   C     C_R   0.488244 0.066904 0.543733 0.238150
C34   C     C_R   0.506714 0.933074 0.456168 0.225181
C35   C     C_R   0.485250 0.070758 0.457399 0.371823
C36   C     C_R   0.511082 0.929968 0.542689 0.364375
C37   C     C_R   0.421381 0.259630 0.196095 0.562696
C38   C     C_R   0.599544 0.428316 0.822809 0.563695
C39   C     C_R   0.634447 0.306341 0.182092 0.671026
C40   C     C_R   0.387160 0.450418 0.840312 0.665887
C41   C     C_R   0.619687 0.478812 0.269422 0.433094
C42   C     C_R   0.371391 0.441997 0.729587 0.407576
C43   C     C_R   0.617806 0.495566 0.320944 -0.217862
C44   C     C_R   0.386133 0.494257 0.680144 -0.222359
C45   C     C_R   0.392251 0.500779 0.326544 0.350503
C46   C     C_R   0.598165 0.424851 0.669615 0.328603
C47   C     C_R   0.399271 0.458272 0.276163 -0.148514
C48   C     C_R   0.576639 0.369704 0.718984 -0.123110
C49   C     C_R   0.514010 0.416984 0.252582 0.033561
C50   C     C_R   0.478137 0.416468 0.751792 0.042737
H1    H     H_    0.205878 0.363254 0.003213 0.210135
H2    H     H_    0.827472 0.277660 0.022055 0.201567
H3    H     H_    0.209041 0.209756 0.059296 0.211706
H4    H     H_    0.813259 0.276452 0.946360 0.163783
N1    N     N_R   0.523585 0.328347 0.209704 -0.319993
N2    N     N_R   0.486242 0.427534 0.805814 -0.318154
N3    N     N_R   0.500000 0.857200 0.500000 -0.199536
N4    N     N_R   0.500000 0.142800 0.500000 -0.200037
O1    O     O_R   0.316770 0.614620 0.500000 -0.556536
O2    O     O_R   0.683230 0.385380 0.500000 -0.570896
O3    O     O_R   0.683230 0.614620 0.500000 -0.523427
O4    O     O_R   0.316770 0.385380 0.500000 -0.516999
O5    O     O_R   0.500030 0.614650 0.428760 -0.577933
O6    O     O_R   0.499970 0.385350 0.571240 -0.602605
O7    O     O_R   0.499970 0.614650 0.571240 -0.547569
O8    O     O_R   0.500030 0.385350 0.428760 -0.552654
O9    O     O_2   0.332472 0.208624 0.231671 -0.488023
O10   O     O_2   0.701357 0.470963 0.791797 -0.490508
O11   O     O_2   0.295279 0.519254 0.826056 -0.410209
O12   O     O_2   0.738908 0.313744 0.203962 -0.413202
Zn1   Zn    Zn3+2 0.500000 0.653120 0.500000 1.177776
Zn2   Zn    Zn3+2 0.500000 0.346880 0.500000 1.172755
S1    S     S_3+6 0.250629 0.558051 0.356653 0.021626
O13   O     O_2   0.156071 0.442388 0.366542 -0.279576
O14   O     O_2   0.266028 0.623914 0.405069 -0.369030
O15   O     O_3   0.197814 0.670514 0.318586 -0.494896
H5    H     H_    0.112010 0.682984 0.333574 0.408084
S2    S     S_3+6 0.747873 0.422633 0.634997 0.071608
O16   O     O_2   0.755380 0.300951 0.603554 -0.242334
O17   O     O_2   0.774613 0.544109 0.601431 -0.341397
O18   O     O_3   0.855848 0.422183 0.674751 -0.439772
H6    H     H_    0.935488 0.418811 0.653053 0.399775
S3    S     S_3+6 0.388695 0.109543 0.597530 0.189478
O19   O     O_2   0.317878 0.226795 0.586924 -0.153527
O20   O     O_2   0.297265 0.993214 0.612253 -0.160451
O21   O     O_3   0.465658 0.141553 0.646702 -0.465483
H7    H     H_    0.540940 0.194480 0.632197 0.369299
S4    S     S_3+6 0.595666 0.886969 0.400095 0.185019
O22   O     O_2   0.677890 0.005455 0.379028 -0.172178
O23   O     O_2   0.677027 0.779746 0.411257 -0.176664
O24   O     O_3   0.508628 0.836064 0.355679 -0.429025
H8    H     H_    0.431486 0.794920 0.374062 0.394985
S5    S     S_3+6 0.406400 0.127591 0.406992 0.126612
O25   O     O_2   0.498678 0.185389 0.364883 -0.226540
O26   O     O_2   0.335498 0.010682 0.387661 -0.273071
O27   O     O_3   0.302634 0.239258 0.423747 -0.505561
H9    H     H_    0.244708 0.233765 0.398126 0.418967
S6    S     S_3+6 0.592751 0.877548 0.592236 0.150333
O28   O     O_2   0.658652 0.996882 0.612306 -0.248995
O29   O     O_2   0.504419 0.812411 0.634179 -0.216578
O30   O     O_3   0.701428 0.774701 0.572246 -0.459338
H10   H     H_    0.770935 0.796526 0.591836 0.422698
C51   C     C_2   0.296187 0.476460 0.245610 1.117064
O31   O     O_2   0.189778 0.439514 0.261852 -0.464245
O32   O     O_R   0.322349 0.533293 0.197274 -0.769703
H11   H     H_    0.245662 0.538369 0.179596 0.379708
C52   C     C_2   0.634657 0.244978 0.733662 1.075709
O33   O     O_2   0.594526 0.184614 0.772821 -0.584040
O34   O     O_R   0.727138 0.189518 0.701682 -0.675549
H12   H     H_    0.755261 0.103916 0.715909 0.380503
C53   C     C_2   0.184396 0.164848 0.156487 1.098027
O35   O     O_2   0.137280 0.053629 0.150597 -0.532749
O36   O     O_R   0.127834 0.248458 0.191859 -0.682612
H13   H     H_    0.052132 0.203352 0.212443 0.413212
C54   C     C_2   0.835677 0.344388 0.852788 1.078232
O37   O     O_2   0.898023 0.446773 0.839030 -0.429595
O38   O     O_R   0.870506 0.220845 0.835156 -0.748968
H14   H     H_    0.947701 0.228774 0.809957 0.392890
C55   C     C_2   0.275494 0.539547 0.660099 1.087141
O39   O     O_2   0.216191 0.624766 0.681883 -0.476802
O40   O     O_R   0.232770 0.476306 0.619376 -0.757637
H15   H     H_    0.145447 0.498579 0.615001 0.360716
C56   C     C_2   0.738178 0.503913 0.341780 1.105239
O41   O     O_2   0.743710 0.537091 0.384726 -0.595345
O42   O     O_R   0.845784 0.468955 0.312712 -0.671815
H16   H     H_    0.921790 0.479541 0.330961 0.397518
S7    S     S_3+6 0.233401 0.339342 0.748119 0.115460
O43   O     O_2   0.251205 0.242959 0.789758 -0.237217
O44   O     O_2   0.128760 0.425093 0.764480 -0.178741
O45   O     O_3   0.197118 0.251497 0.698755 -0.456682
H17   H     H_    0.112643 0.210691 0.709158 0.402042
S8    S     S_3+6 0.710718 0.599264 0.228829 0.118992
O46   O     O_2   0.841260 0.559311 0.217067 -0.151299
O47   O     O_2   0.654644 0.615241 0.180781 -0.270512
O48   O     O_3   0.713683 0.746211 0.257605 -0.474704
H18   H     H_    0.763375 0.809287 0.233179 0.412906
S9    S     S_3+6 0.129382 0.435520 0.913162 0.112427
O49   O     O_2   0.122308 0.579363 0.898032 -0.135536
O50   O     O_2   0.101729 0.348154 0.870874 -0.223320
O51   O     O_3   0.022444 0.398663 0.962671 -0.556372
H19   H     H_    0.020813 0.300418 0.966996 0.348365
S10   S     S_3+6 0.890469 0.231286 0.116555 0.080034
O52   O     O_2   0.952054 0.357744 0.133229 -0.169719
O53   O     O_2   0.872425 0.129197 0.158924 -0.236780
O54   O     O_3   0.981722 0.171173 0.068524 -0.604191
H20   H     H_    0.943702 0.081331 0.063172 0.378076
S11   S     S_3+6 0.067091 0.228267 0.539848 0.167896
O55   O     O_2   0.087686 0.266076 0.591919 -0.218926
O56   O     O_2   0.952776 0.135554 0.545021 -0.162997
O57   O     O_3   0.186100 0.145080 0.513931 -0.442994
H21   H     H_    0.151131 0.087052 0.489205 0.434711
S12   S     S_3+6 0.931185 0.770188 0.453773 0.165334
O58   O     O_2   0.902817 0.726661 0.403211 -0.253123
O59   O     O_2   0.827895 0.846487 0.478528 -0.138854
O60   O     O_3   0.058074 0.874915 0.443441 -0.456973
H22   H     H_    0.112682 0.834408 0.416616 0.397991
S13   S     S_3+6 0.880688 0.246610 0.450325 0.147351
O61   O     O_2   0.789023 0.154940 0.482970 -0.206425
O62   O     O_2   0.818875 0.296333 0.407355 -0.274755
O63   O     O_3   0.000412 0.159928 0.427221 -0.496701
H23   H     H_    0.966401 0.098625 0.403172 0.430755
S14   S     S_3+6 0.123033 0.764292 0.540007 0.123192
O64   O     O_2   0.182412 0.725170 0.585041 -0.279463
O65   O     O_2   0.218159 0.845707 0.505082 -0.254677
O66   O     O_3   0.005775 0.859413 0.558722 -0.455938
H24   H     H_    0.034594 0.913065 0.586067 0.426528

loop_
_geom_bond_atom_site_label_1
_geom_bond_atom_site_label_2
_ccdc_geom_bond_type
O66   H24   S    
C5    C37   A    
C27   C29   A    
S1    O14   D    
S1    O13   D    
C14   C18   A    
O32   H11   S    
C53   O35   D    
C21   S9    S    
C1    O4    A    
O54   H20   S    
C56   O41   D    
C47   C49   A    
S9    O50   D    
C33   N4    A    
C35   N4    A    
C23   O8    A    
C45   S1    S    
S11   O56   D    
C25   H3    S    
O36   H13   S    
C1    O1    A    
S2    O17   D    
C9    C22   A    
C56   O42   S    
C48   C52   S    
O2    Zn2   S    
C54   O37   D    
C9    C39   A    
C33   C36   A    
C8    C26   A    
C3    C18   A    
C10   C40   A    
C34   C35   A    
C11   C23   S    
C8    C54   S    
C51   O32   S    
S13   O61   D    
C39   N1    A    
S11   O55   D    
O8    Zn2   S    
S8    O46   D    
C54   O38   S    
C34   N3    A    
C52   O33   D    
C6    C38   A    
C11   C43   A    
C41   C43   A    
C2    O3    A    
S4    O22   D    
O3    Zn1   S    
C23   O5    A    
S13   O62   D    
C52   O34   S    
S10   O54   S    
C42   C44   A    
C26   H4    S    
C41   C49   A    
O18   H6    S    
S14   O65   D    
C45   C47   A    
C10   C21   A    
O51   H19   S    
S9    O51   S    
C46   C48   A    
C47   C51   S    
C40   O11   S    
C13   C19   A    
O30   H10   S    
C14   C20   A    
O48   H18   S    
S11   O57   S    
O15   H5    S    
C12   C46   A    
C36   N3    A    
O24   H8    S    
C5    C7    A    
O21   H7    S    
C15   C26   A    
C6    C8    A    
C44   C55   S    
C40   N2    A    
C49   N1    S    
C1    C32   S    
C50   N2    S    
C2    C31   S    
S7    O44   D    
C3    C9    A    
S14   O66   S    
C35   S5    S    
S3    O19   D    
S12   O60   S    
C29   C31   A    
O27   H9    S    
C22   S10   S    
O4    Zn2   S    
C53   O36   S    
S5    O25   D    
C34   S4    S    
N3    Zn1   S    
C33   S3    S    
O40   H15   S    
C55   O40   S    
C42   S7    S    
C42   C50   A    
S8    O47   D    
C4    C17   A    
C24   O7    A    
C4    C6    A    
S3    O20   D    
C20   C22   A    
C28   S12   S    
S13   O63   S    
S6    O29   D    
C28   C31   A    
O42   H16   S    
S1    O15   S    
S10   O53   D    
C11   C45   A    
C30   S14   S    
C4    C10   A    
S7    O43   D    
C43   C56   S    
O60   H22   S    
C46   S2    S    
S14   O64   D    
S12   O59   D    
C16   C25   A    
C15   C17   A    
S4    O23   D    
C19   C21   A    
C27   C32   A    
S2    O16   D    
C16   C18   A    
O5    Zn1   S    
C3    C5    A    
C41   S8    S    
C29   S13   S    
C55   O39   D    
S5    O27   S    
S6    O30   S    
S9    O49   D    
C12   C24   S    
C7    C25   A    
C13   C17   A    
O63   H23   S    
C28   C30   A    
O45   H17   S    
S7    O45   S    
C20   H2    S    
C27   S11   S    
O7    Zn1   S    
O38   H14   S    
C30   C32   A    
S2    O18   S    
N4    Zn2   S    
S4    O24   S    
S8    O48   S    
C37   O9    S    
C48   C50   A    
C39   O12   S    
C7    C53   S    
C24   O6    A    
C2    O2    A    
O6    Zn2   S    
C37   N1    A    
C19   H1    S    
S3    O21   S    
C38   N2    A    
S12   O58   D    
S5    O26   D    
S6    O28   D    
C13   C16   A    
C38   O10   S    
C51   O31   D    
S10   O52   D    
C14   C15   A    
C12   C44   A    
C36   S6    S    
O34   H12   S    
O1    Zn1   S    
O57   H21   S    
