data_mof_unit_63144.cif
_audit_creation_date              2012-12-11T18:25:55-0500
_audit_creation_method            fapswitch 2.2
_symmetry_space_group_name_H-M    P1
_symmetry_Int_Tables_number       1
_space_group_crystal_system       triclinic
_cell_length_a                    8.213845
_cell_length_b                    14.295009
_cell_length_c                    16.443584
_cell_angle_alpha                 105.744833
_cell_angle_beta                  82.358537
_cell_angle_gamma                 91.249696
_cell_volume                      1841.60477741

loop_
_atom_site_label
_atom_site_type_symbol
_atom_type_description
_atom_site_fract_x
_atom_site_fract_y
_atom_site_fract_z
_atom_type_partial_charge
Ba1   Ba    Ba6+2 0.356390 0.534880 0.456030 1.727870
Ba2   Ba    Ba6+2 0.833430 0.465200 0.543970 1.728557
C1    C     C_3   0.140196 0.817673 0.206276 -0.231081
C2    C     C_3   0.102977 0.714371 0.209359 0.259654
C3    C     C_3   0.206269 0.183361 0.264012 0.621148
C4    C     C_3   0.241949 0.075839 0.258427 0.357437
C5    C     C_3   0.515662 0.310965 0.783041 0.411654
C6    C     C_3   0.504362 0.300395 0.873308 -0.326040
C7    C     C_3   0.042492 0.270884 0.788420 0.229644
C8    C     C_3   0.969762 0.170904 0.785427 0.266718
C9    C     C_2   0.289503 0.520000 0.749796 -0.295166
C10   C     C_R   0.896883 0.473822 0.250843 -0.196354
C11   C     C_2   0.466933 0.601461 0.855047 -0.128169
C12   C     C_3   0.655842 0.678344 0.213422 0.422802
C13   C     C_2   0.440053 0.572877 0.772982 0.044496
C14   C     C_2   0.180845 0.494090 0.808240 0.031968
C15   C     C_3   0.230187 0.499481 0.894924 -0.080361
C16   C     C_3   0.341609 0.585854 0.925645 0.091598
C17   C     C_2   0.091539 0.494268 0.963040 -0.062044
C18   C     C_2   0.124311 0.475537 0.034774 -0.111765
C19   C     C_R   0.850090 0.414591 0.079502 0.012908
C20   C     C_R   0.994174 0.463545 0.102245 -0.021551
C21   C     C_R   0.732884 0.393258 0.141393 -0.086503
C22   C     C_R   0.757884 0.421352 0.227173 0.078003
C23   C     C_3   0.679074 0.687477 0.122570 -0.274429
C24   C     C_R   0.017551 0.492779 0.188951 0.036003
C25   C     C_R   0.182244 0.945374 0.540291 0.012044
C26   C     C_R   0.007575 0.800313 0.498064 0.055859
C27   C     C_R   0.873755 0.759508 0.456952 -0.274669
C28   C     C_R   0.782416 0.813265 0.418864 0.004823
C29   C     C_R   0.831802 0.905402 0.414570 -0.155914
C30   C     C_R   0.968087 0.947334 0.452478 0.003715
C31   C     C_R   0.054083 0.896976 0.497504 -0.031412
C32   C     C_R   0.145759 0.087294 0.488399 -0.013405
C33   C     C_R   0.231611 0.038240 0.534289 0.014571
C34   C     C_3   0.629102 0.789519 0.656067 0.434806
C35   C     C_R   0.191530 0.182629 0.486376 -0.010124
C36   C     C_R   0.316787 0.228065 0.532839 -0.242364
C37   C     C_R   0.409782 0.177295 0.572351 -0.008321
C38   C     C_R   0.366883 0.082471 0.573220 -0.071678
C39   C     C_R   0.015584 0.040394 0.447415 -0.049080
C40   C     C_3   0.503996 0.863963 0.649980 -0.355175
C41   C     C_3   0.586330 0.228637 0.367666 0.449989
C42   C     C_3   0.647898 0.125859 0.356498 -0.296324
C43   C     C_3   0.139732 0.713559 0.709691 0.304226
C44   C     C_3   0.171707 0.771278 0.799541 0.345857
H1    H     H_    0.030291 0.718409 0.272456 -0.014766
H2    H     H_    0.508098 0.932700 0.701301 0.153348
H3    H     H_    0.530039 0.880019 0.587224 0.059468
H4    H     H_    0.379029 0.836132 0.658469 0.140867
H5    H     H_    0.453262 0.232618 0.387033 -0.200983
H6    H     H_    0.645659 0.276201 0.419764 0.070117
H7    H     H_    0.568372 0.072067 0.319853 0.171289
H8    H     H_    0.645997 0.111813 0.419674 0.032846
H9    H     H_    0.775024 0.115917 0.322543 0.139444
H10   H     H_    0.256442 0.678355 0.674596 -0.098121
H11   H     H_    0.047657 0.656245 0.712982 0.074950
H12   H     H_    0.208465 0.854291 0.259866 0.147160
H13   H     H_    0.270307 0.736025 0.820486 -0.067631
H14   H     H_    0.215709 0.845062 0.798914 0.124680
H15   H     H_    0.030210 0.680568 0.156891 0.018107
H16   H     H_    0.023476 0.858354 0.212501 0.066976
H17   H     H_    0.310954 0.229964 0.282897 -0.001919
H18   H     H_    0.278098 0.071502 0.319719 -0.184391
H19   H     H_    0.127807 0.033530 0.248875 0.017621
H20   H     H_    0.214331 0.817199 0.144587 0.194497
H21   H     H_    0.766049 0.746719 0.117067 0.153938
H22   H     H_    0.589429 0.376387 0.780216 0.068584
H23   H     H_    0.389739 0.320957 0.768964 -0.089127
H24   H     H_    0.628677 0.290072 0.889135 0.137225
H25   H     H_    0.448166 0.366830 0.919628 0.040826
H26   H     H_    0.427990 0.237138 0.879584 0.165374
H27   H     H_    0.115714 0.293740 0.842479 0.002687
H28   H     H_    0.123185 0.265011 0.727092 -0.005574
H29   H     H_    0.926904 0.139539 0.722469 0.059244
H30   H     H_    0.569041 0.618859 0.217023 0.086002
H31   H     H_    0.862692 0.177698 0.835646 0.071092
H32   H     H_    0.571554 0.646333 0.872792 0.128074
H33   H     H_    0.625498 0.352475 0.122028 0.124820
H34   H     H_    0.262134 0.509106 0.685205 0.064421
H35   H     H_    0.915570 0.494939 0.317230 0.061609
H36   H     H_    0.965525 0.506720 0.954962 0.120797
H37   H     H_    0.251576 0.468416 0.043695 0.104096
H38   H     H_    0.836050 0.686753 0.457778 0.064315
H39   H     H_    0.762777 0.944416 0.382136 0.084089
H40   H     H_    0.438128 0.043941 0.604938 0.102358
H41   H     H_    0.775642 0.659005 0.228970 -0.184486
H42   H     H_    0.348553 0.302357 0.534430 0.058434
H43   H     H_    0.244282 0.912045 0.578912 0.105749
H44   H     H_    0.949353 0.075919 0.411540 0.062851
H45   H     H_    0.729405 0.618186 0.077961 0.048296
H46   H     H_    0.559397 0.703966 0.104624 0.154686
H47   H     H_    0.654590 0.734767 0.593275 0.009496
O1    O     O_2   0.449810 0.404330 0.292300 -0.451690
O2    O     O_3   0.084450 0.778309 0.668484 -0.594539
O3    O     O_3   0.592655 0.766383 0.269357 -0.552290
O4    O     O_2   0.739870 0.595710 0.707750 -0.420984
O5    O     O_3   0.524260 0.572010 0.600550 -0.509786
O6    O     O_3   0.006540 0.415640 0.663000 -0.466514
O7    O     O_3   0.565688 0.748391 0.721956 -0.616811
O8    O     O_3   0.149240 0.378950 0.461440 -0.460861
O9    O     O_3   0.608760 0.358670 0.621950 -0.501471
O10   O     O_2   0.750176 0.183105 0.573353 -0.479718
O11   O     O_3   0.591539 0.227397 0.725495 -0.565891
O12   O     O_3   0.665430 0.428070 0.399450 -0.520705
O13   O     O_3   0.040450 0.621130 0.538560 -0.487613
O14   O     O_2   0.903680 0.264350 0.468980 -0.451387
O15   O     O_3   0.061839 0.216634 0.320539 -0.666266
O16   O     O_2   0.844715 0.517286 0.808704 -0.446519
O17   O     O_3   0.912547 0.337699 0.801226 -0.623897
O18   O     O_3   0.183150 0.584440 0.337010 -0.470599
O19   O     O_2   0.358448 0.488318 0.191271 -0.488724
O20   O     O_3   0.619503 0.253158 0.290026 -0.565926
O21   O     O_3   0.250460 0.661619 0.197659 -0.589346
O22   O     O_2   0.286000 0.735700 0.531070 -0.486258
O23   O     O_3   0.580930 0.641410 0.378050 -0.503396
O24   O     O_2   0.440796 0.816528 0.425007 -0.480922
P1    P     P_3+3 0.619500 0.379780 0.307000 1.059443
P2    P     P_3+3 0.105540 0.727570 0.557610 1.010527
P3    P     P_3+3 0.597799 0.761309 0.374192 0.986747
P4    P     P_3+3 0.570190 0.620290 0.693000 1.020302
P5    P     P_3+3 0.589157 0.236171 0.621431 0.972135
P6    P     P_3+3 0.203876 0.553971 0.226248 0.990886
P7    P     P_3+3 0.090263 0.255748 0.428991 0.931167
P8    P     P_3+3 0.986305 0.441926 0.773417 0.981161
S1    S     S_3+6 0.995529 0.781860 0.878264 -0.028716
O25   O     O_2   0.991695 0.696749 0.915550 -0.340957
O26   O     O_2   0.007573 0.874037 0.947775 -0.191369
O27   O     O_3   0.821955 0.784799 0.835548 -0.493963
H48   H     H_    0.734295 0.802985 0.884810 0.363013
S2    S     S_3+6 0.169590 0.196578 0.162414 0.008080
O28   O     O_2   0.070008 0.113356 0.118208 -0.209233
O29   O     O_2   0.074757 0.289067 0.176875 -0.355973
O30   O     O_3   0.347812 0.202183 0.100598 -0.455645
H49   H     H_    0.318045 0.228413 0.054544 0.343213
S3    S     S_3+6 0.402492 0.017492 0.175309 -0.039890
O31   O     O_2   0.473931 0.934216 0.199074 -0.322763
O32   O     O_2   0.332879 0.978738 0.092817 -0.197570
O33   O     O_3   0.553208 0.095458 0.162078 -0.460469
H50   H     H_    0.637816 0.056023 0.118396 0.392579
S4    S     S_3+6 0.114950 0.089297 0.802425 -0.088237
O34   O     O_2   0.065834 0.987077 0.762562 -0.265628
O35   O     O_2   0.284659 0.105912 0.762786 -0.352548
O36   O     O_3   0.114320 0.104903 0.907555 -0.400607
H51   H     H_    0.135196 0.174932 0.931026 0.316992
N1    N     N_3   0.779770 0.840338 0.678123 -0.417082
H52   H     H_    0.757012 0.887372 0.739569 0.262427
H53   H     H_    0.812360 0.884868 0.637775 0.116235

loop_
_geom_bond_atom_site_label_1
_geom_bond_atom_site_label_2
_ccdc_geom_bond_type
C7    H28   S    
O5    P4    S    
S1    O25   D    
C29   H39   S    
C44   H13   S    
C32   C35   A    
C34   C40   S    
C17   C18   D    
C23   H21   S    
S2    O30   S    
C5    C6    S    
O6    P8    S    
C43   C44   S    
C25   C31   A    
C43   H11   S    
C35   C36   A    
C37   P5    S    
C11   C16   S    
C2    O21   S    
C26   C27   A    
C12   H41   S    
C32   C33   A    
S4    O35   D    
C28   C29   A    
O13   P2    S    
C41   H6    S    
C1    H16   S    
O11   P5    S    
Ba2   O9    S    
C4    H18   S    
Ba2   O14   S    
C3    H17   S    
Ba1   Ba2   S    
Ba1   P2    S    
C38   H40   S    
C4    S3    S    
C5    H22   S    
C9    C13   S    
C42   H7    S    
C4    H19   S    
Ba2   O4    S    
Ba1   O1    S    
C6    H25   S    
O4    P4    D    
C21   C22   A    
Ba1   O23   S    
C17   H36   S    
C7    C8    S    
Ba1   O13   S    
C39   H44   S    
C19   C20   A    
C32   C39   A    
C7    H27   S    
O14   P7    D    
O15   P7    S    
S3    O33   S    
C34   H47   S    
C12   O3    S    
C8    H31   S    
O3    P3    S    
N1    H53   S    
C36   C37   A    
C6    H26   S    
O8    P7    S    
C23   H45   S    
O18   P6    S    
C43   H10   S    
C27   H38   S    
S3    O32   D    
O24   P3    D    
C37   C38   A    
C14   C15   S    
C40   H3    S    
Ba2   O8    S    
O2    P2    S    
C2    H15   S    
Ba2   O13   S    
O23   P3    S    
C36   H42   S    
C8    S4    S    
C12   H30   S    
C41   C42   S    
C5    H23   S    
C27   C28   A    
C35   P7    S    
C9    C14   D    
C29   C30   A    
C30   C39   A    
C15   C16   S    
C34   O7    S    
C40   H2    S    
O19   P6    D    
O21   P6    S    
C34   N1    S    
C40   H4    S    
Ba2   O6    S    
O22   P2    D    
C5    O11   S    
C11   C13   D    
O12   P1    S    
S4    O36   S    
C1    H20   S    
C24   P6    S    
S2    O28   D    
C43   O2    S    
Ba1   O8    S    
N1    H52   S    
C14   P8    S    
Ba2   P4    S    
O16   P8    D    
C7    O17   S    
C11   H32   S    
O7    P4    S    
C23   H46   S    
S1    O26   D    
C13   P4    S    
C44   H14   S    
C22   P1    S    
C44   S1    S    
C18   C20   S    
S3    O31   D    
S2    O29   D    
C26   P2    S    
Ba1   O5    S    
C26   C31   A    
O33   H50   S    
C8    H29   S    
O30   H49   S    
C10   C22   A    
Ba2   O12   S    
C6    H24   S    
S1    O27   S    
O36   H51   S    
C25   C33   A    
C30   C31   A    
C19   C21   A    
C33   C38   A    
O27   H48   S    
S4    O34   D    
Ba1   O18   S    
O1    P1    D    
C42   H9    S    
C41   H5    S    
C3    C4    S    
C28   P3    S    
C15   C17   S    
C10   H35   S    
C25   H43   S    
Ba1   P1    S    
C12   C23   S    
C9    H34   S    
O17   P8    S    
O20   P1    S    
C1    H12   S    
C42   H8    S    
C3    S2    S    
Ba2   O5    S    
C20   C24   A    
C18   H37   S    
C10   C24   A    
Ba1   O22   S    
C21   H33   S    
O9    P5    S    
O10   P5    D    
C2    H1    S    
C41   O20   S    
C1    C2    S    
Ba1   O12   S    
C3    O15   S    
