data_mof_unit_32137.cif
_audit_creation_date              2013-03-05T15:52:48-0500
_audit_creation_method            fapswitch 2.2
_symmetry_space_group_name_H-M    P1
_symmetry_Int_Tables_number       1
_space_group_crystal_system       triclinic
_cell_length_a                    6.983071
_cell_length_b                    15.11961
_cell_length_c                    21.323748
_cell_angle_alpha                 73.561175
_cell_angle_beta                  89.084926
_cell_angle_gamma                 91.783392
_cell_volume                      2157.59098539

loop_
_atom_site_label
_atom_site_type_symbol
_atom_site_description
_atom_site_fract_x
_atom_site_fract_y
_atom_site_fract_z
_atom_type_partial_charge
O1    O     O_R   0.648150 0.130050 0.214300 -0.604885
O2    O     O_R   0.351850 0.869950 0.785700 -0.604886
O3    O     O_R   0.320490 0.006660 0.340150 -0.556017
O4    O     O_R   0.679510 0.993340 0.659850 -0.556017
O5    O     O_R   0.146100 0.869940 0.285700 -0.606731
O6    O     O_R   0.853900 0.130060 0.714300 -0.606731
C1    C     C_R   0.486362 0.002804 0.366600 1.008785
C2    C     C_R   0.513638 0.997196 0.633400 1.008783
O7    O     O_R   0.318690 0.137980 0.218120 -0.588502
O8    O     O_R   0.681310 0.862020 0.781880 -0.588504
O9    O     O_R   0.144280 0.002190 0.162800 -0.602623
O10   O     O_R   0.855720 0.997810 0.837200 -0.602623
C3    C     C_R   0.491195 0.174829 0.205953 0.922582
C4    C     C_R   0.508804 0.825171 0.794045 0.922582
O11   O     O_R   0.649960 0.997790 0.337200 -0.579768
O12   O     O_R   0.350040 0.002210 0.662800 -0.579769
O13   O     O_3   0.479300 0.955290 0.231990 -0.297399
O14   O     O_3   0.520700 0.044710 0.768010 -0.297398
V1    V     V_3+5 0.206040 0.008290 0.253340 1.219378
V2    V     V_3+5 0.793960 0.991710 0.746660 1.219378
O15   O     O_R   0.814320 0.993320 0.159850 -0.609182
O16   O     O_R   0.185680 0.006680 0.840150 -0.609181
C5    C     C_R   0.984275 0.998643 0.132979 0.911696
C6    C     C_R   0.015725 0.001358 0.867021 0.911693
O17   O     O_R   0.816120 0.862000 0.281880 -0.598919
O18   O     O_R   0.183880 0.138000 0.718120 -0.598919
C7    C     C_R   0.981348 0.825021 0.294974 0.970646
C8    C     C_R   0.018652 0.174979 0.705027 0.970643
V3    V     V_3+5 0.705540 0.991700 0.246660 1.183188
V4    V     V_3+5 0.294460 0.008300 0.753340 1.183187
O19   O     O_3   0.982150 0.044700 0.268010 -0.242387
O20   O     O_3   0.017850 0.955300 0.731990 -0.242387
C9    C     C_R   0.974731 0.724404 0.321599 -0.140048
C10   C     C_R   0.025269 0.275597 0.678402 -0.140047
C11   C     C_R   0.829710 0.578941 0.318472 -0.142739
C12   C     C_R   0.170292 0.421059 0.681530 -0.142747
C13   C     C_R   0.867354 0.672210 0.289193 -0.176711
C14   C     C_R   0.132650 0.327790 0.710808 -0.176710
C15   C     C_R   0.042003 0.682427 0.384373 -0.131992
C16   C     C_R   0.957992 0.317574 0.615629 -0.131991
C17   C     C_R   0.981106 0.590841 0.418687 0.140810
C18   C     C_R   0.018888 0.409161 0.581316 0.140810
C19   C     C_R   0.887352 0.537949 0.382461 0.138789
C20   C     C_R   0.112645 0.462053 0.617541 0.138792
C21   C     C_R   0.012327 0.549175 0.486977 -0.117475
C22   C     C_R   0.987664 0.450828 0.513026 -0.117477
C23   C     C_R   0.936829 0.398612 0.469176 0.327239
C24   C     C_R   0.063163 0.601391 0.530828 0.327236
C25   C     C_R   0.863686 0.443338 0.408310 -0.354830
C26   C     C_R   0.136310 0.556664 0.591693 -0.354831
H1    H     H_    0.809147 0.403351 0.377097 0.177962
H2    H     H_    0.190853 0.596651 0.622906 0.177961
H3    H     H_    0.868036 0.276557 0.592963 0.128080
H4    H     H_    0.131959 0.723445 0.407040 0.128083
H5    H     H_    0.187309 0.296078 0.758956 0.114187
H6    H     H_    0.812699 0.703921 0.241045 0.114185
H7    H     H_    0.752830 0.539009 0.291410 0.111976
H8    H     H_    0.247174 0.460991 0.708591 0.111983
C27   C     C_3   0.820554 0.987083 0.980730 -0.157043
C28   C     C_3   0.179445 0.012920 0.019270 -0.157041
C29   C     C_3   0.924635 0.918261 0.036947 -0.210320
C30   C     C_3   0.075363 0.081742 0.963053 -0.210322
H9    H     H_    0.863925 0.850836 0.067566 0.118870
H10   H     H_    0.136074 0.149167 0.932433 0.118869
H11   H     H_    0.672859 0.976954 0.964832 0.129504
H12   H     H_    0.327140 0.023049 0.035167 0.129502
C31   C     C_3   0.994858 0.999363 0.062411 -0.188580
C32   C     C_3   0.005141 0.000640 0.937588 -0.188580
C33   C     C_3   0.891860 0.067458 0.006830 0.302148
C34   C     C_3   0.108139 0.932545 0.993170 0.302146
C35   C     C_3   0.651760 0.047750 0.465187 -0.204377
C36   C     C_3   0.348239 0.952249 0.534813 -0.204379
C37   C     C_3   0.504889 0.085767 0.505473 0.043461
C38   C     C_3   0.495110 0.914232 0.494527 0.043464
H13   H     H_    0.770591 0.088258 0.434329 0.247810
H14   H     H_    0.229408 0.911741 0.565671 0.247811
C39   C     C_3   0.514227 0.997482 0.563170 -0.412393
C40   C     C_3   0.485772 0.002517 0.436830 -0.412395
C41   C     C_3   0.658494 0.959410 0.522913 0.464567
C42   C     C_3   0.341505 0.040590 0.477087 0.464568
C43   C     C_R   0.514428 0.274842 0.178353 -0.090898
C44   C     C_R   0.485568 0.725157 0.821643 -0.090910
C45   C     C_R   0.666326 0.418628 0.182300 -0.177705
C46   C     C_R   0.333612 0.581379 0.817702 -0.177720
C47   C     C_R   0.617390 0.326332 0.212300 -0.144258
C48   C     C_R   0.382555 0.673675 0.787702 -0.144262
C49   C     C_R   0.459238 0.316048 0.114192 -0.254227
C50   C     C_R   0.540799 0.683944 0.885798 -0.254219
C51   C     C_R   0.511148 0.409488 0.081815 0.106778
C52   C     C_R   0.488861 0.590508 0.918179 0.106770
C53   C     C_R   0.616830 0.460154 0.117364 0.185679
C54   C     C_R   0.383141 0.539848 0.882635 0.185684
C55   C     C_R   0.467416 0.453264 0.015060 0.069396
C56   C     C_R   0.532595 0.546732 0.984934 0.069397
C57   C     C_R   0.638523 0.593379 0.022619 -0.214754
C58   C     C_R   0.361464 0.406621 0.977378 -0.214764
C59   C     C_R   0.677613 0.551126 0.087523 -0.233546
C60   C     C_R   0.322348 0.448879 0.912477 -0.233546
H15   H     H_    0.759415 0.589829 0.114396 0.130998
H16   H     H_    0.240514 0.410181 0.885608 0.131000
H17   H     H_    0.614636 0.728338 0.909804 0.108845
H18   H     H_    0.385460 0.271646 0.090179 0.108836
H19   H     H_    0.336169 0.705674 0.738455 0.125785
H20   H     H_    0.663744 0.294338 0.261552 0.125769
H21   H     H_    0.748763 0.456864 0.209213 0.114978
H22   H     H_    0.251138 0.543150 0.790795 0.114987
H23   H     H_    0.695279 0.663003 0.003476 0.130903
H24   H     H_    0.304689 0.337002 0.996524 0.130912
N1    N     N_R   0.837548 0.915364 0.541973 0.254676
O21   O     O_R   0.951449 0.903630 0.496441 -0.358020
O22   O     O_R   0.878537 0.882455 0.603249 -0.388824
N2    N     N_R   0.162451 0.084636 0.458027 0.254673
O23   O     O_R   0.048551 0.096370 0.503559 -0.358020
O24   O     O_R   0.121464 0.117548 0.396751 -0.388828
N3    N     N_R   0.990908 0.304829 0.479394 0.231091
O25   O     O_R   0.937190 0.260218 0.438374 -0.390348
O26   O     O_R   0.135634 0.274695 0.515691 -0.434015
N4    N     N_R   0.009085 0.695173 0.520610 0.231093
O27   O     O_R   0.864371 0.725312 0.484309 -0.434014
O28   O     O_R   0.062793 0.739781 0.561633 -0.390347
C61   C     C_3   0.767614 0.144748 0.015734 -0.395008
C62   C     C_3   0.681165 0.197958 0.951398 -0.906420
H25   H     H_    0.796201 0.229057 0.914454 0.258039
H26   H     H_    0.586632 0.151451 0.932442 0.256676
H27   H     H_    0.594296 0.254108 0.959541 0.257928
H28   H     H_    0.650032 0.114550 0.051874 0.193161
H29   H     H_    0.856730 0.192842 0.035010 0.187419
C63   C     C_3   0.232388 0.855255 0.984267 -0.395003
C64   C     C_3   0.318840 0.802049 0.048604 -0.906426
H30   H     H_    0.413364 0.848559 0.067559 0.256676
H31   H     H_    0.203808 0.770947 0.085548 0.258040
H32   H     H_    0.405717 0.745903 0.040461 0.257927
H33   H     H_    0.143273 0.807159 0.964994 0.187419
H34   H     H_    0.349967 0.885452 0.948127 0.193163
C65   C     C_3   0.523304 0.183614 0.511388 -0.268310
C66   C     C_3   0.494595 0.255197 0.445652 -0.699594
H35   H     H_    0.597908 0.246579 0.408002 0.240260
H36   H     H_    0.348948 0.248175 0.427529 0.301067
H37   H     H_    0.514384 0.325587 0.451360 0.233941
H38   H     H_    0.418857 0.191188 0.548885 0.224409
H39   H     H_    0.667984 0.194184 0.529258 0.205180
C67   C     C_3   0.476694 0.816386 0.488612 -0.268314
C68   C     C_3   0.505402 0.744802 0.554348 -0.699609
H40   H     H_    0.651047 0.751825 0.572472 0.301069
H41   H     H_    0.402085 0.753418 0.591997 0.240263
H42   H     H_    0.485619 0.674413 0.548638 0.233942
H43   H     H_    0.332014 0.805816 0.470742 0.205176
H44   H     H_    0.581141 0.808812 0.451115 0.224411

loop_
_geom_bond_atom_site_label_1
_geom_bond_atom_site_label_2
_geom_bond_distance
_ccdc_geom_bond_type
C29   C34   1.546135 S    
C68   H42   1.109623 S    
C35   H13   1.104311 S    
C55   C56   1.433098 A    
O13   V3    1.719290 S    
O4    C2    1.292138 A    
V1    O19   1.726462 S    
C63   C64   1.525037 S    
C35   C41   1.541633 S    
C50   H17   1.076923 S    
C54   C60   1.391612 A    
C65   C66   1.529801 S    
C23   C25   1.395927 A    
C21   C22   1.436240 A    
C7    C9    1.464502 S    
C23   N3    1.435888 S    
O9    V1    2.011671 S    
C9    C15   1.404672 A    
C10   C16   1.404668 A    
C11   C13   1.385963 A    
C46   C48   1.389767 A    
C61   H29   1.110918 S    
O3    C1    1.292139 A    
N1    O22   1.299868 A    
C40   C42   1.539913 S    
C15   H4    1.080706 S    
C20   C26   1.383299 A    
C68   H40   1.106384 S    
C3    C43   1.461952 S    
C28   C30   1.554652 S    
C18   C22   1.436804 A    
C5    C31   1.502336 S    
C29   H9    1.110327 S    
O7    C3    1.302018 A    
N4    O27   1.296938 A    
C30   H10   1.110327 S    
O5    C7    1.300780 A    
C13   H6    1.083950 S    
C49   C51   1.418483 A    
O7    V1    2.019765 S    
O6    C8    1.300782 A    
C14   H5    1.083950 S    
C37   C65   1.521627 S    
C28   C31   1.545551 S    
O8    V2    2.019764 S    
N3    O26   1.296938 A    
C58   C60   1.385856 A    
C26   H2    1.084017 S    
O11   V3    1.991341 S    
O14   V4    1.719289 S    
C33   C61   1.529011 S    
C51   C53   1.420356 A    
C11   C19   1.400870 A    
C36   H14   1.104310 S    
C64   H32   1.109497 S    
C24   C26   1.395929 A    
C38   C67   1.521627 S    
C8    C10   1.464505 S    
C2    O12   1.308930 A    
C16   C18   1.419045 A    
C17   C19   1.413519 A    
C42   N2    1.444621 S    
C18   C20   1.413518 A    
C66   H37   1.109621 S    
C48   H19   1.083901 S    
N2    O24   1.299869 A    
N2    O23   1.299369 A    
C59   H15   1.084686 S    
C52   C56   1.432077 A    
C46   H22   1.082837 S    
C39   C41   1.539913 S    
O17   V3    2.070048 S    
C65   H38   1.105801 S    
C27   C29   1.554653 S    
C41   N1    1.444621 S    
C12   H8    1.082884 S    
C67   H44   1.105802 S    
C36   C38   1.551863 S    
O8    C4    1.302021 A    
C35   C37   1.551863 S    
C19   C25   1.383298 A    
C24   N4    1.435892 S    
C1    O11   1.308930 A    
C25   H1    1.084016 S    
C44   C48   1.395624 A    
O15   V3    1.983059 S    
C9    C13   1.396738 A    
C45   H21   1.082834 S    
C30   C33   1.546137 S    
C31   C33   1.537765 S    
C36   C39   1.544027 S    
C63   H34   1.110776 S    
C27   C32   1.545553 S    
C49   H18   1.076926 S    
C29   C31   1.544945 S    
C52   C54   1.420357 A    
C28   C34   1.545464 S    
O10   V2    2.011671 S    
O1    V3    2.063112 S    
C53   C59   1.391612 A    
O3    V1    2.022035 S    
C61   C62   1.525035 S    
C43   C49   1.399245 A    
C47   H20   1.083901 S    
C57   H23   1.075867 S    
C27   C33   1.545467 S    
C1    C40   1.496278 S    
C66   H36   1.106385 S    
C45   C47   1.389769 A    
C50   C52   1.418486 A    
O18   V4    2.070048 S    
C55   C58   1.413373 A    
C60   H16   1.084684 S    
C38   C41   1.530438 S    
O15   C5    1.299825 A    
C2    C39   1.496278 S    
O16   C6    1.299827 A    
C12   C20   1.400871 A    
O1    C3    1.294430 A    
O2    V4    2.063114 S    
C4    C44   1.461959 S    
C62   H26   1.110892 S    
O6    V2    2.036245 S    
C64   H30   1.110887 S    
V2    O20   1.726463 S    
C21   C24   1.426400 A    
C34   C63   1.529008 S    
C68   H41   1.108412 S    
C22   C23   1.426396 A    
C37   C39   1.542143 S    
O16   V4    1.983054 S    
C10   C14   1.396742 A    
C67   H43   1.108234 S    
C66   H35   1.108414 S    
C57   C59   1.385859 A    
O5    V1    2.036245 S    
O17   C7    1.297649 A    
C45   C53   1.402775 A    
O10   C6    1.301512 A    
O18   C8    1.297649 A    
C30   C32   1.544946 S    
C11   H7    1.082883 S    
C62   H27   1.109507 S    
C12   C14   1.385964 A    
C61   H28   1.110777 S    
V3    O19   2.172249 S    
C63   H33   1.110917 S    
C27   H11   1.110319 S    
V4    O20   2.172248 S    
C44   C50   1.399244 A    
O9    C5    1.301513 A    
O13   V1    2.182778 S    
C37   C42   1.530437 S    
O14   V2    2.182777 S    
C51   C55   1.432072 A    
C56   C57   1.413373 A    
O2    C4    1.294429 A    
N4    O28   1.299775 A    
C6    C32   1.502339 S    
C28   H12   1.110319 S    
O4    V2    2.022038 S    
C65   H39   1.108234 S    
C15   C17   1.419045 A    
C36   C42   1.541633 S    
C16   H3    1.080708 S    
C38   C40   1.542145 S    
C32   C34   1.537765 S    
C17   C21   1.436805 A    
C67   C68   1.529800 S    
C58   H24   1.075867 S    
C46   C54   1.402776 A    
C62   H25   1.110683 S    
N1    O21   1.299368 A    
O12   V4    1.991341 S    
C35   C40   1.544026 S    
C43   C47   1.395621 A    
N3    O25   1.299777 A    
C64   H31   1.110677 S    
