data_mof_unit_15570.cif
_audit_creation_date              2012-12-11T15:23:35-0500
_audit_creation_method            fapswitch 2.2
_symmetry_space_group_name_H-M    P1
_symmetry_Int_Tables_number       1
_space_group_crystal_system       triclinic
_cell_length_a                    6.936922
_cell_length_b                    17.494526
_cell_length_c                    19.387761
_cell_angle_alpha                 109.607899
_cell_angle_beta                  90.205214
_cell_angle_gamma                 90.728888
_cell_volume                      2216.16701093

loop_
_atom_site_label
_atom_site_type_symbol
_atom_type_description
_atom_site_fract_x
_atom_site_fract_y
_atom_site_fract_z
_atom_type_partial_charge
O1    O     O_R   0.505810 0.439670 0.562310 -0.526443
O2    O     O_R   0.169070 0.404920 0.411210 -0.530156
O3    O     O_R   0.005550 0.560330 0.437690 -0.511265
C1    C     C_R   0.338087 0.381678 0.383068 0.814212
O4    O     O_R   0.175650 0.430000 0.560110 -0.535072
O5    O     O_R   0.012170 0.585580 0.587650 -0.542692
C2    C     C_R   0.344423 0.415095 0.581963 0.791060
O6    O     O_R   0.499180 0.414420 0.412350 -0.538983
O7    O     O_3   0.341430 0.551020 0.508860 -0.373172
V1    V     V_3+5 0.063930 0.490540 0.498360 1.567744
O8    O     O_R   0.682850 0.595080 0.588790 -0.547428
C3    C     C_R   0.852970 0.617757 0.616846 0.794538
O9    O     O_R   0.676280 0.570000 0.439890 -0.547461
C4    C     C_R   0.845261 0.582667 0.416325 0.789312
V2    V     V_3+5 0.564760 0.509460 0.501640 1.541879
O10   O     O_3   0.837130 0.448980 0.491140 -0.367141
C5    C     C_R   0.774062 0.888046 0.191209 0.381234
C6    C     C_R   0.913212 0.870561 0.135183 -0.159844
C7    C     C_R   0.044217 0.808662 0.128219 -0.251105
C8    C     C_R   0.038576 0.761846 0.174622 0.043755
C9    C     C_R   0.890763 0.774613 0.227323 -0.064259
C10   C     C_R   0.753306 0.836865 0.234891 0.014448
C11   C     C_R   0.180052 0.702898 0.169504 0.121474
C12   C     C_R   0.172595 0.655053 0.214967 0.228128
C13   C     C_R   0.019326 0.663365 0.265404 -0.013945
C14   C     C_R   0.881587 0.725421 0.272679 -0.097960
C15   C     C_R   0.733760 0.738115 0.325249 0.089180
C16   C     C_R   0.592759 0.796976 0.330863 0.130349
C17   C     C_R   0.599916 0.845323 0.285394 0.172729
C18   C     C_R   0.999050 0.612360 0.309290 0.386732
C19   C     C_R   0.858204 0.629380 0.364821 -0.187570
C20   C     C_R   0.726995 0.691179 0.371505 -0.168319
H1    H     H_    0.151685 0.797720 0.085839 0.144346
H2    H     H_    0.618248 0.702360 0.413577 0.198881
C21   C     C_3   0.772087 0.810532 0.746599 0.370506
C22   C     C_3   0.938757 0.774186 0.693463 0.378683
C23   C     C_3   0.868677 0.687596 0.686899 -0.214100
C24   C     C_3   0.699108 0.723329 0.739619 -0.278926
C25   C     C_3   0.833117 0.726605 0.804623 0.160320
C26   C     C_3   0.998679 0.690645 0.752340 0.110816
C27   C     C_3   0.066481 0.776575 0.759182 0.070644
C28   C     C_3   0.902494 0.813155 0.812450 -0.175524
H3    H     H_    0.553033 0.695519 0.731596 0.136727
C29   C     C_3   0.447291 0.229718 0.306966 0.398550
C30   C     C_3   0.288821 0.185822 0.252061 0.152084
C31   C     C_3   0.415606 0.188276 0.187784 -0.135610
C32   C     C_3   0.576096 0.233281 0.242698 -0.212430
C33   C     C_3   0.484378 0.316335 0.248522 -0.154704
C34   C     C_3   0.324518 0.270121 0.194762 0.221698
C35   C     C_3   0.193405 0.267121 0.258013 -0.138297
C36   C     C_3   0.355432 0.311517 0.312443 -0.163286
H4    H     H_    0.731409 0.218618 0.236727 0.164442
H5    H     H_    0.562659 0.371109 0.246079 0.167119
H6    H     H_    0.037737 0.281160 0.263612 0.142616
C37   C     C_R   0.270087 0.108549 0.808055 0.404572
C38   C     C_R   0.415510 0.126804 0.862919 -0.184548
C39   C     C_R   0.551056 0.188171 0.867741 -0.226881
C40   C     C_R   0.542017 0.234205 0.820895 0.104609
C41   C     C_R   0.388883 0.220606 0.769374 -0.086859
C42   C     C_R   0.248817 0.158351 0.763421 0.021883
C43   C     C_R   0.683304 0.294192 0.825165 0.202625
C44   C     C_R   0.670408 0.341293 0.779697 -0.239217
C45   C     C_R   0.518347 0.330174 0.728915 0.030892
C46   C     C_R   0.377314 0.269134 0.723412 0.012773
C47   C     C_R   0.224993 0.256530 0.672084 0.037457
C48   C     C_R   0.084531 0.196946 0.668462 -0.244255
C49   C     C_R   0.093003 0.148904 0.713219 0.222024
C50   C     C_R   0.504669 0.379137 0.683774 0.100694
C51   C     C_R   0.354521 0.365244 0.631159 -0.064160
C52   C     C_R   0.215230 0.303663 0.625250 0.103145
H7    H     H_    0.663796 0.200247 0.909003 0.181891
H8    H     H_    0.782158 0.386632 0.784926 0.134764
H9    H     H_    0.963180 0.187044 0.631127 0.141425
O11   O     O_R   0.271890 0.085690 0.087580 -0.540130
O12   O     O_R   0.595690 0.070020 0.939870 -0.541000
O13   O     O_R   0.758900 0.914390 0.912370 -0.527641
C53   C     C_R   0.427020 0.081981 0.915790 0.795323
O14   O     O_R   0.602020 0.095100 0.088770 -0.536324
O15   O     O_R   0.765280 0.939660 0.062330 -0.521169
C54   C     C_R   0.432940 0.118267 0.116974 0.752995
O16   O     O_R   0.265520 0.060430 0.937620 -0.525602
O17   O     O_3   0.429560 0.949050 0.991100 -0.371376
V3    V     V_3+5 0.707160 0.009450 0.001650 1.560554
O18   O     O_R   0.094540 0.929890 0.060190 -0.548944
C55   C     C_R   0.925611 0.917279 0.083705 0.770951
O19   O     O_R   0.088200 0.904800 0.911290 -0.531847
C56   C     C_R   0.918169 0.882297 0.883094 0.831364
V4    V     V_3+5 0.206300 0.990390 0.998440 1.543891
O20   O     O_3   0.934030 0.050940 0.008900 -0.380744
Cl1   Cl    Cl    0.650857 0.981395 0.211854 -0.621922
Cl2   Cl    Cl    0.636035 0.894446 0.741764 -0.499348
N1    N     N_3   0.775698 0.700641 0.865560 -0.663424
H10   H     H_    0.744788 0.638454 0.844244 0.244983
H11   H     H_    0.895649 0.707916 0.900061 0.214547
N2    N     N_3   0.121613 0.625369 0.756402 -0.663225
H12   H     H_    0.193426 0.646014 0.806901 0.225021
H13   H     H_    0.226874 0.616600 0.716171 0.227050
N3    N     N_3   0.263100 0.807312 0.768991 -0.522791
H14   H     H_    0.331284 0.780264 0.719020 0.275507
H15   H     H_    0.328552 0.787228 0.808283 0.224604
N4    N     N_3   0.181446 0.114531 0.254171 -0.609520
H16   H     H_    0.112104 0.130405 0.304686 0.270505
H17   H     H_    0.281366 0.070111 0.253390 0.294522
Cl3   Cl    Cl    0.526598 0.201049 0.382200 -0.629511
N5    N     N_3   0.258612 0.293473 0.133365 -0.607942
H18   H     H_    0.151623 0.251706 0.105757 0.222048
H19   H     H_    0.374102 0.286270 0.097371 0.210306
Cl4   Cl    Cl    0.135661 0.016717 0.790544 -0.496659
N6    N     N_3   0.842238 0.307325 0.875527 -0.677661
H20   H     H_    0.969960 0.298664 0.845555 0.235558
H21   H     H_    0.840340 0.367795 0.910106 0.236772
N7    N     N_3   0.638709 0.445112 0.692290 -0.661709
H22   H     H_    0.777880 0.422144 0.681412 0.236053
H23   H     H_    0.632628 0.485330 0.746085 0.224952
N8    N     N_3   0.068065 0.287939 0.569637 -0.630208
H24   H     H_    0.077449 0.227727 0.534917 0.260457
H25   H     H_    0.932952 0.297334 0.594547 0.233769
N9    N     N_3   0.936144 0.093299 0.708656 -0.534113
H26   H     H_    0.927390 0.052834 0.654919 0.278865
H27   H     H_    0.808211 0.125982 0.719869 0.236863
N10   N     N_3   0.337838 0.691359 0.119352 -0.687642
H28   H     H_    0.283197 0.673235 0.065876 0.234642
H29   H     H_    0.414401 0.746133 0.130705 0.244752
N11   N     N_3   0.328402 0.600804 0.211598 -0.562722
H30   H     H_    0.457496 0.634276 0.223203 0.248520
H31   H     H_    0.335352 0.559218 0.158382 0.270024
Cl5   Cl    Cl    0.126841 0.520131 0.289798 -0.639308
N12   N     N_3   0.439161 0.806519 0.382571 -0.650266
H32   H     H_    0.441165 0.866196 0.418866 0.260541
H33   H     H_    0.307298 0.794531 0.354516 0.236959
N13   N     N_3   0.445043 0.899941 0.288374 -0.586378
H34   H     H_    0.437113 0.942094 0.341256 0.267268
H35   H     H_    0.315315 0.867147 0.275465 0.229918
Cl6   Cl    Cl    0.011449 0.805883 0.619048 -0.532306

loop_
_geom_bond_atom_site_label_1
_geom_bond_atom_site_label_2
_ccdc_geom_bond_type
C31   C54   S    
C9    C14   A    
N4    H16   S    
C10   C17   A    
C27   C28   S    
N2    H12   S    
C4    C19   S    
C1    O6    A    
C43   N6    S    
N12   H32   S    
N7    H23   S    
C29   Cl3   S    
C11   N10   S    
C17   N13   S    
C30   C31   S    
N5    H19   S    
C31   C34   S    
C41   C46   A    
C35   H6    S    
C9    C10   A    
C16   C17   A    
C23   C26   S    
N6    H21   S    
O5    C3    A    
C18   C19   A    
O19   V4    S    
C47   C52   A    
C12   N11   S    
C38   C39   A    
C6    C7    A    
C50   N7    S    
C3    C23   S    
C21   C28   S    
N9    H26   S    
C31   C32   S    
O8    V2    S    
O14   V3    S    
C33   C36   S    
C44   C45   A    
C21   C22   S    
C42   C49   A    
C50   C51   A    
N8    H25   S    
C11   C12   A    
O1    V2    S    
O7    V1    S    
C29   C32   S    
V4    O20   S    
C40   C43   A    
C48   C49   A    
C41   C42   A    
N4    H17   S    
O11   C54   A    
O9    C4    A    
C22   C27   S    
C51   C52   A    
O13   V3    S    
N7    H22   S    
C35   C36   S    
C25   C28   S    
C33   H5    S    
V3    O20   S    
C6    C55   S    
V2    O10   S    
C1    C36   S    
C21   C24   S    
C12   C13   A    
C7    H1    S    
C25   C26   S    
O4    C2    A    
O19   C56   A    
C34   N5    S    
C13   C14   A    
C48   H9    S    
O17   V3    S    
C39   H7    S    
C38   C53   S    
N12   H33   S    
C20   H2    S    
O2    C1    A    
C2    C51   S    
C23   C24   S    
C32   C33   S    
C8    C11   A    
C53   O16   A    
C37   C38   A    
N1    H11   S    
C5    C6    A    
C14   C15   A    
C44   H8    S    
O18   C55   A    
O12   C53   A    
O13   C56   A    
N10   H28   S    
O3    C4    A    
C30   N4    S    
C29   C36   S    
C26   C27   S    
C34   C35   S    
O6    V2    S    
N3    H15   S    
O9    V2    S    
C26   N2    S    
N13   H34   S    
O2    V1    S    
C25   N1    S    
O15   C55   A    
C29   C30   S    
N11   H31   S    
C13   C18   A    
C18   Cl5   S    
C33   C34   S    
C15   C20   A    
O1    C2    A    
C19   C20   A    
C5    Cl1   S    
O18   V4    S    
N13   H35   S    
C22   Cl6   S    
O5    V1    S    
O8    C3    A    
N2    H13   S    
C32   H4    S    
C52   N8    S    
N5    H18   S    
C45   C50   A    
C5    C10   A    
C37   Cl4   S    
C46   C47   A    
C7    C8    A    
C40   C41   A    
C24   H3    S    
O3    V1    S    
V1    O10   S    
N6    H20   S    
O15   V3    S    
O12   V3    S    
C39   C40   A    
C24   C25   S    
C30   C35   S    
O17   V4    S    
N1    H10   S    
O14   C54   A    
C47   C48   A    
O7    V2    S    
C43   C44   A    
C49   N9    S    
N9    H27   S    
N10   H29   S    
O16   V4    S    
C45   C46   A    
C16   N12   S    
O4    V1    S    
C8    C9    A    
C22   C23   S    
N3    H14   S    
C15   C16   A    
C27   N3    S    
C28   C56   S    
O11   V4    S    
C37   C42   A    
N8    H24   S    
N11   H30   S    
C21   Cl2   S    
