data_mof_unit_66732.cif
_audit_creation_date              2013-03-05T15:39:26-0500
_audit_creation_method            fapswitch 2.2
_symmetry_space_group_name_H-M    P1
_symmetry_Int_Tables_number       1
_space_group_crystal_system       triclinic
_cell_length_a                    20.570853
_cell_length_b                    23.092462
_cell_length_c                    8.65044
_cell_angle_alpha                 90.0
_cell_angle_beta                  103.556676
_cell_angle_gamma                 90.211212
_cell_volume                      3994.71470356

loop_
_atom_site_label
_atom_site_type_symbol
_atom_site_description
_atom_site_fract_x
_atom_site_fract_y
_atom_site_fract_z
_atom_type_partial_charge
P1    P     P_3+3 0.859590 0.433890 0.993820 0.436292
P2    P     P_3+3 0.859590 0.566110 0.493820 0.457780
P3    P     P_3+3 0.359590 0.933890 0.993820 0.432902
P4    P     P_3+3 0.359590 0.066110 0.493820 0.452838
O1    O     O_2   0.866180 0.413660 0.823810 -0.363348
O2    O     O_2   0.866180 0.586340 0.323810 -0.377285
O3    O     O_2   0.366180 0.913660 0.823810 -0.328626
O4    O     O_2   0.366180 0.086340 0.323810 -0.316027
O5    O     O_3   0.922050 0.469730 0.097400 -0.447962
O6    O     O_3   0.922050 0.530270 0.597400 -0.424100
O7    O     O_3   0.422050 0.969730 0.097400 -0.464371
O8    O     O_3   0.422050 0.030270 0.597400 -0.440272
O9    O     O_3   0.976760 0.360270 0.628090 -0.409819
O10   O     O_3   0.976760 0.639730 0.128090 -0.400797
O11   O     O_3   0.476760 0.860270 0.628090 -0.414875
O12   O     O_3   0.476760 0.139730 0.128090 -0.433351
O13   O     O_2   0.856612 0.326170 0.665974 -0.324392
O14   O     O_2   0.861094 0.676830 0.177759 -0.362563
O15   O     O_2   0.358580 0.824149 0.671749 -0.305455
O16   O     O_2   0.356674 0.171863 0.160122 -0.318975
O17   O     O_3   0.794560 0.484539 0.964777 -0.613833
O18   O     O_3   0.795473 0.513871 0.453786 -0.536004
O19   O     O_3   0.292826 0.981972 0.939460 -0.576766
O20   O     O_3   0.294051 0.016419 0.438784 -0.578307
O21   O     O_3   0.933710 0.241453 0.651345 -0.502118
O22   O     O_3   0.940551 0.758769 0.143104 -0.485938
O23   O     O_3   0.435261 0.740500 0.645409 -0.504567
O24   O     O_3   0.431555 0.258369 0.148454 -0.511957
C1    C     C_3   0.973527 0.155623 0.556776 -0.809169
C2    C     C_3   0.960827 0.847498 0.019413 -0.795158
C3    C     C_3   0.485163 0.657394 0.564461 -0.847403
C4    C     C_3   0.483739 0.344006 0.088454 -0.820820
H1    H     H_    0.980206 0.130585 0.668888 0.271464
H2    H     H_    0.971979 0.870461 0.135114 0.271949
H3    H     H_    0.489343 0.633270 0.676907 0.278481
H4    H     H_    0.524064 0.362411 0.038370 0.216331
H5    H     H_    0.921435 0.149436 0.487210 0.290660
H6    H     H_    0.906713 0.852454 0.965481 0.285230
H7    H     H_    0.435103 0.647895 0.488073 0.277546
H8    H     H_    0.485626 0.364916 0.204516 0.266933
P5    P     P_3+3 0.140130 0.433190 0.695710 0.500584
P6    P     P_3+3 0.140130 0.566810 0.195710 0.502029
P7    P     P_3+3 0.640130 0.933190 0.695710 0.500460
P8    P     P_3+3 0.640130 0.066810 0.195710 0.497422
P9    P     P_3+3 0.080420 0.304255 0.124504 0.400511
P10   P     P_3+3 0.078210 0.697777 0.626895 0.427821
P11   P     P_3+3 0.579174 0.803537 0.126645 0.405642
P12   P     P_3+3 0.576880 0.198164 0.630403 0.403081
O25   O     O_2   0.133470 0.412980 0.865660 -0.372797
O26   O     O_2   0.133470 0.587020 0.365660 -0.374176
O27   O     O_2   0.633470 0.912980 0.865660 -0.376347
O28   O     O_2   0.633470 0.087020 0.365660 -0.380411
O29   O     O_3   0.022720 0.360150 0.061220 -0.409885
O30   O     O_3   0.022720 0.639850 0.561220 -0.375456
O31   O     O_3   0.522720 0.860150 0.061220 -0.400030
O32   O     O_3   0.522720 0.139850 0.561220 -0.380265
O33   O     O_2   0.134503 0.315882 0.030051 -0.387402
O34   O     O_2   0.134504 0.688449 0.537377 -0.363353
O35   O     O_2   0.633522 0.814129 0.032251 -0.391908
O36   O     O_2   0.633266 0.189883 0.540672 -0.392155
O37   O     O_3   0.224186 0.462471 0.778389 -0.526112
O38   O     O_3   0.223658 0.537813 0.280113 -0.524285
O39   O     O_3   0.723974 0.962730 0.777647 -0.520741
O40   O     O_3   0.723498 0.037839 0.278660 -0.521428
O41   O     O_3   0.047093 0.239361 0.038711 -0.497291
O42   O     O_3   0.041747 0.760522 0.534714 -0.520008
O43   O     O_3   0.543985 0.739206 0.040708 -0.484155
O44   O     O_3   0.539711 0.261187 0.541379 -0.514970
C5    C     C_3   0.001380 0.218326 0.121757 0.340626
C6    C     C_3   0.996993 0.782533 0.618581 0.203765
C7    C     C_3   0.505670 0.714522 0.137467 0.234457
C8    C     C_3   0.494482 0.282726 0.625066 0.233304
H9    H     H_    0.955664 0.245525 0.090776 0.066747
H10   H     H_    0.953229 0.752824 0.599044 0.098764
H11   H     H_    0.466113 0.745502 0.151384 0.057858
H12   H     H_    0.448876 0.255023 0.597292 0.088416
H13   H     H_    0.021794 0.219491 0.252187 0.003424
H14   H     H_    0.020624 0.785680 0.746553 0.044830
H15   H     H_    0.537028 0.703802 0.256887 0.022931
H16   H     H_    0.515603 0.282465 0.754855 0.038671
C9    C     C_3   0.984464 0.155385 0.068900 -0.011028
C10   C     C_3   0.975368 0.843764 0.555177 -0.027476
C11   C     C_3   0.472654 0.659505 0.053745 0.037586
C12   C     C_3   0.476661 0.345640 0.569454 -0.016729
H17   H     H_    0.960133 0.157153 0.940119 0.189110
H18   H     H_    0.951730 0.838709 0.426816 0.219868
H19   H     H_    0.439574 0.674495 0.940328 0.205489
H20   H     H_    0.450039 0.342849 0.442733 0.208387
C13   C     C_3   0.243604 0.479211 0.264494 0.605963
C14   C     C_3   0.243947 0.521385 0.763166 0.607490
C15   C     C_3   0.742892 0.979170 0.263401 0.622955
C16   C     C_3   0.743337 0.021786 0.762990 0.614653
C17   C     C_3   0.315715 0.475949 0.235385 0.344515
C18   C     C_3   0.316735 0.526344 0.736572 0.338090
C19   C     C_3   0.814718 0.975544 0.233214 0.334033
C20   C     C_3   0.815697 0.026952 0.734698 0.334039
H21   H     H_    0.317150 0.489777 0.117660 0.185677
H22   H     H_    0.319822 0.510585 0.621449 0.172272
H23   H     H_    0.815939 0.988067 0.113964 0.182832
H24   H     H_    0.817572 0.013757 0.616224 0.178634
Ba1   Ba    Ba6+2 0.999900 0.456810 0.844860 1.527688
Ba2   Ba    Ba6+2 0.999900 0.543190 0.344860 1.530299
Ba3   Ba    Ba6+2 0.499900 0.956810 0.844860 1.526382
Ba4   Ba    Ba6+2 0.499900 0.043190 0.344860 1.528325
C21   C     C_3   0.754450 0.483999 0.809649 0.271417
C22   C     C_3   0.750958 0.524541 0.306427 0.327729
C23   C     C_3   0.260077 0.985154 0.064118 0.255038
C24   C     C_3   0.263302 0.010230 0.565840 0.262312
H25   H     H_    0.740025 0.439313 0.767375 0.118148
H26   H     H_    0.729205 0.568617 0.302615 0.036539
H27   H     H_    0.292484 0.008869 0.164381 0.179732
H28   H     H_    0.298356 0.989583 0.665709 0.170381
H29   H     H_    0.782109 0.504747 0.729372 0.164445
H30   H     H_    0.777308 0.520102 0.209827 0.130254
H31   H     H_    0.247365 0.941405 0.104089 0.051909
H32   H     H_    0.246420 0.052564 0.603294 0.041869
C25   C     C_3   0.691529 0.519264 0.810002 -0.233417
C26   C     C_3   0.694176 0.480096 0.276549 -0.157376
C27   C     C_3   0.195272 0.018606 0.007933 -0.143979
C28   C     C_3   0.202230 0.971608 0.516641 -0.151747
H33   H     H_    0.651096 0.490441 0.830665 0.161958
H34   H     H_    0.670332 0.477910 0.147473 0.108846
H35   H     H_    0.165561 0.000203 0.894516 0.149568
H36   H     H_    0.166420 0.991274 0.414021 0.139319
H37   H     H_    0.702223 0.552161 0.906581 0.174914
H38   H     H_    0.655440 0.492678 0.339731 0.194948
H39   H     H_    0.165222 0.015108 0.098442 0.124844
H40   H     H_    0.178455 0.967328 0.618734 0.125042
O45   O     O_3   0.077880 0.530130 0.092320 -0.463101
O46   O     O_3   0.077880 0.469870 0.592320 -0.461325
O47   O     O_3   0.577880 0.030130 0.092320 -0.459859
O48   O     O_3   0.577880 0.969870 0.592320 -0.460491
P13   P     P_3+3 0.909959 0.690386 0.072138 0.451396
P14   P     P_3+3 0.908872 0.309726 0.571826 0.478460
P15   P     P_3+3 0.409021 0.189733 0.067745 0.436660
P16   P     P_3+3 0.409283 0.809352 0.571774 0.484646
C29   C     C_3   0.987174 0.220144 0.592208 0.634632
C30   C     C_3   0.977465 0.783029 0.040748 0.618881
C31   C     C_3   0.492625 0.722708 0.596089 0.659037
C32   C     C_3   0.490247 0.278077 0.108292 0.657214
H41   H     H_    0.991184 0.241302 0.479233 -0.049205
H42   H     H_    0.963346 0.763982 0.920040 -0.059283
H43   H     H_    0.497113 0.743638 0.482874 -0.065225
H44   H     H_    0.496350 0.259993 0.993406 -0.060738
H45   H     H_    0.007588 0.138239 0.486225 0.218117
H46   H     H_    0.989671 0.868209 0.941128 0.225346
H47   H     H_    0.523648 0.641617 0.503808 0.227958
H48   H     H_    0.435339 0.354960 0.006788 0.291339
C33   C     C_R   0.108801 0.652129 0.943886 -0.512572
C34   C     C_R   0.105944 0.345350 0.447657 -0.474221
C35   C     C_R   0.608389 0.152682 0.946775 -0.500062
C36   C     C_R   0.605473 0.845352 0.448891 -0.480994
C37   C     C_R   0.118415 0.700107 0.849499 0.097990
C38   C     C_R   0.122104 0.302247 0.346072 0.122678
C39   C     C_R   0.618378 0.200142 0.851603 0.122602
C40   C     C_R   0.620888 0.801704 0.348203 0.122203
C41   C     C_R   0.165469 0.743887 0.917056 0.129514
C42   C     C_R   0.178852 0.266775 0.402396 0.019697
C43   C     C_R   0.667519 0.242672 0.915631 0.107164
C44   C     C_R   0.676904 0.765429 0.405235 0.043831
C45   C     C_R   0.211465 0.734819 0.068518 0.061293
C46   C     C_R   0.214859 0.268462 0.565512 0.051519
C47   C     C_R   0.713999 0.233372 0.066284 0.053092
C48   C     C_R   0.713389 0.767385 0.568273 0.048695
C49   C     C_R   0.200883 0.682941 0.155615 -0.284780
C50   C     C_R   0.199829 0.317112 0.658385 -0.265960
C51   C     C_R   0.702703 0.181962 0.154505 -0.283107
C52   C     C_R   0.699150 0.816702 0.659888 -0.284276
C53   C     C_R   0.148582 0.641647 0.096340 0.424980
C54   C     C_R   0.147468 0.357866 0.597708 0.413320
C55   C     C_R   0.649044 0.141666 0.097456 0.415927
C56   C     C_R   0.647253 0.857819 0.598478 0.414413
C57   C     C_R   0.807693 0.274684 0.294705 -0.257421
C58   C     C_R   0.806258 0.724652 0.797837 -0.318539
C59   C     C_R   0.305330 0.776244 0.296647 -0.252021
C60   C     C_R   0.308497 0.226282 0.792647 -0.260825
C61   C     C_R   0.863368 0.310627 0.355907 0.218380
C62   C     C_R   0.860899 0.687655 0.857196 0.149133
C63   C     C_R   0.361764 0.811480 0.356884 0.224202
C64   C     C_R   0.362786 0.189057 0.851926 0.179252
C65   C     C_R   0.845537 0.362996 0.102636 0.294151
C66   C     C_R   0.838158 0.633656 0.605374 0.276086
C67   C     C_R   0.344731 0.862866 0.101881 0.229977
C68   C     C_R   0.339279 0.134701 0.601663 0.249543
C69   C     C_R   0.796742 0.320421 0.036107 -0.284043
C70   C     C_R   0.781701 0.670091 0.550045 -0.249746
C71   C     C_R   0.295100 0.820811 0.036513 -0.274120
C72   C     C_R   0.282978 0.171271 0.545793 -0.295219
C73   C     C_R   0.773542 0.276287 0.131190 0.125419
C74   C     C_R   0.767769 0.720556 0.637859 0.128040
C75   C     C_R   0.271190 0.777592 0.133055 0.090731
C76   C     C_R   0.269585 0.221958 0.633534 0.110261
C77   C     C_R   0.881854 0.353008 0.258573 -0.176987
C78   C     C_R   0.877770 0.645595 0.755765 -0.177192
C79   C     C_R   0.380704 0.853234 0.258527 -0.176890
C80   C     C_R   0.378942 0.146400 0.751956 -0.169274
H49   H     H_    0.792206 0.245509 0.376732 0.166831
H50   H     H_    0.796106 0.757436 0.877400 0.154552
H51   H     H_    0.289544 0.747429 0.379083 0.174914
H52   H     H_    0.298293 0.258854 0.872714 0.152932
H53   H     H_    0.778883 0.323232 0.909667 0.195290
H54   H     H_    0.748763 0.656456 0.441115 0.156512
H55   H     H_    0.276914 0.823273 0.909997 0.211334
H56   H     H_    0.249565 0.157311 0.437324 0.171999
H57   H     H_    0.234738 0.672496 0.267322 0.170614
H58   H     H_    0.229944 0.325699 0.775891 0.163376
H59   H     H_    0.736936 0.171066 0.265293 0.170030
H60   H     H_    0.729448 0.825364 0.777186 0.164853
H61   H     H_    0.075807 0.617942 0.889911 0.156840
H62   H     H_    0.067051 0.375556 0.399635 0.148169
H63   H     H_    0.575310 0.118541 0.893375 0.154121
H64   H     H_    0.566867 0.875811 0.400557 0.150294
N1    N     N_2   0.048979 0.229601 0.711990 -0.070969
H65   H     H_    0.060679 0.272861 0.731148 0.221142
C81   C     C_3   0.106406 0.194426 0.705832 -0.847327
H66   H     H_    0.151335 0.211525 0.791209 0.288071
H67   H     H_    0.114986 0.194432 0.584088 0.208593
H68   H     H_    0.098412 0.149295 0.741307 0.285407
N2    N     N_2   0.048596 0.772840 0.103135 -0.136398
H69   H     H_    0.059153 0.729795 0.126993 0.190967
C82   C     C_3   0.085062 0.810572 0.227359 -0.766469
H70   H     H_    0.134376 0.791389 0.283455 0.275125
H71   H     H_    0.056273 0.817246 0.317843 0.284365
H72   H     H_    0.093406 0.853453 0.177784 0.242775
N3    N     N_2   0.551405 0.736796 0.721472 -0.067401
H73   H     H_    0.562264 0.780409 0.730355 0.214897
C83   C     C_3   0.610251 0.700540 0.744953 -0.804790
H74   H     H_    0.652781 0.721851 0.828772 0.257438
H75   H     H_    0.623793 0.692573 0.630149 0.240770
H76   H     H_    0.601024 0.658677 0.799034 0.285667
N4    N     N_2   0.547297 0.261451 0.234669 -0.067111
H77   H     H_    0.556458 0.217621 0.239102 0.224994
C84   C     C_3   0.607935 0.295483 0.260821 -0.833386
H78   H     H_    0.648224 0.274376 0.350783 0.288784
H79   H     H_    0.599645 0.339099 0.305312 0.276921
H80   H     H_    0.623998 0.299614 0.149201 0.239813
Br1   Br    Br    0.381653 0.522275 0.379807 -0.539097
Br2   Br    Br    0.384838 0.484263 0.887094 -0.501383
Br3   Br    Br    0.880144 0.023388 0.374217 -0.560473
Br4   Br    Br    0.882923 0.981534 0.877486 -0.538302
Br5   Br    Br    0.349873 0.397843 0.229000 -0.609868
Br6   Br    Br    0.347579 0.605925 0.724090 -0.535188
Br7   Br    Br    0.848506 0.897263 0.230243 -0.632434
Br8   Br    Br    0.847790 0.106494 0.732077 -0.558608
Br9   Br    Br    0.659998 0.561406 0.613620 -0.681347
Br10  Br    Br    0.725999 0.403737 0.348855 -0.599110
Br11  Br    Br    0.214670 0.099501 0.977472 -0.577069
Br12  Br    Br    0.225975 0.895043 0.457987 -0.595520
N5    N     N_2   0.938619 0.128031 0.151966 -0.102553
H81   H     H_    0.928870 0.085412 0.118652 0.280361
C85   C     C_3   0.878421 0.159636 0.155470 -0.812306
H82   H     H_    0.844621 0.132382 0.207518 0.308572
H83   H     H_    0.851880 0.173171 0.033984 0.292873
H84   H     H_    0.891431 0.197985 0.232931 0.200377
N6    N     N_2   0.927757 0.869342 0.636320 -0.093619
H85   H     H_    0.916101 0.911721 0.605178 0.295511
C86   C     C_3   0.867913 0.836714 0.636464 -0.836671
H86   H     H_    0.835265 0.862054 0.696451 0.302978
H87   H     H_    0.881004 0.796893 0.705538 0.213898
H88   H     H_    0.840433 0.826353 0.513570 0.292514
N7    N     N_2   0.432222 0.629526 0.145558 -0.075721
H89   H     H_    0.458998 0.611134 0.249149 0.229600
C87   C     C_3   0.373190 0.659730 0.164449 -0.775754
H90   H     H_    0.341435 0.630260 0.216226 0.309043
H91   H     H_    0.343604 0.675631 0.048064 0.284143
H92   H     H_    0.387895 0.696425 0.247329 0.186239
N8    N     N_2   0.433602 0.373396 0.659446 -0.087861
H93   H     H_    0.419888 0.414708 0.620516 0.286733
C88   C     C_3   0.376177 0.340893 0.680013 -0.840797
H94   H     H_    0.343888 0.368610 0.735208 0.307939
H95   H     H_    0.393281 0.304560 0.762158 0.212007
H96   H     H_    0.346585 0.324817 0.563694 0.276982
N9    N     N_2   0.167321 0.796102 0.830057 -0.112457
H97   H     H_    0.154189 0.793771 0.708082 0.232830
C89   C     C_3   0.145827 0.848671 0.894742 -0.954492
H98   H     H_    0.158620 0.886620 0.828706 0.265280
H99   H     H_    0.171039 0.854332 0.021676 0.273922
H100  H     H_    0.091402 0.848160 0.883731 0.256969
N10   N     N_2   0.204972 0.235683 0.288816 -0.135253
H101  H     H_    0.170471 0.216125 0.198053 0.233398
C90   C     C_3   0.258971 0.264788 0.238775 -0.595932
H102  H     H_    0.265184 0.245760 0.125573 0.254024
H103  H     H_    0.306316 0.259997 0.330707 0.244343
H104  H     H_    0.247968 0.311501 0.218437 0.259207
N11   N     N_2   0.670766 0.293873 0.825591 -0.115182
H105  H     H_    0.659343 0.290002 0.703816 0.231009
C91   C     C_3   0.646187 0.346655 0.881859 -0.977735
H106  H     H_    0.652515 0.383048 0.803533 0.260056
H107  H     H_    0.674274 0.357830 0.003586 0.292523
H108  H     H_    0.592770 0.342501 0.880594 0.258952
N12   N     N_2   0.701760 0.733141 0.291793 -0.141393
H109  H     H_    0.666494 0.713542 0.202765 0.197862
C92   C     C_3   0.755670 0.760907 0.238108 -0.667072
H110  H     H_    0.759062 0.742370 0.122047 0.240552
H111  H     H_    0.803674 0.753754 0.325770 0.253664
H112  H     H_    0.746999 0.808153 0.222356 0.271669
N13   N     N_2   0.935152 0.389205 0.327377 -0.154922
H113  H     H_    0.969231 0.397769 0.261191 0.190475
C93   C     C_3   0.915323 0.437060 0.410481 -0.458078
H114  H     H_    0.961479 0.454723 0.484979 0.271068
H115  H     H_    0.882318 0.423766 0.488943 0.252764
H116  H     H_    0.887131 0.469284 0.328222 0.236159
N14   N     N_2   0.932634 0.610076 0.812804 -0.117518
H117  H     H_    0.974734 0.633512 0.860138 0.143773
C94   C     C_3   0.916999 0.563568 0.908564 -0.478561
H118  H     H_    0.964006 0.547487 0.982622 0.275284
H119  H     H_    0.890163 0.529011 0.832914 0.227084
H120  H     H_    0.883911 0.576782 0.986868 0.218978
N15   N     N_2   0.434534 0.889014 0.326794 -0.150423
H121  H     H_    0.468644 0.897232 0.260451 0.196419
C95   C     C_3   0.415546 0.936933 0.411157 -0.498088
H122  H     H_    0.461888 0.954107 0.486154 0.280661
H123  H     H_    0.382085 0.923908 0.488877 0.247268
H124  H     H_    0.388300 0.969674 0.329717 0.228423
N16   N     N_2   0.432791 0.109947 0.810965 -0.118120
H125  H     H_    0.474934 0.132968 0.859896 0.144801
C96   C     C_3   0.415984 0.063862 0.906746 -0.468858
H126  H     H_    0.462676 0.047402 0.981732 0.273736
H127  H     H_    0.388671 0.029488 0.831431 0.222722
H128  H     H_    0.382677 0.077537 0.983845 0.235841
N17   N     N_2   0.045177 0.121003 0.087461 -0.069690
H129  H     H_    0.039628 0.085788 0.012019 0.208344
C97   C     C_3   0.081824 0.107226 0.247814 -0.848752
H130  H     H_    0.130404 0.087431 0.244271 0.254698
H131  H     H_    0.053099 0.075949 0.303608 0.252325
H132  H     H_    0.093245 0.146708 0.321900 0.227239
N18   N     N_2   0.033615 0.881763 0.573554 -0.116945
H133  H     H_    0.076385 0.862513 0.556049 0.228138
C98   C     C_3   0.022099 0.937734 0.496623 -0.825812
H134  H     H_    0.069738 0.957042 0.485027 0.229108
H135  H     H_    0.000139 0.967882 0.569974 0.293498
H136  H     H_    0.989697 0.933667 0.375071 0.296308
N19   N     N_2   0.521248 0.620109 0.012384 -0.082659
H137  H     H_    0.499626 0.590067 0.927468 0.240193
C99   C     C_3   0.572012 0.594419 0.138440 -0.860691
H138  H     H_    0.609761 0.573030 0.085099 0.224895
H139  H     H_    0.549612 0.561098 0.202855 0.272181
H140  H     H_    0.598502 0.627462 0.223090 0.245658
N20   N     N_2   0.537553 0.379907 0.582498 -0.117034
H141  H     H_    0.575324 0.358878 0.545806 0.227548
C100  C     C_3   0.530238 0.438554 0.522090 -0.797764
H142  H     H_    0.579867 0.455711 0.514941 0.269716
H143  H     H_    0.510793 0.467089 0.603956 0.294567
H144  H     H_    0.496982 0.439716 0.401017 0.289274
Br13  Br    Br    0.252993 0.433459 0.459883 -0.653660
Br14  Br    Br    0.251827 0.567036 0.957842 -0.623941
Br15  Br    Br    0.751938 0.934536 0.459712 -0.652669
Br16  Br    Br    0.751465 0.066844 0.958592 -0.636578
N21   N     N_2   0.197012 0.451952 0.138240 -0.117672
H145  H     H_    0.218506 0.420010 0.083776 0.210122
C101  C     C_3   0.139726 0.431190 0.188517 -0.561595
H146  H     H_    0.154155 0.389465 0.237402 0.206580
H147  H     H_    0.096728 0.431111 0.089337 0.312136
H148  H     H_    0.126348 0.456606 0.285604 0.216894
N22   N     N_2   0.197573 0.547987 0.635503 -0.116737
H149  H     H_    0.219473 0.578857 0.578161 0.220096
C102  C     C_3   0.140652 0.570083 0.684244 -0.556968
H150  H     H_    0.155431 0.612819 0.728902 0.218998
H151  H     H_    0.126962 0.545074 0.781747 0.213188
H152  H     H_    0.097201 0.569226 0.586328 0.309304
N23   N     N_2   0.696110 0.951679 0.138019 -0.118019
H153  H     H_    0.717609 0.919559 0.084178 0.210957
C103  C     C_3   0.638924 0.930875 0.188540 -0.566723
H154  H     H_    0.653244 0.888999 0.237191 0.208502
H155  H     H_    0.596063 0.931059 0.089195 0.312735
H156  H     H_    0.625533 0.956397 0.285416 0.218055
N24   N     N_2   0.696810 0.048673 0.636280 -0.117197
H157  H     H_    0.718650 0.080101 0.580445 0.218474
C104  C     C_3   0.639778 0.070248 0.685332 -0.555148
H158  H     H_    0.654170 0.112984 0.730313 0.219516
H159  H     H_    0.626252 0.045007 0.782655 0.213790
H160  H     H_    0.596568 0.069223 0.586899 0.310584

loop_
_geom_bond_atom_site_label_1
_geom_bond_atom_site_label_2
_geom_bond_distance
_ccdc_geom_bond_type
N6    C86   1.441213 S    
C102  H150  1.076242 S    
C2    C30   1.530264 S    
C98   H135  1.108185 S    
C24   C28   1.515233 S    
N12   H109  1.029502 S    
P5    O37   1.835797 S    
C45   C75   1.570427 S    
C46   C76   1.570089 S    
P7    O39   1.833207 S    
N14   C94   1.437162 S    
C63   C79   1.399293 A    
N19   H137  1.031126 S    
P8    O40   1.826223 S    
C90   H104  1.108577 S    
P9    O33   1.549645 D    
C43   N11   1.425802 S    
C61   C77   1.399536 A    
O23   P16   1.750989 S    
C38   C42   1.418285 A    
C19   H23   1.077250 S    
O10   Ba2   2.881342 S    
C9    N17   1.459203 S    
O9    P14   1.794102 S    
C1    H1    1.109885 S    
C14   N22   1.420343 S    
C70   H54   1.070162 S    
O14   P13   1.539945 D    
C33   C37   1.416817 A    
C20   Br8   1.951475 S    
O12   Ba4   2.881342 S    
C36   C40   1.416662 A    
C6    H10   1.110776 S    
C25   H37   1.111790 S    
C52   H60   1.077321 S    
P12   O36   1.551834 D    
C66   C78   1.390621 A    
C35   C39   1.413807 A    
P4    O8    1.614555 S    
Ba3   O48   3.012615 S    
C64   C80   1.402060 A    
C104  H160  1.077358 S    
C3    H47   1.109773 S    
Ba1   O46   3.012615 S    
N15   C95   1.430542 S    
C22   C26   1.527811 S    
P5    O25   1.578559 D    
N1    C81   1.447315 S    
C49   C53   1.436509 A    
O1    Ba1   2.887483 S    
N16   C96   1.438793 S    
C97   H130  1.107375 S    
C12   H20   1.106346 S    
C48   C52   1.456751 A    
C99   H139  1.110245 S    
P1    C65   1.942644 S    
C51   C55   1.436980 A    
O15   P16   1.542088 D    
C57   H49   1.078554 S    
C12   N8    1.459055 S    
C70   C74   1.456618 A    
C96   H128  1.108962 S    
C81   H66   1.110356 S    
N23   C103  1.429140 S    
N22   H149  1.029354 S    
O44   C8    1.398681 S    
O19   C23   1.401067 S    
C28   H40   1.109533 S    
C19   Br3   1.933713 S    
O4    Ba4   2.894473 S    
C8    C12   1.548470 S    
P12   C39   1.904237 S    
C58   H50   1.076567 S    
C88   H95   1.103476 S    
C10   N6    1.458535 S    
P1    Ba1   3.464623 S    
N18   C98   1.448413 S    
P3    Ba3   3.464623 S    
C87   H91   1.110502 S    
P10   C37   1.909968 S    
Ba2   O46   2.903866 S    
C26   Br10  1.935347 S    
C4    C32   1.534929 S    
C27   H35   1.110713 S    
C92   H112  1.109386 S    
N11   C91   1.448493 S    
C41   N9    1.426477 S    
O42   C6    1.395994 S    
P4    Ba4   3.467869 S    
N10   C90   1.446694 S    
P14   C61   1.883020 S    
C6    C10   1.545414 S    
P3    O7    1.609691 S    
P11   O35   1.549983 D    
C99   H138  1.109366 S    
N13   H113  1.022486 S    
C60   C76   1.424105 A    
C32   N4    1.456578 S    
N17   H129  1.031795 S    
P9    C38   1.908094 S    
O40   C15   1.428565 S    
O11   Ba3   2.878625 S    
C49   H57   1.078291 S    
C45   C49   1.457810 A    
C1    H45   1.107732 S    
N21   H145  1.030345 S    
O24   P15   1.748503 S    
C5    H13   1.108094 S    
C101  H146  1.067047 S    
C7    H15   1.110554 S    
C101  H148  1.111339 S    
C34   C54   1.405830 A    
C2    H6    1.107859 S    
N5    H81   1.031173 S    
C82   H70   1.110549 S    
C33   C53   1.401062 A    
C34   H62   1.071220 S    
C21   H29   1.103963 S    
N12   C92   1.446662 S    
N7    H89   1.028149 S    
C36   C56   1.404553 A    
P13   C62   1.897227 S    
P2    Ba2   3.467869 S    
C16   C20   1.568214 S    
C35   C55   1.397715 A    
C86   H86   1.108593 S    
C26   H34   1.110366 S    
C27   Br11  1.939633 S    
C31   H43   1.115043 S    
C80   N16   1.392141 S    
C17   Br1   1.933875 S    
C94   H119  1.094174 S    
Ba4   O47   3.013798 S    
C84   H78   1.109354 S    
P6    O38   1.831440 S    
P8    O28   1.578858 D    
O2    Ba2   2.894473 S    
P9    O29   1.755341 S    
O3    Ba3   2.887483 S    
P10   O34   1.552182 D    
N13   C93   1.430102 S    
C48   C74   1.573661 S    
N9    H97   1.027352 S    
C7    C11   1.537178 S    
C100  H143  1.109262 S    
C2    H2    1.107711 S    
C39   C43   1.422453 A    
C40   C44   1.418996 A    
C89   H100  1.101146 S    
C81   H68   1.108947 S    
C16   Br16  1.959517 S    
C85   H84   1.104090 S    
O11   P16   1.793755 S    
C72   H56   1.073671 S    
O23   C31   1.408154 S    
C97   H131  1.110994 S    
O21   C29   1.407530 S    
P2    O18   1.757534 S    
C92   H110  1.108670 S    
C93   H115  1.109219 S    
C103  H154  1.069120 S    
C91   H107  1.105840 S    
C59   H51   1.078759 S    
P6    O26   1.578858 D    
N22   C102  1.430060 S    
C30   N2    1.456021 S    
C50   C54   1.436578 A    
C95   H123  1.109805 S    
C15   Br15  1.958067 S    
C103  H156  1.111275 S    
C11   N7    1.451643 S    
C17   H21   1.074211 S    
O13   P14   1.541640 D    
O37   C14   1.433348 S    
C21   H25   1.110637 S    
C83   H75   1.108051 S    
C23   H27   1.105795 S    
N8    H93   1.029837 S    
C4    H4    1.105604 S    
C69   C73   1.457187 A    
O10   P13   1.786318 S    
C90   H103  1.109453 S    
C72   C76   1.456849 A    
C86   H88   1.106443 S    
C8    H16   1.104839 S    
C17   Br5   1.943575 S    
P9    O41   1.737915 S    
C20   H24   1.078548 S    
N3    C83   1.449068 S    
P6    O45   1.616234 S    
C13   C17   1.563801 S    
C93   H116  1.098235 S    
C15   C19   1.562064 S    
C60   C64   1.409848 A    
C28   Br12  1.935114 S    
P3    C67   1.946151 S    
C9    H17   1.109932 S    
C77   N13   1.393682 S    
C104  H159  1.111103 S    
Ba1   O45   2.896961 S    
C11   H19   1.110936 S    
Ba1   Ba2   4.763031 S    
C89   H98   1.110079 S    
C87   H90   1.106486 S    
N1    H65   1.030954 S    
C62   C78   1.406744 A    
P16   C63   1.887298 S    
P1    O1    1.579049 D    
C44   C48   1.434543 A    
C33   H61   1.072099 S    
P15   C64   1.886188 S    
P10   O42   1.739397 S    
C82   H72   1.107791 S    
P3    O3    1.579049 D    
O25   Ba1   2.897432 S    
P5    O46   1.621175 S    
P4    O20   1.746057 S    
C78   N14   1.391294 S    
P11   C40   1.908040 S    
C18   H22   1.076123 S    
O27   Ba3   2.897432 S    
O38   C13   1.431092 S    
C71   H55   1.071981 S    
C66   C70   1.425618 A    
C69   H53   1.071119 S    
C96   H127  1.093309 S    
C46   C50   1.456772 A    
O29   Ba1   2.881226 S    
O5    Ba2   2.897837 S    
C67   C79   1.401558 A    
N10   H101  1.029808 S    
C16   N24   1.419694 S    
C5    H9    1.112173 S    
O7    Ba4   2.897837 S    
O20   C24   1.397769 S    
C65   C77   1.399906 A    
C58   C62   1.411917 A    
C8    H12   1.112222 S    
C36   H64   1.071772 S    
N16   H125  1.018767 S    
C102  H151  1.111035 S    
C88   H94   1.109329 S    
C13   N21   1.418599 S    
C20   Br4   1.935984 S    
C21   C25   1.532360 S    
C60   H52   1.076499 S    
C23   C27   1.521153 S    
C14   C18   1.571048 S    
N19   C99   1.449891 S    
P1    O5    1.609691 S    
O32   Ba4   2.878544 S    
O8    Ba3   2.904740 S    
C85   H82   1.107151 S    
C30   H42   1.106799 S    
N2    H69   1.028766 S    
C68   C80   1.389247 A    
C24   H28   1.097318 S    
C93   H114  1.092448 S    
N11   H105  1.027943 S    
P6    C53   1.955388 S    
C67   C71   1.423824 A    
N20   H141  1.028909 S    
P10   O30   1.760631 S    
C91   H108  1.100154 S    
N24   C104  1.429108 S    
P12   O44   1.740081 S    
O21   P14   1.749580 S    
C58   C74   1.427131 A    
O26   Ba2   2.890347 S    
C3    H3    1.106823 S    
C41   C45   1.440842 A    
C29   H41   1.112712 S    
O28   Ba4   2.890347 S    
O30   Ba2   2.878544 S    
O6    Ba1   2.904740 S    
C32   H44   1.112073 S    
O22   C30   1.409444 S    
C99   H140  1.106917 S    
C101  H147  1.078268 S    
C4    H48   1.107451 S    
C25   Br9   1.934354 S    
C1    C29   1.532730 S    
P5    C54   1.956788 S    
C31   N3    1.458262 S    
C24   H32   1.112004 S    
P8    C55   1.953164 S    
N18   H133  1.029542 S    
C10   H18   1.108815 S    
N8    C88   1.443067 S    
P7    O27   1.578559 D    
O41   C5    1.396292 S    
P5    Ba1   3.469842 S    
O43   C7    1.397377 S    
C37   C41   1.424107 A    
P7    Ba3   3.469842 S    
C5    C9    1.537653 S    
N4    C84   1.444022 S    
C52   C56   1.437030 A    
C92   H111  1.107962 S    
C94   H118  1.093440 S    
Ba4   O48   2.903866 S    
C88   H96   1.109960 S    
C1    H5    1.107872 S    
Ba3   Ba4   4.763031 S    
C50   H58   1.077124 S    
O17   C21   1.400911 S    
C87   H92   1.104537 S    
C95   H122  1.092792 S    
P1    O17   1.753434 S    
C6    H14   1.102053 S    
C98   H134  1.100939 S    
P3    O19   1.746040 S    
N24   H157  1.030127 S    
O24   C32   1.406456 S    
Ba2   O45   3.013798 S    
P4    O4    1.578752 D    
P8    Ba4   3.466497 S    
N15   H121  1.022514 S    
P8    O47   1.616234 S    
C35   H63   1.070825 S    
C22   H30   1.102438 S    
P7    O48   1.621175 S    
C89   H99   1.106468 S    
C81   H67   1.107885 S    
C59   C75   1.425149 A    
C85   H83   1.110148 S    
C13   Br13  1.964380 S    
O31   Ba3   2.881226 S    
P2    C66   1.939871 S    
C25   H33   1.110131 S    
C79   N15   1.394383 S    
N9    C89   1.449912 S    
C18   Br2   1.938355 S    
C83   H74   1.110288 S    
N17   C97   1.450917 S    
O39   C16   1.433239 S    
C71   C75   1.457509 A    
C12   N20   1.460951 S    
N21   C101  1.429623 S    
N14   H117  1.020226 S    
C103  H155  1.077368 S    
P2    O2    1.578752 D    
P6    Ba2   3.466497 S    
P11   O43   1.738760 S    
C84   H80   1.095408 S    
C2    H46   1.107115 S    
N5    C85   1.446145 S    
C47   C73   1.570434 S    
N7    C87   1.444686 S    
C65   C69   1.423822 A    
C59   C63   1.410934 A    
C90   H102  1.107895 S    
O18   C22   1.406623 S    
C68   C72   1.425799 A    
C86   H87   1.096138 S    
C51   H59   1.078228 S    
C47   C51   1.458386 A    
N2    C82   1.447049 S    
C15   N23   1.418335 S    
C57   C61   1.410535 A    
C94   H120  1.110355 S    
N3    H73   1.029766 S    
C10   N18   1.460784 S    
C11   N19   1.459223 S    
P4    C68   1.934251 S    
C84   H79   1.106198 S    
C23   H31   1.117611 S    
N20   C100  1.447238 S    
C91   H106  1.105821 S    
C98   H136  1.108904 S    
C43   C47   1.440838 A    
C14   Br14  1.960695 S    
O9    Ba1   2.878625 S    
N6    H85   1.029190 S    
P2    O6    1.614555 S    
C44   N12   1.420704 S    
P11   O31   1.755320 S    
C104  H158  1.075566 S    
C22   H26   1.110734 S    
C100  H144  1.108995 S    
P12   O32   1.757595 S    
C29   N1    1.455373 S    
C9    N5    1.455338 S    
P7    C56   1.953942 S    
C102  H152  1.077814 S    
N23   H153  1.030359 S    
C3    C31   1.533589 S    
C97   H132  1.106819 S    
C18   Br6   1.953210 S    
C82   H71   1.097768 S    
O22   P13   1.754455 S    
C7    H11   1.112948 S    
C42   N10   1.421222 S    
Ba3   O47   2.896961 S    
C57   C73   1.424772 A    
C3    H7    1.106593 S    
C4    H8    1.106457 S    
O16   P15   1.538992 D    
C96   H126  1.094703 S    
C42   C46   1.432120 A    
C83   H76   1.108924 S    
C34   C38   1.418739 A    
C95   H124  1.095482 S    
C19   Br7   1.941427 S    
N4    H77   1.029290 S    
C100  H142  1.108898 S    
C26   H38   1.106318 S    
O12   P15   1.793989 S    
C28   H36   1.110316 S    
C27   H39   1.108226 S    
