data_mof_unit_16570.cif
_audit_creation_date              2012-12-10T18:10:55-0500
_audit_creation_method            fapswitch 2.2
_symmetry_space_group_name_H-M    P1
_symmetry_Int_Tables_number       1
_space_group_crystal_system       triclinic
_cell_length_a                    12.608338
_cell_length_b                    13.146047
_cell_length_c                    15.747655
_cell_angle_alpha                 91.591518
_cell_angle_beta                  102.945031
_cell_angle_gamma                 81.977547
_cell_volume                      2518.92254023

loop_
_atom_site_label
_atom_site_type_symbol
_atom_type_description
_atom_site_fract_x
_atom_site_fract_y
_atom_site_fract_z
_atom_type_partial_charge
C1    C     C_R   0.438608 0.691094 0.485904 0.852760
C2    C     C_R   0.598553 0.198626 0.513688 -0.126763
C3    C     C_R   0.295146 0.839212 0.487529 -0.189171
C4    C     C_R   0.500873 0.501623 0.661528 0.904648
C5    C     C_R   0.265046 0.944375 0.492906 -0.141938
C6    C     C_R   0.340968 0.010993 0.490634 -0.184691
C7    C     C_R   0.447503 0.973010 0.478202 0.114021
C8    C     C_R   0.469950 0.868555 0.457684 0.081932
C9    C     C_R   0.532989 0.034401 0.486214 0.024027
C10   C     C_R   0.634047 0.994254 0.464038 0.036543
C11   C     C_R   0.645355 0.895996 0.428517 -0.216295
C12   C     C_3   0.377521 0.545509 0.026103 -0.359670
C13   C     C_R   0.563704 0.834456 0.424223 -0.178325
C14   C     C_R   0.520848 0.134637 0.516470 -0.255530
C15   C     C_R   0.701492 0.157633 0.499333 -0.314736
C16   C     C_R   0.561435 0.308605 0.511637 0.884419
C17   C     C_R   0.398989 0.800559 0.472931 -0.111058
C18   C     C_R   0.089960 0.344037 0.379370 -0.255840
C19   C     C_R   0.798173 0.633604 0.599775 0.034150
C20   C     C_R   0.900513 0.666845 0.616952 -0.274221
C21   C     C_R   0.981463 0.618005 0.576941 -0.175207
C22   C     C_R   0.960144 0.534927 0.519361 0.018318
C23   C     C_3   0.494886 0.513201 0.081715 0.266552
C24   C     C_R   0.853881 0.505317 0.502910 0.181301
C25   C     C_R   0.039785 0.480081 0.478223 -0.085119
C26   C     C_R   0.010707 0.399203 0.419096 0.081019
C27   C     C_R   0.903745 0.373655 0.400662 0.417760
C28   C     C_R   0.498385 0.500684 0.338275 0.890556
C29   C     C_R   0.827819 0.425235 0.444828 -0.333902
C30   C     C_R   0.148890 0.500656 0.494938 -0.011889
C31   C     C_R   0.195965 0.368286 0.398862 -0.015696
C32   C     C_3   0.380226 0.546390 0.928517 -0.393812
C33   C     C_3   0.573499 0.590434 0.966958 -0.418011
C34   C     C_3   0.537754 0.404500 0.052826 -0.506659
C35   C     C_3   0.573023 0.588845 0.065335 0.258157
C36   C     C_1   0.494094 0.505507 0.248560 -0.162081
C37   C     C_3   0.499149 0.513853 0.917150 0.291737
C38   C     C_3   0.887846 0.956032 0.523128 0.072946
C39   C     C_3   0.964343 0.020504 0.584315 -0.343885
C40   C     C_3   0.047169 0.953340 0.652993 -0.971017
C41   C     C_3   0.782161 0.306355 0.284629 0.057028
C42   C     C_3   0.703195 0.234083 0.300423 -0.309694
C43   C     C_3   0.610598 0.223317 0.221479 -0.970460
C44   C     C_3   0.541259 0.405084 0.955777 -0.393434
C45   C     C_1   0.493092 0.509848 0.173073 -0.058035
C46   C     C_1   0.501210 0.512063 0.825978 -0.096678
C47   C     C_1   0.501940 0.507576 0.750724 -0.182784
C48   C     C_R   0.720818 0.054524 0.476077 0.486383
Cl1   Cl    Cl    0.536693 0.716335 0.103201 -0.643960
H1    H     H_    0.343077 0.622878 0.045649 0.216615
H2    H     H_    0.184338 0.974176 0.502916 0.153660
H3    H     H_    0.348643 0.624769 0.901139 0.183636
H4    H     H_    0.575126 0.759535 0.394792 0.188097
H5    H     H_    0.257989 0.326263 0.368855 0.141310
H6    H     H_    0.070800 0.282479 0.333785 0.190945
H7    H     H_    0.178878 0.559308 0.539246 0.119498
H8    H     H_    0.734421 0.671769 0.629992 0.138144
H9    H     H_    0.059018 0.647543 0.591942 0.131041
H10   H     H_    0.916922 0.730550 0.660745 0.147034
H11   H     H_    0.749297 0.400048 0.433954 0.217515
H12   H     H_    0.324982 0.492958 0.892340 0.173816
H13   H     H_    0.659125 0.569194 0.958493 0.147573
H14   H     H_    0.544177 0.668873 0.939082 0.213538
H15   H     H_    0.657903 0.561846 0.102610 0.105574
H16   H     H_    0.489621 0.348573 0.920020 0.185019
H17   H     H_    0.627007 0.380604 0.948662 0.174703
H18   H     H_    0.483062 0.348620 0.063048 0.202476
H19   H     H_    0.938685 0.895430 0.493453 0.171508
H20   H     H_    0.841507 0.915072 0.560978 0.122462
H21   H     H_    0.009266 0.061512 0.545852 0.236326
H22   H     H_    0.915041 0.078636 0.617514 0.219518
H23   H     H_    0.321862 0.490811 0.036905 0.164898
H24   H     H_    0.003861 0.913615 0.693584 0.264512
H25   H     H_    0.101910 0.002007 0.695911 0.273316
H26   H     H_    0.098362 0.895110 0.621424 0.258134
H27   H     H_    0.803413 0.287895 0.220675 0.166827
H28   H     H_    0.741141 0.387532 0.279934 0.123482
H29   H     H_    0.749633 0.156616 0.318194 0.282823
H30   H     H_    0.665788 0.264566 0.354735 0.201208
H31   H     H_    0.554206 0.296372 0.209778 0.260072
H32   H     H_    0.562970 0.162802 0.234521 0.281785
H33   H     H_    0.643610 0.201250 0.162855 0.270751
H34   H     H_    0.621729 0.378576 0.092242 0.174442
H35   H     H_    0.764122 0.206575 0.500281 0.186835
H36   H     H_    0.718038 0.865519 0.405323 0.188315
H37   H     H_    0.448520 0.166954 0.538613 0.164060
H38   H     H_    0.238456 0.788185 0.497341 0.151501
H39   H     H_    0.313016 0.091516 0.497188 0.133604
N1    N     N_R   0.222200 0.444690 0.455710 -0.100239
N2    N     N_R   0.776960 0.554780 0.543830 -0.115514
O1    O     O_R   0.366740 0.627160 0.478850 -0.614750
O2    O     O_3   0.880909 0.287995 0.349467 -0.643064
O3    O     O_R   0.544830 0.662520 0.507140 -0.624617
O4    O     O_R   0.410920 0.482310 0.608710 -0.614313
O5    O     O_R   0.589010 0.517670 0.637000 -0.611125
O6    O     O_R   0.455170 0.337480 0.492860 -0.615941
O7    O     O_R   0.633260 0.372840 0.521150 -0.638583
O8    O     O_R   0.410990 0.482330 0.363000 -0.606019
O9    O     O_R   0.589080 0.517690 0.391290 -0.634264
O10   O     O_3   0.819707 0.017831 0.454483 -0.652480
Zn1   Zn    Zn3+2 0.381090 0.476390 0.481110 0.942947
Zn2   Zn    Zn3+2 0.618910 0.523610 0.518890 0.927693

loop_
_geom_bond_atom_site_label_1
_geom_bond_atom_site_label_2
_ccdc_geom_bond_type
C8    C13   A    
C23   C45   S    
C27   C29   A    
C41   C42   S    
C44   H17   S    
C19   C20   A    
C18   C26   A    
C7    C8    A    
C19   H8    S    
C12   C23   S    
C26   C27   A    
C32   H12   S    
C41   H28   S    
C38   C39   S    
C16   O7    A    
C6    H39   S    
C40   H24   S    
C24   C29   A    
C32   H3    S    
N2    Zn2   S    
O4    Zn1   S    
C33   H13   S    
C31   N1    A    
C22   C25   A    
C35   Cl1   S    
C35   H15   S    
C2    C16   S    
C9    C10   A    
O7    Zn2   S    
O5    Zn2   S    
C12   H23   S    
C38   H20   S    
C42   H30   S    
C1    O1    A    
C21   C22   A    
C12   C32   S    
C44   H16   S    
C15   C48   A    
O1    Zn1   S    
C30   N1    A    
C13   H4    S    
C48   O10   S    
C16   O6    A    
C3    H38   S    
C27   O2    S    
C34   C44   S    
C14   H37   S    
C38   O10   S    
C39   C40   S    
C43   H31   S    
C30   H7    S    
C33   C37   S    
O3    Zn2   S    
C9    C14   A    
C4    O5    A    
C29   H11   S    
C33   H14   S    
C23   C34   S    
C41   O2    S    
C36   C45   T    
C32   C37   S    
C20   H10   S    
C2    C15   A    
C6    C7    A    
C18   H6    S    
C4    O4    A    
C28   O9    A    
C38   H19   S    
C42   H29   S    
C23   C35   S    
C10   C48   A    
C43   H32   S    
C22   C24   A    
C42   C43   S    
C28   O8    A    
C25   C30   A    
C7    C9    A    
C46   C47   T    
N1    Zn1   S    
C3    C5    A    
C24   N2    A    
C34   H18   S    
C12   H1    S    
C15   H35   S    
O8    Zn1   S    
C1    C17   S    
C8    C17   A    
C40   H26   S    
C37   C44   S    
C25   C26   A    
C21   H9    S    
C19   N2    A    
C41   H27   S    
C11   C13   A    
C5    C6    A    
C11   H36   S    
C33   C35   S    
C39   H21   S    
C40   H25   S    
C3    C17   A    
C31   H5    S    
C2    C14   A    
C10   C11   A    
O9    Zn2   S    
C20   C21   A    
C28   C36   S    
C1    O3    A    
C34   H34   S    
C43   H33   S    
C39   H22   S    
C5    H2    S    
C18   C31   A    
C37   C46   S    
O6    Zn1   S    
C4    C47   S    
