data_mof_unit_25059.cif
_audit_creation_date              2012-12-10T19:11:34-0500
_audit_creation_method            fapswitch 2.2
_symmetry_space_group_name_H-M    P1
_symmetry_Int_Tables_number       1
_space_group_crystal_system       triclinic
_cell_length_a                    7.787969
_cell_length_b                    9.095618
_cell_length_c                    17.210086
_cell_angle_alpha                 90.00021
_cell_angle_beta                  86.011906
_cell_angle_gamma                 89.999535
_cell_volume                      1216.14835906

loop_
_atom_site_label
_atom_site_type_symbol
_atom_type_description
_atom_site_fract_x
_atom_site_fract_y
_atom_site_fract_z
_atom_type_partial_charge
C1    C     C_R   0.499999 0.779964 0.500000 0.843565
C2    C     C_R   0.414195 0.621383 0.233831 -0.235693
C3    C     C_R   0.570661 0.657827 0.845308 0.013498
C4    C     C_R   0.429136 0.657732 0.154693 0.013512
C5    C     C_R   0.439794 0.589060 0.894109 0.093499
C6    C     C_R   0.560126 0.589128 0.105892 0.093477
C7    C     C_R   0.317983 0.498870 0.861120 -0.144968
C8    C     C_R   0.682077 0.499081 0.138880 -0.144844
C9    C     C_R   0.329692 0.469987 0.781586 -0.157860
C10   C     C_R   0.670395 0.470174 0.218412 -0.157797
C11   C     C_2   0.429503 0.599490 0.979714 -0.120905
C12   C     C_R   0.500000 0.220035 0.500000 0.847219
C13   C     C_2   0.570407 0.599579 0.020287 -0.120913
C14   C     C_2   0.314658 0.774365 0.126929 0.815896
C15   C     C_2   0.684915 0.774628 0.873071 0.815929
C16   C     C_1   0.499999 0.934623 0.500000 -0.162999
C17   C     C_1   0.500000 0.065365 0.500000 -0.166104
C18   C     C_R   0.477873 0.503377 0.650470 0.792990
C19   C     C_R   0.522126 0.503387 0.349529 0.793011
C20   C     C_R   0.466087 0.528159 0.734324 -0.049760
C21   C     C_R   0.533901 0.528190 0.265676 -0.049823
C22   C     C_R   0.585653 0.621488 0.766168 -0.235666
Cu1   Cu    Cu3+1 0.330920 0.500000 0.500000 1.016581
Cu2   Cu    Cu3+1 0.669080 0.500000 0.500000 1.016589
H1    H     H_    0.215487 0.447726 0.897430 0.139561
H2    H     H_    0.713202 0.947156 0.944776 0.344086
H3    H     H_    0.784664 0.448060 0.102570 0.139562
H4    H     H_    0.685306 0.672663 0.728154 0.180874
H5    H     H_    0.314450 0.672448 0.271840 0.180896
H6    H     H_    0.765643 0.400231 0.242755 0.154434
H7    H     H_    0.234550 0.399943 0.757239 0.154413
H8    H     H_    0.696648 0.588843 0.989778 0.139190
H9    H     H_    0.303282 0.588584 0.010224 0.139159
H10   H     H_    0.286079 0.946903 0.055263 0.344088
N1    N     N_1   0.923170 0.500000 0.500010 -0.043902
N2    N     N_1   0.076830 0.500000 0.499990 -0.043904
O1    O     O_R   0.357240 0.711600 0.500000 -0.576426
O2    O     O_R   0.375894 0.872198 0.068794 -0.705824
O3    O     O_2   0.831447 0.788258 0.843441 -0.597815
O4    O     O_R   0.623526 0.872333 0.931240 -0.705838
O5    O     O_R   0.642760 0.288400 0.500000 -0.575824
O6    O     O_R   0.642760 0.711600 0.500000 -0.576424
O7    O     O_R   0.357240 0.288400 0.500000 -0.575827
O8    O     O_R   0.340660 0.500000 0.613590 -0.579577
O9    O     O_R   0.659340 0.500000 0.386410 -0.579589
O10   O     O_R   0.626230 0.500000 0.613600 -0.582934
O11   O     O_R   0.373770 0.500000 0.386400 -0.582956
O12   O     O_2   0.168065 0.787739 0.156528 -0.597857

loop_
_geom_bond_atom_site_label_1
_geom_bond_atom_site_label_2
_ccdc_geom_bond_type
C12   C17   S    
C2    C4    A    
Cu1   Cu2   S    
C19   O9    A    
C12   O5    A    
C18   O8    A    
C14   O2    S    
Cu2   O6    S    
C10   H6    S    
C13   H8    S    
N1    N2    T    
C7    H1    S    
C1    O1    A    
C15   O3    D    
C2    C21   A    
Cu2   O10   S    
C1    C16   S    
C22   H4    S    
C6    C13   S    
Cu2   O5    S    
C11   C13   D    
H2    O4    S    
C2    H5    S    
Cu2   O9    S    
C18   O10   A    
C4    C6    A    
C19   C21   S    
C20   C22   A    
C5    C11   S    
C12   O7    A    
C18   C20   S    
C10   C21   A    
C4    C14   S    
C19   O11   A    
C15   O4    S    
Cu2   N1    S    
Cu1   O11   S    
C9    H7    S    
C1    O6    A    
C11   H9    S    
Cu1   O7    S    
C8    C10   A    
Cu1   N2    S    
C7    C9    A    
C8    H3    S    
C14   O12   D    
C5    C7    A    
C3    C15   S    
C6    C8    A    
C9    C20   A    
C3    C5    A    
Cu1   O1    S    
Cu1   O8    S    
C16   C17   T    
C3    C22   A    
H10   O2    S    
