data_mof_unit_18488.cif
_audit_creation_date              2012-12-10T18:00:46-0500
_audit_creation_method            fapswitch 2.2
_symmetry_space_group_name_H-M    P1
_symmetry_Int_Tables_number       1
_space_group_crystal_system       triclinic
_cell_length_a                    15.886292
_cell_length_b                    10.874423
_cell_length_c                    9.542836
_cell_angle_alpha                 89.877825
_cell_angle_beta                  91.915265
_cell_angle_gamma                 90.399581
_cell_volume                      1647.60154409

loop_
_atom_site_label
_atom_site_type_symbol
_atom_type_description
_atom_site_fract_x
_atom_site_fract_y
_atom_site_fract_z
_atom_type_partial_charge
C1    C     C_R   0.501829 0.262223 0.500854 0.794223
C2    C     C_R   0.496654 0.737601 0.499194 0.804008
C3    C     C_R   0.453103 0.939646 0.389192 0.155085
C4    C     C_R   0.541434 0.059874 0.613743 0.153045
C5    C     C_R   0.494233 0.871506 0.497943 -0.072961
C6    C     C_R   0.502272 0.128178 0.503060 -0.073562
C7    C     C_R   0.449566 0.419822 0.071954 0.551719
C8    C     C_R   0.551713 0.579460 0.927168 0.570497
C9    C     C_R   0.450606 0.419527 0.922746 -0.239955
C10   C     C_R   0.549598 0.580407 0.077505 -0.255609
C11   C     C_R   0.339904 0.499177 0.497456 0.794308
C12   C     C_R   0.660160 0.499888 0.502476 0.805980
C13   C     C_3   0.974530 0.375866 0.554563 0.262085
C14   C     C_3   0.024501 0.595751 0.456943 0.261257
C15   C     C_3   0.020843 0.396417 0.416600 0.290917
C16   C     C_3   0.979709 0.573779 0.595719 0.276593
C17   C     C_1   0.250396 0.495603 0.490291 -0.214913
C18   C     C_1   0.749738 0.495827 0.509707 -0.194562
C19   C     C_3   0.037868 0.463190 0.630357 0.247820
C20   C     C_3   0.963524 0.506299 0.379791 0.261774
C21   C     C_3   0.083700 0.486067 0.491858 -0.173121
C22   C     C_3   0.916728 0.485864 0.517905 -0.180212
C23   C     C_1   0.175003 0.491281 0.486250 0.071340
C24   C     C_1   0.825138 0.491430 0.516468 0.077724
C25   C     C_R   0.459204 0.067499 0.392869 -0.254068
C26   C     C_R   0.536339 0.932191 0.608858 -0.257576
Cu1   Cu    Cu3+1 0.500000 0.500020 0.640660 0.978914
Cu2   Cu    Cu3+1 0.500000 0.499980 0.359340 0.977462
H1    H     H_    0.427699 0.120848 0.310972 0.193944
H2    H     H_    0.567245 0.878916 0.691381 0.186084
H3    H     H_    0.412880 0.353314 0.863591 0.153027
H4    H     H_    0.587190 0.645118 0.138724 0.151357
N1    N     N_R   0.500020 0.500030 0.852070 -0.202346
N2    N     N_R   0.499980 0.499970 0.147930 -0.202319
O1    O     O_R   0.500000 0.319660 0.618740 -0.594696
O2    O     O_R   0.500000 0.680340 0.381260 -0.595994
O3    O     O_R   0.499990 0.319630 0.381170 -0.531427
O4    O     O_R   0.500010 0.680370 0.618830 -0.533966
O5    O     O_R   0.379080 0.500000 0.618760 -0.585030
O6    O     O_R   0.620920 0.500000 0.381240 -0.571062
O7    O     O_R   0.379080 0.499970 0.381190 -0.554483
O8    O     O_R   0.620920 0.500030 0.618810 -0.539967
O9    O     O_3   0.045169 0.305379 0.321378 -0.591188
C27   C     C_3   0.975187 0.229920 0.284051 0.143707
H5    H     H_    0.913545 0.278295 0.286353 0.172266
H6    H     H_    0.973244 0.150631 0.357288 0.189574
C28   C     C_3   0.984536 0.182591 0.135867 -0.898816
H7    H     H_    0.044833 0.132443 0.127841 0.267785
H8    H     H_    0.931414 0.119729 0.107327 0.213145
H9    H     H_    0.983135 0.260799 0.061253 0.261824
O10   O     O_3   0.952808 0.664249 0.689670 -0.585350
C29   C     C_3   0.023337 0.724671 0.752614 0.090940
H10   H     H_    0.065933 0.762812 0.672933 0.174160
H11   H     H_    0.059794 0.661687 0.822921 0.188570
C30   C     C_3   0.992779 0.830482 0.840661 -0.863957
H12   H     H_    0.956651 0.794811 0.929858 0.247109
H13   H     H_    0.047260 0.885278 0.882396 0.211333
H14   H     H_    0.951313 0.890136 0.774650 0.263450
O11   O     O_3   0.951354 0.257375 0.600930 -0.579889
C31   C     C_3   0.903300 0.266514 0.721932 0.104441
H15   H     H_    0.840363 0.305191 0.695282 0.152045
H16   H     H_    0.935350 0.324111 0.803733 0.183346
C32   C     C_3   0.890687 0.138978 0.783168 -0.856689
H17   H     H_    0.952147 0.101335 0.820011 0.253136
H18   H     H_    0.848619 0.143837 0.873528 0.208589
H19   H     H_    0.862149 0.076595 0.702554 0.254955
O12   O     O_3   0.054692 0.707957 0.403116 -0.580352
C33   C     C_3   0.987476 0.791351 0.385053 0.095003
H20   H     H_    0.973721 0.835649 0.486414 0.178106
H21   H     H_    0.928611 0.747214 0.342465 0.176052
C34   C     C_3   0.012311 0.890593 0.282190 -0.838096
H22   H     H_    0.032730 0.848874 0.182951 0.249037
H23   H     H_    0.956854 0.949140 0.258614 0.204648
H24   H     H_    0.064516 0.947689 0.327960 0.261268
O13   O     O_3   0.915796 0.525471 0.254531 -0.583008
C35   C     C_3   0.968629 0.538769 0.140005 0.092417
H25   H     H_    0.018814 0.468211 0.138972 0.190046
H26   H     H_    0.998573 0.631262 0.140847 0.170538
C36   C     C_3   0.914657 0.524989 0.006591 -0.801799
H27   H     H_    0.869459 0.602036 0.997122 0.250103
H28   H     H_    0.955069 0.525312 0.914738 0.263664
H29   H     H_    0.878975 0.436843 0.008441 0.239035
O14   O     O_3   0.075216 0.440123 0.764188 -0.608476
C37   C     C_3   0.136950 0.347398 0.757057 0.112674
H30   H     H_    0.200155 0.391705 0.756880 0.150452
H31   H     H_    0.129709 0.286747 0.663149 0.173008
C38   C     C_3   0.133089 0.265777 0.885675 -0.849395
H32   H     H_    0.075200 0.208796 0.879023 0.257633
H33   H     H_    0.188125 0.203383 0.890744 0.205034
H34   H     H_    0.132886 0.323069 0.981721 0.261892
C39   C     C_3   0.399147 0.881813 0.272033 -0.416420
C40   C     C_3   0.317804 0.827074 0.327150 -0.765660
H35   H     H_    0.280134 0.785420 0.239126 0.241349
H36   H     H_    0.331254 0.754748 0.406553 0.240041
H37   H     H_    0.279873 0.900276 0.375275 0.248786
H38   H     H_    0.380906 0.951837 0.191718 0.192955
H39   H     H_    0.434638 0.811935 0.214363 0.225407
C41   C     C_3   0.591122 0.117171 0.736130 -0.386147
C42   C     C_3   0.673092 0.175575 0.689287 -0.811206
H40   H     H_    0.661400 0.248687 0.610288 0.245080
H41   H     H_    0.706825 0.217071 0.781446 0.236491
H42   H     H_    0.713474 0.104377 0.643145 0.245248
H43   H     H_    0.552687 0.184400 0.792571 0.226622
H44   H     H_    0.608258 0.046379 0.816226 0.189187
O15   O     O_3   0.404444 0.331290 0.142209 -0.567421
C43   C     C_3   0.317279 0.348824 0.117468 0.037457
H45   H     H_    0.298875 0.328584 0.006601 0.126089
H46   H     H_    0.298648 0.444700 0.142607 0.163832
C44   C     C_3   0.269266 0.260981 0.210840 -0.759248
H47   H     H_    0.290878 0.272114 0.321945 0.247157
H48   H     H_    0.200849 0.280353 0.202471 0.242790
H49   H     H_    0.279994 0.164478 0.178410 0.227704
O16   O     O_3   0.600933 0.661043 0.851740 -0.554756
C45   C     C_3   0.677624 0.692799 0.922411 -0.010001
H50   H     H_    0.707914 0.611296 0.973519 0.152064
H51   H     H_    0.666561 0.765323 0.001515 0.141428
C46   C     C_3   0.738436 0.745167 0.817330 -0.730916
H52   H     H_    0.710279 0.825816 0.762423 0.230373
H53   H     H_    0.797556 0.775233 0.872675 0.210797
H54   H     H_    0.753660 0.674103 0.739049 0.265614

loop_
_geom_bond_atom_site_label_1
_geom_bond_atom_site_label_2
_ccdc_geom_bond_type
C38   H32   S    
C32   H18   S    
C4    C41   S    
C5    C26   A    
C35   C36   S    
C30   H12   S    
C45   H50   S    
C28   H8    S    
Cu1   N1    S    
C17   C23   T    
C31   C32   S    
C18   C24   T    
C14   C21   S    
C3    C39   S    
C19   C21   S    
C35   H26   S    
C44   H48   S    
C6    C25   A    
C43   H45   S    
Cu2   O6    S    
Cu1   O4    S    
C41   H43   S    
Cu2   O7    S    
C31   H16   S    
C12   O8    A    
C39   H38   S    
C37   H30   S    
C42   H40   S    
Cu1   O5    S    
C33   H20   S    
C14   O12   S    
C7    O15   S    
C29   C30   S    
C1    O3    A    
C32   H19   S    
Cu2   N2    S    
O11   C31   S    
C9    N1    A    
C19   O14   S    
C29   H11   S    
C28   H9    S    
C21   C23   S    
C25   H1    S    
C15   C20   S    
C13   C19   S    
O12   C33   S    
C28   H7    S    
C14   C20   S    
C3    C25   A    
C35   H25   S    
C4    C6    A    
C44   H49   S    
C39   C40   S    
C36   H28   S    
C27   H6    S    
Cu1   O1    S    
C40   H37   S    
O10   C29   S    
C20   O13   S    
C31   H15   S    
C12   O6    A    
O13   C35   S    
C36   H29   S    
C2    O4    A    
C4    C26   A    
O14   C37   S    
C13   C15   S    
C40   H36   S    
C10   N2    A    
C29   H10   S    
C39   H39   S    
C11   O5    A    
C8    O16   S    
C33   H21   S    
C42   H41   S    
C20   C22   S    
C26   H2    S    
C30   H13   S    
O9    C27   S    
C7    N2    A    
C14   C16   S    
C36   H27   S    
C46   H54   S    
C2    C5    S    
Cu1   Cu2   S    
C27   H5    S    
C1    O1    A    
C34   H23   S    
O16   C45   S    
C2    O2    A    
C7    C9    A    
C11   C17   S    
C16   O10   S    
C16   C22   S    
C37   H31   S    
C3    C5    A    
C34   H24   S    
C45   H51   S    
C27   C28   S    
C13   O11   S    
C37   C38   S    
O15   C43   S    
C46   H53   S    
C15   O9    S    
C34   H22   S    
C46   H52   S    
Cu1   O8    S    
C30   H14   S    
C43   H46   S    
Cu2   O3    S    
C33   C34   S    
C41   H44   S    
C40   H35   S    
C13   C22   S    
C11   O7    A    
C22   C24   S    
C8    N1    A    
C45   C46   S    
C9    H3    S    
C32   H17   S    
C10   H4    S    
C15   C21   S    
C42   H42   S    
Cu2   O2    S    
C8    C10   A    
C41   C42   S    
C38   H34   S    
C12   C18   S    
C1    C6    S    
C38   H33   S    
C44   H47   S    
C43   C44   S    
C16   C19   S    
