data_mof_unit_46196.cif
_audit_creation_date              2012-12-11T14:49:39-0500
_audit_creation_method            fapswitch 2.2
_symmetry_space_group_name_H-M    P1
_symmetry_Int_Tables_number       1
_space_group_crystal_system       triclinic
_cell_length_a                    16.936584
_cell_length_b                    7.015175
_cell_length_c                    16.766834
_cell_angle_alpha                 90.002686
_cell_angle_beta                  100.835727
_cell_angle_gamma                 89.997885
_cell_volume                      1956.60047473

loop_
_atom_site_label
_atom_site_type_symbol
_atom_type_description
_atom_site_fract_x
_atom_site_fract_y
_atom_site_fract_z
_atom_type_partial_charge
O1    O     O_R   0.579510 0.506290 0.439030 -0.540515
O2    O     O_R   0.420490 0.006290 0.560970 -0.540515
O3    O     O_R   0.412540 0.170090 0.405290 -0.512655
O4    O     O_R   0.587460 0.670090 0.594710 -0.512629
C1    C     C_R   0.384651 0.345817 0.382188 0.673817
C2    C     C_R   0.615347 0.845818 0.617815 0.673804
O5    O     O_R   0.578390 0.176230 0.429330 -0.540017
O6    O     O_R   0.421610 0.676230 0.570670 -0.540004
O7    O     O_R   0.587530 0.011250 0.585190 -0.550107
O8    O     O_R   0.412470 0.511250 0.414810 -0.550110
C3    C     C_R   0.604800 0.343555 0.413412 0.691740
C4    C     C_R   0.395199 0.843566 0.586585 0.691712
O9    O     O_3   0.502800 0.340940 0.551110 -0.365583
O10   O     O_3   0.497200 0.840940 0.448890 -0.365596
V1    V     V_3+5 0.499480 0.064020 0.490520 1.422511
V2    V     V_3+5 0.500520 0.564020 0.509480 1.422532
C5    C     C_R   0.167084 0.927229 0.861137 -0.068528
C6    C     C_R   0.832928 0.427273 0.138879 -0.068520
C7    C     C_R   0.333502 0.839499 0.639465 -0.067906
C8    C     C_R   0.666485 0.339455 0.360518 -0.067924
C9    C     C_R   0.235379 0.652160 0.696569 -0.201812
C10   C     C_R   0.764520 0.152013 0.303313 -0.201894
C11   C     C_R   0.287383 0.672444 0.641556 -0.164068
C12   C     C_R   0.712530 0.172300 0.358341 -0.164057
C13   C     C_R   0.324811 0.988759 0.693071 -0.243129
C14   C     C_R   0.675241 0.488809 0.306986 -0.243147
C15   C     C_R   0.272779 0.968370 0.749328 0.158388
C16   C     C_R   0.727260 0.468419 0.250716 0.158432
C17   C     C_R   0.227946 0.798290 0.751411 0.162379
C18   C     C_R   0.772014 0.298242 0.248545 0.162420
C19   C     C_R   0.175859 0.777933 0.807597 -0.251639
C20   C     C_R   0.824089 0.277885 0.192345 -0.251654
C21   C     C_R   0.213271 0.094202 0.859168 -0.140383
C22   C     C_R   0.786815 0.594347 0.140934 -0.140405
C23   C     C_R   0.265350 0.114465 0.804207 -0.207110
C24   C     C_R   0.734750 0.614613 0.195910 -0.207188
H1    H     H_    0.140379 0.649343 0.807718 0.120949
H2    H     H_    0.859508 0.149210 0.192156 0.120961
H3    H     H_    0.208349 0.211810 0.899831 0.143815
H4    H     H_    0.791783 0.712032 0.100329 0.143733
H5    H     H_    0.201548 0.521044 0.696667 0.118946
H6    H     H_    0.798291 0.020821 0.303148 0.118938
H7    H     H_    0.299205 0.245553 0.804148 0.124909
H8    H     H_    0.700955 0.745778 0.196036 0.124893
H9    H     H_    0.292258 0.554768 0.600918 0.124198
H10   H     H_    0.707609 0.054546 0.398921 0.124243
H11   H     H_    0.360268 0.117371 0.692909 0.124412
H12   H     H_    0.639845 0.617505 0.307217 0.124426
C25   C     C_3   0.736915 0.820439 0.842467 0.205122
C26   C     C_3   0.263107 0.320630 0.157523 0.205065
H13   H     H_    0.718291 0.924884 0.885380 0.072305
H14   H     H_    0.281713 0.425197 0.114654 0.072346
C27   C     C_3   0.663682 0.794376 0.770197 0.201890
C28   C     C_3   0.336336 0.294533 0.229794 0.201875
H15   H     H_    0.612837 0.884680 0.782154 0.024400
H16   H     H_    0.387168 0.384915 0.217870 0.024440
H17   H     H_    0.856556 0.637370 0.767830 0.143016
H18   H     H_    0.143518 0.137207 0.232091 0.143049
H19   H     H_    0.745221 0.594778 0.667783 0.175993
H20   H     H_    0.254838 0.094663 0.332156 0.176016
C29   C     C_3   0.833652 0.778467 0.743733 -0.346579
C30   C     C_3   0.166370 0.278309 0.256232 -0.346543
C31   C     C_3   0.785529 0.102486 0.773368 -0.414741
C32   C     C_3   0.214406 0.602460 0.226701 -0.414739
C33   C     C_3   0.811777 0.906997 0.812373 0.019616
C34   C     C_3   0.188218 0.406999 0.187634 0.019636
H21   H     H_    0.836496 0.170733 0.750865 0.164172
H22   H     H_    0.163417 0.670554 0.249228 0.164154
H23   H     H_    0.768109 0.199854 0.819520 0.156940
H24   H     H_    0.231794 0.699958 0.180582 0.156907
C35   C     C_3   0.686409 0.864429 0.689342 0.057628
C36   C     C_3   0.313586 0.364428 0.310664 0.057669
C37   C     C_3   0.760223 0.749163 0.673727 -0.319214
C38   C     C_3   0.239796 0.249032 0.326242 -0.319200
C39   C     C_3   0.713634 0.078011 0.702040 -0.384848
C40   C     C_3   0.286310 0.577986 0.298021 -0.384940
H25   H     H_    0.662804 0.167062 0.714265 0.179401
H26   H     H_    0.337116 0.667129 0.285813 0.179404
H27   H     H_    0.731014 0.133914 0.645632 0.163294
H28   H     H_    0.268921 0.633781 0.354445 0.163242
H29   H     H_    0.883414 0.845929 0.718948 0.134764
H30   H     H_    0.116578 0.345626 0.281024 0.134746
H31   H     H_    0.776384 0.795126 0.615335 0.118310
H32   H     H_    0.223614 0.294901 0.384639 0.118311
O11   O     O_R   0.087500 0.266000 0.085220 -0.523423
O12   O     O_R   0.912500 0.766000 0.914780 -0.523386
O13   O     O_R   0.921600 0.589950 0.070670 -0.538323
O14   O     O_R   0.078400 0.089950 0.929330 -0.538308
C41   C     C_R   0.894775 0.423224 0.086197 0.716888
C42   C     C_R   0.105226 0.923213 0.913805 0.716842
O15   O     O_R   0.087460 0.596020 0.094710 -0.548227
O16   O     O_R   0.912540 0.096020 0.905290 -0.548216
O17   O     O_R   0.079520 0.760970 0.939020 -0.540170
O18   O     O_R   0.920480 0.260970 0.060980 -0.540178
C43   C     C_R   0.116414 0.426041 0.117606 0.701303
C44   C     C_R   0.883582 0.926041 0.882398 0.701279
O19   O     O_3   0.997180 0.425140 0.948910 -0.372922
O20   O     O_3   0.002820 0.925140 0.051090 -0.372955
V3    V     V_3+5 0.000520 0.702080 0.009480 1.415918
V4    V     V_3+5 0.999480 0.202080 0.990520 1.415925
O21   O     O_3   0.637972 0.603357 0.762579 -0.644740
H33   H     H_    0.606688 0.579982 0.806110 0.298209
O22   O     O_3   0.362079 0.103533 0.237362 -0.644756
H34   H     H_    0.393378 0.080266 0.193833 0.298229
O23   O     O_3   0.755608 0.650745 0.887018 -0.643356
H35   H     H_    0.771588 0.553469 0.850271 0.314901
O24   O     O_3   0.244461 0.151005 0.112906 -0.643396
H36   H     H_    0.228496 0.053627 0.149612 0.314894

loop_
_geom_bond_atom_site_label_1
_geom_bond_atom_site_label_2
_ccdc_geom_bond_type
H18   C30   S    
C18   C20   A    
C31   C33   S    
O21   H33   S    
C11   H9    S    
C15   C17   A    
O1    C3    A    
C36   C40   S    
O2    C4    A    
C2    O7    A    
O5    C3    A    
C26   C28   S    
C25   C33   S    
C22   H4    S    
C32   H22   S    
C40   H26   S    
C1    C36   S    
O16   C44   A    
C41   O18   A    
C33   C44   S    
C8    C12   A    
C27   O21   S    
C25   H13   S    
C26   H14   S    
O24   H36   S    
C20   H2    S    
C23   H7    S    
C13   H11   S    
C14   H12   S    
O5    V1    S    
C30   H30   S    
O6    V2    S    
C5    C21   A    
O19   V3    S    
O13   V3    S    
C27   H15   S    
C2    C35   S    
C28   H16   S    
C3    C8    S    
C30   C34   S    
C31   H23   S    
C28   O22   S    
O4    C2    A    
C35   C37   S    
C25   O23   S    
C29   C37   S    
C9    C17   A    
C19   H1    S    
C32   C34   S    
O4    V2    S    
C7    C11   A    
C31   H21   S    
O12   V3    S    
C6    C22   A    
O18   V4    S    
O6    C4    A    
C32   C40   S    
O1    V2    S    
C21   H3    S    
O2    V1    S    
C39   H25   S    
O14   V4    S    
O12   C44   A    
C9    H5    S    
C36   C38   S    
O14   C42   A    
C32   H24   S    
C9    C11   A    
C26   O24   S    
C5    C19   A    
C10   C12   A    
C24   H8    S    
C6    C20   A    
C31   C39   S    
C27   C35   S    
O19   V4    S    
O3    V1    S    
O16   V4    S    
C42   O17   A    
O17   V3    S    
C10   C18   A    
C6    C41   S    
C14   C16   A    
C5    C42   S    
C40   H28   S    
C38   H32   S    
O3    C1    A    
C26   C34   S    
H17   C29   S    
C13   C15   A    
O23   H35   S    
O20   V4    S    
C15   C23   A    
C16   C18   A    
O7    V1    S    
C12   H10   S    
C1    O8    A    
C17   C19   A    
O11   V4    S    
O8    V2    S    
C35   C39   S    
O11   C43   A    
C10   H6    S    
C8    C14   A    
C25   C27   S    
C4    C7    S    
H20   C38   S    
C21   C23   A    
C22   C24   A    
H19   C37   S    
C7    C13   A    
O15   C43   A    
C29   C33   S    
C28   C36   S    
C16   C24   A    
O20   V3    S    
O9    V2    S    
O22   H34   S    
O13   C41   A    
O10   V1    S    
C30   C38   S    
C29   H29   S    
O15   V3    S    
C39   H27   S    
C37   H31   S    
C34   C43   S    
