data_mof_unit_19991.cif
_audit_creation_date              2012-12-11T15:53:40-0500
_audit_creation_method            fapswitch 2.2
_symmetry_space_group_name_H-M    P1
_symmetry_Int_Tables_number       1
_space_group_crystal_system       triclinic
_cell_length_a                    6.923929
_cell_length_b                    14.480265
_cell_length_c                    16.017327
_cell_angle_alpha                 90.542429
_cell_angle_beta                  90.315388
_cell_angle_gamma                 89.971223
_cell_volume                      1605.80598189

loop_
_atom_site_label
_atom_site_type_symbol
_atom_type_description
_atom_site_fract_x
_atom_site_fract_y
_atom_site_fract_z
_atom_type_partial_charge
O1    O     O_R   0.361600 0.167310 0.164620 -0.545608
O2    O     O_R   0.638400 0.832690 0.835380 -0.545613
O3    O     O_R   0.691080 0.157570 0.338750 -0.504575
O4    O     O_R   0.308920 0.842430 0.661250 -0.504597
O5    O     O_R   0.861410 0.336420 0.339360 -0.519319
O6    O     O_R   0.138590 0.663580 0.660640 -0.519312
C1    C     C_R   0.522753 0.134527 0.366921 0.772939
C2    C     C_R   0.477247 0.865473 0.633080 0.772960
O7    O     O_R   0.691320 0.156280 0.165240 -0.548080
O8    O     O_R   0.308680 0.843720 0.834760 -0.548079
O9    O     O_R   0.861640 0.335130 0.164600 -0.545726
O10   O     O_R   0.138360 0.664870 0.835400 -0.545724
C3    C     C_R   0.522064 0.133680 0.136172 0.667505
C4    C     C_R   0.477936 0.866320 0.863828 0.667482
O11   O     O_R   0.361370 0.168600 0.339370 -0.544734
O12   O     O_R   0.638630 0.831400 0.660630 -0.544732
O13   O     O_3   0.527990 0.310540 0.251980 -0.373723
O14   O     O_3   0.472010 0.689460 0.748020 -0.373713
V1    V     V_3+5 0.802830 0.240980 0.251990 1.463402
V2    V     V_3+5 0.197170 0.759020 0.748010 1.463369
O15   O     O_R   0.191360 0.346160 0.165220 -0.547218
O16   O     O_R   0.808640 0.653840 0.834780 -0.547216
C5    C     C_R   0.022062 0.368253 0.136055 0.666113
C6    C     C_R   0.977938 0.631746 0.863945 0.666122
O17   O     O_R   0.191130 0.347440 0.338740 -0.549463
O18   O     O_R   0.808870 0.652560 0.661260 -0.549454
C7    C     C_R   0.022687 0.370007 0.367300 0.742179
C8    C     C_R   0.977311 0.629997 0.632697 0.742189
V3    V     V_3+5 0.302840 0.262750 0.251990 1.404186
V4    V     V_3+5 0.697160 0.737250 0.748010 1.404186
O19   O     O_3   0.027820 0.193180 0.251990 -0.369434
O20   O     O_3   0.972180 0.806820 0.748010 -0.369455
C9    C     C_3   0.888736 0.428583 0.515108 0.504635
C10   C     C_3   0.111258 0.571426 0.484887 0.504592
C11   C     C_3   0.058821 0.459044 0.571699 -0.290387
C12   C     C_3   0.941174 0.540964 0.428292 -0.290555
H1    H     H_    0.104247 0.425679 0.630748 0.118008
H2    H     H_    0.895736 0.574325 0.369243 0.117982
C13   C     C_3   0.986608 0.559899 0.562959 -0.107665
C14   C     C_3   0.013388 0.440107 0.437034 -0.107637
C15   C     C_3   0.814196 0.528633 0.507250 -0.255111
C16   C     C_3   0.185798 0.471379 0.492740 -0.254958
H3    H     H_    0.662109 0.551502 0.514423 0.139540
H4    H     H_    0.337887 0.448522 0.485549 0.139490
C17   C     C_R   0.820566 0.524956 0.966732 -0.160918
C18   C     C_R   0.179434 0.475044 0.033268 -0.160921
H5    H     H_    0.679729 0.543127 0.942188 0.115878
H6    H     H_    0.320271 0.456873 0.057813 0.115877
C19   C     C_R   0.831305 0.461937 0.032453 -0.157483
C20   C     C_R   0.168695 0.538064 0.967547 -0.157484
H7    H     H_    0.698324 0.433367 0.056316 0.117156
H8    H     H_    0.301676 0.566633 0.943685 0.117156
C21   C     C_R   0.010892 0.436077 0.066693 -0.042963
C22   C     C_R   0.989108 0.563923 0.933307 -0.042963
C23   C     C_R   0.671349 0.006623 0.453476 0.443935
C24   C     C_R   0.328652 0.993376 0.546523 0.443865
C25   C     C_R   0.657242 0.943779 0.519292 -0.301300
C26   C     C_R   0.342762 0.056227 0.480713 -0.301317
H9    H     H_    0.781194 0.900871 0.533417 0.192485
H10   H     H_    0.218813 0.099138 0.466593 0.192501
C27   C     C_R   0.486457 0.934990 0.565473 -0.219055
C28   C     C_R   0.513545 0.065014 0.434529 -0.219008
C29   C     C_R   0.679621 0.025827 0.032944 -0.161132
C30   C     C_R   0.320379 0.974173 0.967056 -0.161137
H11   H     H_    0.820517 0.044714 0.057261 0.115321
H12   H     H_    0.179483 0.955286 0.942738 0.115326
C31   C     C_R   0.668848 0.961913 0.966999 -0.156857
C32   C     C_R   0.331152 0.038088 0.033001 -0.156855
H13   H     H_    0.801884 0.933342 0.942644 0.116862
H14   H     H_    0.198116 0.066659 0.057355 0.116859
C33   C     C_R   0.489077 0.935192 0.933175 -0.042028
C34   C     C_R   0.510923 0.064808 0.066824 -0.042026
O21   O     O_3   0.772959 0.349243 0.524728 -0.554478
C35   C     C_3   0.673417 0.354260 0.601125 0.096165
H15   H     H_    0.586946 0.418907 0.606224 0.113163
H16   H     H_    0.776612 0.350492 0.654499 0.113776
C36   C     C_3   0.535101 0.272824 0.606177 -0.727129
H17   H     H_    0.616520 0.206810 0.602243 0.222980
H18   H     H_    0.455886 0.275456 0.666238 0.167170
H19   H     H_    0.428950 0.275386 0.553969 0.219743
O22   O     O_3   0.227085 0.650755 0.475291 -0.554472
C37   C     C_3   0.326194 0.645869 0.398777 0.096063
H20   H     H_    0.222715 0.649889 0.345527 0.113842
H21   H     H_    0.412388 0.581158 0.393432 0.113178
C38   C     C_3   0.464781 0.727197 0.393766 -0.727290
H22   H     H_    0.571372 0.724327 0.445795 0.219690
H23   H     H_    0.543485 0.724734 0.333568 0.167186
H24   H     H_    0.383657 0.793266 0.398050 0.223119
O23   O     O_3   0.843174 0.012940 0.410239 -0.535117
C39   C     C_3   0.853684 0.938760 0.352511 0.118760
H25   H     H_    0.734586 0.943386 0.305639 0.092042
H26   H     H_    0.845992 0.870815 0.384424 0.116322
C40   C     C_3   0.045315 0.942957 0.306677 -0.687553
H27   H     H_    0.166923 0.937068 0.351774 0.217250
H28   H     H_    0.054466 0.885093 0.260877 0.160002
H29   H     H_    0.057725 0.009191 0.272853 0.229647
O24   O     O_3   0.156812 0.987050 0.589747 -0.535126
C41   C     C_3   0.146389 0.061165 0.647547 0.118870
H30   H     H_    0.154294 0.129148 0.615706 0.116274
H31   H     H_    0.265410 0.056415 0.694446 0.092038
C42   C     C_3   0.954680 0.057014 0.693325 -0.687591
H32   H     H_    0.942042 0.990739 0.727069 0.229682
H33   H     H_    0.945606 0.114817 0.739192 0.160002
H34   H     H_    0.833152 0.063037 0.648201 0.217225

loop_
_geom_bond_atom_site_label_1
_geom_bond_atom_site_label_2
_ccdc_geom_bond_type
C26   C28   A    
C29   H11   S    
C40   H27   S    
O13   V3    S    
C4    C33   S    
C10   C16   S    
O4    C2    A    
V1    O19   S    
O22   C37   S    
C13   C15   S    
C36   H17   S    
O9    V1    S    
C20   C22   A    
C35   H16   S    
C30   C32   A    
C11   H1    S    
O3    C1    A    
C38   H24   S    
C6    C22   S    
C41   H30   S    
C23   C28   A    
O24   C41   S    
O21   C35   S    
C30   C33   A    
C11   C16   S    
O7    C3    A    
C5    C21   S    
C9    C11   S    
O5    C7    A    
O7    V1    S    
O6    C8    A    
O8    V2    S    
C19   H7    S    
C35   C36   S    
C20   H8    S    
O3    V1    S    
O14   V4    S    
C10   O22   S    
C31   C33   A    
C2    C27   S    
C17   H5    S    
C2    O12   A    
V3    O19   S    
C15   H3    S    
C12   C15   S    
C16   H4    S    
C24   O24   S    
O11   V3    S    
C18   H6    S    
C36   H18   S    
O17   V3    S    
C29   C31   A    
C9    C14   S    
C35   H15   S    
C38   H23   S    
C10   C13   S    
C42   H32   S    
C12   C14   S    
O8    C4    A    
C1    O11   A    
C8    C13   S    
C38   H22   S    
O15   V3    S    
C31   H13   S    
C30   H12   S    
C11   C13   S    
C1    C28   S    
C39   H26   S    
C17   C19   A    
C7    C14   S    
C32   C34   A    
O10   V2    S    
O1    V3    S    
C9    O21   S    
C17   C22   A    
O18   V4    S    
C40   H29   S    
C41   H31   S    
C23   C25   A    
O16   C6    A    
O1    C3    A    
O12   V4    S    
C12   H2    S    
C41   C42   S    
C39   C40   S    
V2    O20   S    
C36   H19   S    
C18   C20   A    
O16   V4    S    
O18   C8    A    
C14   C16   S    
C25   C27   A    
O5    V1    S    
C3    C34   S    
O17   C7    A    
C37   C38   S    
O6    V2    S    
O10   C6    A    
C37   H21   S    
C42   H33   S    
O2    V4    S    
C9    C15   S    
O15   C5    A    
C23   O23   S    
V4    O20   S    
C39   H25   S    
C19   C21   A    
C18   C21   A    
O9    C5    A    
O13   V1    S    
C10   C12   S    
C24   C26   A    
O14   V2    S    
O2    C4    A    
C25   H9    S    
O4    V2    S    
C29   C34   A    
C40   H28   S    
C37   H20   S    
C32   H14   S    
C24   C27   A    
C42   H34   S    
O23   C39   S    
C26   H10   S    
