data_mof_unit_51339.cif
_audit_creation_date              2012-12-11T14:46:07-0500
_audit_creation_method            fapswitch 2.2
_symmetry_space_group_name_H-M    P1
_symmetry_Int_Tables_number       1
_space_group_crystal_system       triclinic
_cell_length_a                    10.917164
_cell_length_b                    10.927841
_cell_length_c                    18.855361
_cell_angle_alpha                 89.739524
_cell_angle_beta                  90.315281
_cell_angle_gamma                 119.883118
_cell_volume                      1950.3496157

loop_
_atom_site_label
_atom_site_type_symbol
_atom_type_description
_atom_site_fract_x
_atom_site_fract_y
_atom_site_fract_z
_atom_type_partial_charge
C1    C     C_R   0.865238 0.636539 0.604012 0.558807
C2    C     C_R   0.961112 0.167973 0.710396 -0.019219
C3    C     C_R   0.958292 0.181758 0.785160 -0.115808
C4    C     C_R   0.268599 0.631429 0.604252 0.529533
C5    C     C_R   0.711789 0.098532 0.703253 -0.008498
C6    C     C_R   0.712284 0.128096 0.775691 -0.035768
C7    C     C_R   0.583939 0.039701 0.664315 -0.122209
C8    C     C_R   0.463783 0.032225 0.693417 -0.056184
C9    C     C_R   0.469309 0.082286 0.761495 0.442909
C10   C     C_R   0.592905 0.133601 0.801505 -0.007384
C11   C     C_R   0.840919 0.143121 0.669167 0.022889
C12   C     C_R   0.439990 0.649273 0.776694 -0.162099
C13   C     C_R   0.728406 0.531784 0.714986 0.357775
C14   C     C_R   0.720526 0.543673 0.788032 -0.103572
C15   C     C_R   0.804690 0.674189 0.820380 -0.020296
C16   C     C_R   0.860894 0.220545 0.601152 0.562709
C17   C     C_R   0.888725 0.794452 0.778941 -0.107420
C18   C     C_R   0.895760 0.783390 0.706758 -0.192174
C19   C     C_R   0.821351 0.651624 0.674500 0.015363
C20   C     C_R   0.404515 0.618347 0.297023 0.370917
C21   C     C_R   0.421689 0.623208 0.224727 0.332577
C22   C     C_R   0.377016 0.699737 0.181745 -0.106090
C23   C     C_R   0.414314 0.636288 0.704644 -0.159006
C24   C     C_R   0.322006 0.777774 0.212790 0.321360
C25   C     C_R   0.300475 0.769391 0.285611 0.378447
C26   C     C_R   0.335656 0.683503 0.327524 -0.066543
C27   C     C_R   0.712648 0.101696 0.294001 0.304794
C28   C     C_R   0.865482 0.638142 0.397340 0.549199
C29   C     C_R   0.701585 0.083653 0.221603 -0.121641
C30   C     C_R   0.822801 0.127409 0.179968 -0.106098
C31   C     C_R   0.954755 0.179770 0.211937 -0.130814
C32   C     C_R   0.967226 0.200154 0.284840 0.313405
C33   C     C_R   0.846266 0.167419 0.325841 0.017638
C34   C     C_R   0.314357 0.666793 0.676825 -0.045214
C35   C     C_R   0.883066 0.785966 0.295962 -0.080425
C36   C     C_R   0.875481 0.798250 0.223617 -0.082013
C37   C     C_R   0.807020 0.677052 0.180907 0.056355
C38   C     C_R   0.739487 0.543054 0.211437 -0.050798
C39   C     C_R   0.747066 0.530493 0.284379 -0.049208
C40   C     C_R   0.273326 0.636379 0.397173 0.598016
C41   C     C_R   0.823152 0.652215 0.326414 0.047999
C42   C     C_R   0.805187 0.102744 0.894008 0.523026
C43   C     C_R   0.397765 0.701856 0.895921 0.586827
C44   C     C_R   0.794717 0.695553 0.895393 0.557621
C45   C     C_R   0.831241 0.152065 0.818771 -0.015474
C46   C     C_R   0.802670 0.098578 0.104778 0.546694
C47   C     C_R   0.405115 0.707721 0.106336 0.608464
C48   C     C_R   0.796164 0.697820 0.106032 0.554690
C49   C     C_R   0.862316 0.227937 0.396158 0.576414
C50   C     C_R   0.240887 0.711574 0.721301 -0.105622
C51   C     C_R   0.267477 0.725452 0.793713 0.372062
C52   C     C_R   0.365148 0.691352 0.821396 0.039561
C53   C     C_R   0.084853 0.231796 0.824320 -0.085662
C54   C     C_R   0.209516 0.258734 0.791168 0.390128
C55   C     C_R   0.208397 0.228400 0.719537 -0.001405
C56   C     C_R   0.084931 0.180023 0.679575 0.318647
Cr1   Cr    Cr6+3 0.791660 0.390250 0.499930 1.133518
Cr2   Cr    Cr6+3 0.098520 0.708290 0.500540 1.117328
Cr3   Cr    Cr6+3 0.109770 0.401430 0.499480 1.181183
Cr4   Cr    Cr6+3 0.874790 0.925890 0.000070 1.088772
Cr5   Cr    Cr6+3 0.574120 0.948670 0.999300 1.111276
Cr6   Cr    Cr6+3 0.551420 0.625320 0.000920 1.115098
F1    F     F_    0.353609 0.078339 0.789652 -0.575901
F2    F     F_    0.331064 0.311013 0.829188 -0.589583
F3    F     F_    0.084564 0.134799 0.612580 -0.621418
F4    F     F_    0.651457 0.402323 0.685110 -0.618100
F5    F     F_    0.447528 0.542269 0.336602 -0.539134
F6    F     F_    0.480840 0.550634 0.196980 -0.569624
F7    F     F_    0.283374 0.856399 0.172515 -0.556724
F8    F     F_    0.195196 0.766653 0.836562 -0.586190
F9    F     F_    0.236955 0.837692 0.313832 -0.525729
F10   F     F_    0.593282 0.061177 0.332210 -0.581531
F11   F     F_    0.098498 0.259792 0.313964 -0.557305
H1    H     H_    0.160057 0.731775 0.700301 0.162757
H2    H     H_    0.923862 0.903263 0.200983 0.157029
H3    H     H_    0.683372 0.449351 0.179027 0.160535
H4    H     H_    0.700865 0.425618 0.307118 0.179850
H5    H     H_    0.517782 0.625233 0.797927 0.167708
H6    H     H_    0.469633 0.599594 0.671052 0.162264
H7    H     H_    0.303494 0.241478 0.694822 0.202518
H8    H     H_    0.089389 0.255580 0.880246 0.168375
H9    H     H_    0.594261 0.182655 0.851282 0.175114
H10   H     H_    0.367749 0.991569 0.662325 0.144185
H11   H     H_    0.578812 0.004628 0.610158 0.140813
H12   H     H_    0.650891 0.451585 0.819199 0.181706
H13   H     H_    0.949760 0.898396 0.802193 0.185802
H14   H     H_    0.966141 0.876898 0.676786 0.197976
H15   H     H_    0.597070 0.034872 0.198111 0.204984
H16   H     H_    0.047834 0.207716 0.180455 0.189312
H17   H     H_    0.941465 0.880558 0.327570 0.176797
O1    O     O_R   0.766500 0.250040 0.579790 -0.485273
O2    O     O_R   0.413330 0.603360 0.920440 -0.497786
O3    O     O_R   0.676110 0.626250 0.926750 -0.507330
O4    O     O_R   0.798570 0.516780 0.574780 -0.431737
O5    O     O_R   0.895350 0.809870 0.080950 -0.495170
O6    O     O_R   0.872490 0.049760 0.073800 -0.502259
O7    O     O_R   0.691680 0.088070 0.079070 -0.502627
O8    O     O_R   0.451720 0.825250 0.074050 -0.459335
O9    O     O_R   0.413580 0.606370 0.080960 -0.447619
O10   O     O_R   0.676340 0.629040 0.075550 -0.463005
O11   O     O_3   0.666780 0.833290 0.000090 -0.305401
O12   O     O_R   0.218690 0.701900 0.425960 -0.445130
O13   O     O_R   0.984000 0.732950 0.581090 -0.520491
O14   O     O_R   0.218600 0.700890 0.574760 -0.522344
O15   O     O_R   0.249390 0.515350 0.579940 -0.490986
O16   O     O_R   0.982790 0.280900 0.573700 -0.441451
O17   O     O_R   0.766600 0.251130 0.419260 -0.460780
O18   O     O_R   0.798660 0.517790 0.425980 -0.505286
O19   O     O_R   0.984100 0.734040 0.420570 -0.460293
O20   O     O_R   0.249490 0.516440 0.419420 -0.408224
O21   O     O_R   0.982880 0.281910 0.424890 -0.441808
O22   O     O_3   0.999980 0.499990 0.499980 -0.318757
O23   O     O_R   0.895110 0.806860 0.920430 -0.471166
O24   O     O_R   0.872260 0.046970 0.925000 -0.503269
O25   O     O_R   0.691430 0.085060 0.918550 -0.529765
O26   O     O_R   0.451490 0.822460 0.925250 -0.464549

loop_
_geom_bond_atom_site_label_1
_geom_bond_atom_site_label_2
_ccdc_geom_bond_type
C55   C56   A    
C48   O5    A    
C27   C29   A    
Cr2   O19   S    
C20   F5    S    
Cr4   O24   S    
Cr5   O8    S    
C7    C8    A    
C49   O17   A    
C38   H3    S    
C53   C54   A    
C27   C33   A    
C12   C23   A    
C29   C30   A    
C47   O8    A    
C20   C26   A    
Cr2   O22   S    
C39   H4    S    
C36   C37   A    
C6    C45   A    
C15   C44   S    
C5    C11   A    
C50   H1    S    
C30   C31   A    
C43   C52   S    
Cr1   O22   S    
C33   C49   S    
C56   F3    S    
C8    H10   S    
C28   C41   S    
Cr3   O20   S    
C47   O9    A    
C53   H8    S    
C18   C19   A    
C29   H15   S    
C44   O3    A    
C42   O24   A    
C35   C36   A    
C1    O4    A    
C31   H16   S    
C12   H5    S    
Cr5   O25   S    
Cr3   O21   S    
Cr2   O12   S    
C51   F8    S    
C9    C10   A    
C1    O13   A    
C16   O16   A    
C49   O21   A    
Cr6   O11   S    
C7    H11   S    
C13   C14   A    
Cr4   O23   S    
C2    C11   A    
C12   C52   A    
C24   F7    S    
Cr3   O22   S    
C13   F4    S    
C38   C39   A    
C48   O10   A    
C4    C34   S    
C1    C19   S    
Cr3   O16   S    
C34   C50   A    
C13   C19   A    
C51   C52   A    
C24   C25   A    
C39   C41   A    
C32   F11   S    
C5    C7    A    
C8    C9    A    
C40   O20   A    
C50   C51   A    
C25   C26   A    
C10   H9    S    
C17   H13   S    
Cr6   O2    S    
C42   C45   S    
Cr5   O11   S    
C35   H17   S    
C37   C38   A    
C36   H2    S    
C43   O26   A    
C11   C16   S    
C31   C32   A    
C23   C34   A    
Cr5   O26   S    
C17   C18   A    
Cr3   O15   S    
C37   C48   S    
C25   F9    S    
Cr4   O6    S    
Cr1   O17   S    
C46   O7    A    
C44   O23   A    
Cr1   O4    S    
C21   F6    S    
Cr6   O10   S    
Cr2   O14   S    
Cr4   O11   S    
C15   C17   A    
C54   C55   A    
Cr1   O1    S    
C9    F1    S    
C30   C46   S    
Cr5   O7    S    
C43   O2    A    
C14   H12   S    
C6    C10   A    
C28   O19   A    
C4    O15   A    
C18   H14   S    
C32   C33   A    
C2    C3    A    
C2    C56   A    
C55   H7    S    
C3    C53   A    
C26   C40   S    
C5    C6    A    
C54   F2    S    
C28   O18   A    
C4    O14   A    
C3    C45   A    
C22   C47   S    
C22   C24   A    
C35   C41   A    
C40   O12   A    
Cr6   O9    S    
Cr4   O5    S    
C42   O25   A    
Cr1   O18   S    
C46   O6    A    
C20   C21   A    
C16   O1    A    
Cr6   O3    S    
C14   C15   A    
Cr2   O13   S    
C23   H6    S    
C21   C22   A    
C27   F10   S    
