data_mof_unit_24552.cif
_audit_creation_date              2013-03-05T15:56:27-0500
_audit_creation_method            fapswitch 2.2
_symmetry_space_group_name_H-M    P1
_symmetry_Int_Tables_number       1
_space_group_crystal_system       triclinic
_cell_length_a                    7.164515
_cell_length_b                    14.690529
_cell_length_c                    16.005267
_cell_angle_alpha                 89.942114
_cell_angle_beta                  91.176399
_cell_angle_gamma                 88.697606
_cell_volume                      1683.77060159

loop_
_atom_site_label
_atom_site_type_symbol
_atom_site_description
_atom_site_fract_x
_atom_site_fract_y
_atom_site_fract_z
_atom_type_partial_charge
O1    O     O_R   0.494400 0.415640 0.412830 -0.569688
O2    O     O_R   0.823920 0.405510 0.586560 -0.543916
O3    O     O_R   0.994250 0.584360 0.587170 -0.583386
C1    C     C_R   0.655440 0.378482 0.611548 1.082596
O4    O     O_R   0.824110 0.404610 0.413450 -0.557513
O5    O     O_R   0.994440 0.583460 0.412820 -0.599913
C2    C     C_R   0.654870 0.382042 0.385183 1.014346
O6    O     O_R   0.494210 0.416540 0.587180 -0.550176
O7    O     O_3   0.660810 0.558680 0.500000 -0.263517
V1    V     V_3+5 0.935650 0.489110 0.500000 1.401369
O8    O     O_R   0.324150 0.594490 0.413440 -0.537275
C3    C     C_R   0.154786 0.615451 0.384184 1.010199
O9    O     O_R   0.323970 0.595390 0.586550 -0.560154
C4    C     C_R   0.156893 0.617700 0.614829 1.115848
V2    V     V_3+5 0.435660 0.510890 0.500000 1.407139
O10   O     O_3   0.160630 0.441320 0.500000 -0.226971
C5    C     C_3   0.006886 0.668987 0.751879 -0.037000
H1    H     H_    0.887053 0.698102 0.723816 0.154841
C6    C     C_3   0.022251 0.725440 0.835063 0.376419
C7    C     C_3   0.102620 0.793219 0.640450 0.186224
C8    C     C_3   0.343154 0.701349 0.734106 0.443509
C9    C     C_3   0.153200 0.692846 0.682715 -0.569180
C10   C     C_3   0.117970 0.818251 0.806360 -0.538429
C11   C     C_3   0.044219 0.864772 0.716716 0.352073
C12   C     C_3   0.325638 0.788352 0.790562 -0.450099
H2    H     H_    0.397289 0.777305 0.850904 0.290738
H3    H     H_    0.401248 0.845215 0.762576 0.275513
C13   C     C_R   0.962480 0.775725 0.213938 -0.055898
H4    H     H_    0.825116 0.795711 0.190001 0.150119
C14   C     C_R   0.975374 0.712087 0.279050 -0.079508
H5    H     H_    0.850929 0.684651 0.302871 0.227295
C15   C     C_R   0.147391 0.683200 0.313488 -0.282269
C16   C     C_R   0.310535 0.719788 0.278743 0.456877
C17   C     C_R   0.297956 0.783842 0.213845 -0.206593
H6    H     H_    0.425722 0.810319 0.189296 0.149252
C18   C     C_R   0.124269 0.812840 0.180585 -0.153288
C19   C     C_R   0.771001 0.232869 0.693972 0.392773
C20   C     C_R   0.736253 0.161900 0.749287 -0.068765
H7    H     H_    0.845446 0.111233 0.761985 0.223712
C21   C     C_R   0.594760 0.171276 0.805750 -0.389726
C22   C     C_R   0.449044 0.235411 0.786414 0.297644
C23   C     C_R   0.462034 0.289948 0.713404 0.323556
C24   C     C_R   0.633851 0.300029 0.673843 -0.475605
C25   C     C_R   0.777103 0.239287 0.309806 0.387110
C26   C     C_R   0.767621 0.177962 0.241839 -0.199064
H8    H     H_    0.871105 0.123285 0.237892 0.166495
C27   C     C_R   0.621311 0.182715 0.182018 -0.203342
C28   C     C_R   0.485580 0.252198 0.189937 -0.166139
H9    H     H_    0.372222 0.257925 0.144223 0.174124
C29   C     C_R   0.495753 0.316640 0.254948 0.406489
C30   C     C_R   0.642290 0.311611 0.316470 -0.438762
O11   O     O_R   0.771300 0.080930 0.910090 -0.572043
O12   O     O_R   0.441270 0.092800 0.083770 -0.603404
O13   O     O_R   0.271080 0.913920 0.084380 -0.600961
C31   C     C_R   0.610171 0.114616 0.112344 0.939063
O14   O     O_R   0.441580 0.091910 0.910670 -0.549248
O15   O     O_R   0.271390 0.913020 0.910040 -0.563453
C32   C     C_R   0.604534 0.112060 0.881359 1.076544
O16   O     O_R   0.770990 0.081830 0.084440 -0.607336
O17   O     O_3   0.604750 0.938760 0.997250 -0.258636
V3    V     V_3+5 0.329850 0.008280 0.997210 1.310714
O18   O     O_R   0.941680 0.901940 0.910610 -0.536510
C33   C     C_R   0.109214 0.885000 0.879383 1.179286
O19   O     O_R   0.941370 0.902830 0.083720 -0.607647
C34   C     C_R   0.111837 0.881264 0.111864 0.981533
V4    V     V_3+5 0.829860 0.986420 0.997150 1.306121
O20   O     O_3   0.104830 0.056030 0.997180 -0.272686
N1    N     N_R   0.263888 0.825119 0.590714 0.260023
O21   O     O_R   0.308607 0.782692 0.522044 -0.352579
O22   O     O_R   0.368416 0.892904 0.611905 -0.253014
N2    N     N_R   0.129312 0.954741 0.703049 0.258788
O23   O     O_R   0.076666 0.002532 0.637719 -0.234455
O24   O     O_R   0.243757 0.991875 0.756429 -0.369937
N3    N     N_R   0.491750 0.691948 0.307527 0.206614
O25   O     O_R   0.559283 0.613079 0.284539 -0.391227
O26   O     O_R   0.568708 0.735186 0.369737 -0.368914
N4    N     N_R   0.957081 0.255550 0.694864 0.256282
O27   O     O_R   0.076440 0.188619 0.683478 -0.303410
O28   O     O_R   0.992787 0.316144 0.751740 -0.284432
N5    N     N_R   0.300442 0.252539 0.843263 0.259245
O29   O     O_R   0.172631 0.192507 0.854669 -0.309074
O30   O     O_R   0.282846 0.332351 0.877723 -0.260287
N6    N     N_R   0.965925 0.571825 0.763150 0.282376
O31   O     O_R   0.802721 0.541866 0.741618 -0.306505
O32   O     O_R   0.088435 0.513897 0.793448 -0.196343
N7    N     N_R   0.298544 0.324298 0.671580 0.279501
O33   O     O_R   0.237632 0.405597 0.689404 -0.262625
O34   O     O_R   0.260653 0.292374 0.597183 -0.302967
N8    N     N_R   0.918497 0.223540 0.373574 0.262987
O35   O     O_R   0.082524 0.191685 0.353517 -0.338275
O36   O     O_R   0.874102 0.224979 0.452019 -0.353208
N9    N     N_R   0.358658 0.388965 0.255363 0.235758
O37   O     O_R   0.207808 0.379963 0.298163 -0.359604
O38   O     O_R   0.363870 0.452659 0.199029 -0.320965
N10   N     N_R   0.133769 0.677745 0.902611 0.259869
O39   O     O_R   0.084981 0.597247 0.926593 -0.201682
O40   O     O_R   0.218403 0.725640 0.959721 -0.393261
N11   N     N_R   0.835380 0.740278 0.870015 0.260186
O41   O     O_R   0.705278 0.780815 0.827018 -0.406429
O42   O     O_R   0.799810 0.718476 0.946946 -0.269908
I1    I     I_    0.908203 0.784589 0.530451 -0.042847
N12   N     N_R   0.841303 0.888520 0.717100 0.243013
O43   O     O_R   0.755157 0.907704 0.647049 -0.267982
O44   O     O_R   0.779799 0.937256 0.778700 -0.371199
I2    I     I_    0.572830 0.714801 0.657586 -0.058690
N13   N     N_R   0.396265 0.618421 0.782628 0.268500
O45   O     O_R   0.422388 0.542429 0.742784 -0.293093
O46   O     O_R   0.477285 0.624217 0.855909 -0.241654

loop_
_geom_bond_atom_site_label_1
_geom_bond_atom_site_label_2
_geom_bond_distance
_ccdc_geom_bond_type
C20   C21   1.376530 A    
C31   O16   1.324881 A    
C22   C23   1.421969 A    
O2    C1    1.347561 A    
N10   O39   1.300517 A    
C1    O6    1.323148 A    
C22   N5    1.432754 S    
O11   V4    1.997727 S    
O13   C34   1.330547 A    
N4    O27   1.303767 A    
C19   C20   1.397050 A    
N3    O26   1.301353 A    
N6    O31   1.298781 A    
C27   C31   1.500997 S    
C13   H4    1.082899 S    
O16   V4    2.023763 S    
O5    C3    1.340298 A    
C14   H5    1.064294 S    
N7    O34   1.305819 A    
N13   O45   1.298002 A    
V2    O10   2.240261 S    
C17   H6    1.083628 S    
C26   C27   1.405606 A    
O8    V2    1.993103 S    
C7    C11   1.665402 S    
N1    O21   1.306085 A    
C10   C11   1.659901 S    
O15   C33   1.326264 A    
C23   N7    1.419505 S    
N8    O36   1.301590 A    
O7    V1    2.197813 S    
C17   C18   1.400571 A    
C8    N13   1.482202 S    
C28   C29   1.409334 A    
V4    O20   2.240150 S    
O17   V4    1.772790 S    
C8    C9    1.583111 S    
C3    C15   1.505499 S    
O12   V3    2.025195 S    
C6    N11   1.473330 S    
C16   C17   1.401000 A    
O12   C31   1.330939 A    
C21   C32   1.489202 S    
N3    O25   1.301753 A    
O18   V4    2.025922 S    
N5    O30   1.300856 A    
N2    O24   1.300912 A    
N7    O33   1.296283 A    
C7    I1    2.227915 S    
C29   C30   1.425175 A    
C12   H2    1.094601 S    
C26   H8    1.083428 S    
C19   N4    1.381304 S    
O17   V3    2.197856 S    
C5    N6    1.475366 S    
O19   V4    1.993122 S    
C19   C24   1.408912 A    
C6    C10   1.610740 S    
O18   C33   1.328059 A    
V3    O20   1.743467 S    
C27   C28   1.401367 A    
N9    O38   1.300429 A    
C5    H1    1.043494 S    
N4    O28   1.299583 A    
N12   O44   1.297587 A    
O3    C4    1.341231 A    
O11   C32   1.341756 A    
O1    V2    2.020616 S    
C25   C30   1.425115 A    
C29   N9    1.430577 S    
C28   H9    1.083695 S    
N6    O32   1.295178 A    
C7    C9    1.651301 S    
O6    V2    1.997422 S    
N11   O42   1.303621 A    
O9    V2    2.025846 S    
C23   C24   1.406517 A    
O2    V1    2.038442 S    
C6    N10   1.495223 S    
C25   C26   1.414687 A    
O4    C2    1.334492 A    
C8    C12   1.570202 S    
C21   C22   1.419439 A    
O1    C2    1.325418 A    
C7    N1    1.499968 S    
N5    O29   1.301092 A    
O5    V1    2.022941 S    
O8    C3    1.321302 A    
N10   O40   1.302364 A    
O15   V3    2.021615 S    
O13   V3    2.022897 S    
C12   H3    1.105290 S    
C5    C9    1.584511 S    
C15   C16   1.420925 A    
C18   C34   1.489217 S    
C13   C14   1.399551 A    
O7    V2    1.773819 S    
C2    C30   1.513477 S    
N2    O23   1.303383 A    
O3    V1    2.021721 S    
V1    O10   1.743438 S    
O19   C34   1.324545 A    
C14   C15   1.396639 A    
C4    C9    1.549903 S    
C20   H7    1.083524 S    
N13   O46   1.301664 A    
C10   C33   1.527741 S    
N9    O37   1.300588 A    
C5    C6    1.572528 S    
C1    C24   1.535723 S    
O14   C32   1.307154 A    
C11   N12   1.487480 S    
C10   C12   1.567320 S    
N12   O43   1.296329 A    
C16   N3    1.419883 S    
O4    V1    2.025244 S    
C13   C18   1.406918 A    
N1    O22   1.300634 A    
N11   O41   1.282446 A    
O14   V3    2.038492 S    
N8    O35   1.301489 A    
O9    C4    1.322824 A    
C8    I2    2.084168 S    
C25   N8    1.437986 S    
C11   N2    1.485908 S    
