data_mof_unit_37719.cif
_audit_creation_date              2012-12-10T19:09:33-0500
_audit_creation_method            fapswitch 2.2
_symmetry_space_group_name_H-M    P1
_symmetry_Int_Tables_number       1
_space_group_crystal_system       triclinic
_cell_length_a                    9.538173
_cell_length_b                    10.858409
_cell_length_c                    17.133889
_cell_angle_alpha                 88.530535
_cell_angle_beta                  93.061913
_cell_angle_gamma                 91.658281
_cell_volume                      1770.75455149

loop_
_atom_site_label
_atom_site_type_symbol
_atom_type_description
_atom_site_fract_x
_atom_site_fract_y
_atom_site_fract_z
_atom_type_partial_charge
C1    C     C_R   0.498066 0.262682 0.500978 0.875629
C2    C     C_R   0.649212 0.465815 0.780788 0.405836
C3    C     C_R   0.599903 0.470928 0.140659 0.473107
C4    C     C_R   0.602497 0.466271 0.222528 0.221435
C5    C     C_R   0.473482 0.496129 0.097722 0.167742
C6    C     C_R   0.478229 0.487552 0.262334 -0.251616
C7    C     C_R   0.350536 0.505153 0.218084 0.357019
C8    C     C_R   0.350889 0.512035 0.136327 -0.394652
C9    C     C_R   0.570567 0.067757 0.449841 -0.091673
C10   C     C_R   0.491611 0.129828 0.500973 -0.196609
C11   C     C_R   0.401029 0.061746 0.549453 0.363753
C12   C     C_R   0.516268 0.498425 0.651223 0.861815
C13   C     C_R   0.408662 0.931364 0.553836 0.309855
C14   C     C_R   0.501826 0.871075 0.505847 -0.178066
C15   C     C_R   0.574459 0.941620 0.451500 -0.077601
C16   C     C_3   0.723573 0.942858 0.428805 -0.554008
C17   C     C_3   0.718203 0.084002 0.424681 0.983329
C18   C     C_R   0.069341 0.553921 0.439835 0.151390
C19   C     C_R   0.079009 0.432563 0.555292 0.542727
C20   C     C_R   0.927732 0.435360 0.555348 -0.183936
C21   C     C_R   0.922020 0.547522 0.437480 0.201793
C22   C     C_3   0.911010 0.674161 0.404010 0.020977
C23   C     C_R   0.501607 0.737591 0.501946 0.808626
C24   C     C_3   0.071163 0.686723 0.414339 0.708348
C25   C     C_R   0.483726 0.496276 0.348891 0.869382
C26   C     C_R   0.521584 0.489160 0.737811 -0.324032
C27   C     C_R   0.396527 0.497316 0.778370 0.393117
C28   C     C_R   0.395982 0.466170 0.858109 0.314234
C29   C     C_R   0.524780 0.444620 0.900411 0.131795
C30   C     C_R   0.648938 0.442445 0.861280 -0.304451
Cu1   Cu    Cu3+1 0.640670 0.499980 0.500000 1.001556
Cu2   Cu    Cu3+1 0.359330 0.500020 0.500000 1.080302
H1    H     H_    0.794112 0.910269 0.478280 0.183873
H2    H     H_    0.734965 0.897417 0.372665 0.165097
H3    H     H_    0.869691 0.385662 0.598992 0.201038
H4    H     H_    0.851228 0.732181 0.440972 0.105854
H5    H     H_    0.747040 0.424575 0.893894 0.199047
H6    H     H_    0.254383 0.529195 0.101978 0.189699
N1    N     N_2   0.533902 0.430439 0.982629 -0.190538
N2    N     N_2   0.465859 0.508672 0.015326 -0.177722
N3    N     N_R   0.147870 0.500930 0.499500 -0.237248
N4    N     N_R   0.851960 0.500890 0.499500 -0.232164
O1    O     O_R   0.618810 0.319640 0.500000 -0.553577
O2    O     O_R   0.381230 0.319680 0.499990 -0.540297
O3    O     O_R   0.631790 0.498830 0.613930 -0.562443
O4    O     O_R   0.394210 0.498870 0.613920 -0.494817
O5    O     O_R   0.618770 0.680320 0.500010 -0.598270
O6    O     O_R   0.381190 0.680360 0.500000 -0.517907
O7    O     O_R   0.605790 0.501130 0.386080 -0.548339
O8    O     O_R   0.368210 0.501170 0.386070 -0.519646
O9    O     O_3   0.729104 0.442977 0.261636 -0.630558
H7    H     H_    0.711777 0.374467 0.299447 0.357821
O10   O     O_3   0.330712 0.867631 0.608191 -0.734007
H8    H     H_    0.376546 0.789151 0.622667 0.321450
O11   O     O_3   0.807046 0.138981 0.483771 -0.592391
C31   C     C_3   0.946734 0.148241 0.460079 -0.249733
H9    H     H_    0.959439 0.227869 0.418726 0.201038
H10   H     H_    0.980820 0.062316 0.433416 0.125102
H11   H     H_    0.017911 0.164998 0.512189 0.192280
O12   O     O_3   0.728618 0.146607 0.350509 -0.607088
C32   C     C_3   0.653929 0.089267 0.287056 -0.435208
H12   H     H_    0.547886 0.053467 0.301304 0.173390
H13   H     H_    0.716869 0.015454 0.263811 0.183787
H14   H     H_    0.638182 0.159094 0.239250 0.187955
O13   O     O_3   0.161904 0.361940 0.607888 -0.504847
C33   C     C_3   0.089290 0.305707 0.669519 -0.200649
H15   H     H_    0.166819 0.259743 0.710202 0.207224
H16   H     H_    0.013783 0.233174 0.647527 0.134287
H17   H     H_    0.037196 0.374991 0.703745 0.198112
O14   O     O_3   0.861119 0.670344 0.325624 -0.622981
H18   H     H_    0.856165 0.757024 0.306548 0.316503
O15   O     O_3   0.143138 0.705493 0.344561 -0.500764
C34   C     C_3   0.160344 0.832155 0.325810 -0.243437
H19   H     H_    0.244315 0.874768 0.364670 0.176320
H20   H     H_    0.060960 0.882577 0.328835 0.105955
H21   H     H_    0.194178 0.841867 0.264974 0.181856
O16   O     O_3   0.723491 0.461838 0.102431 -0.523574
C35   C     C_3   0.761898 0.337108 0.102219 -0.240391
H22   H     H_    0.839367 0.327031 0.056906 0.178632
H23   H     H_    0.671117 0.273424 0.087377 0.127719
H24   H     H_    0.813629 0.308775 0.159163 0.197559
O17   O     O_3   0.119160 0.762534 0.476429 -0.729893
H25   H     H_    0.068213 0.840882 0.470595 0.283812
O18   O     O_3   0.774358 0.460561 0.744167 -0.565545
C36   C     C_3   0.845479 0.575741 0.751473 -0.277061
H26   H     H_    0.884953 0.590203 0.812930 0.172820
H27   H     H_    0.778215 0.653295 0.730309 0.149979
H28   H     H_    0.937302 0.576941 0.714484 0.186995
O19   O     O_3   0.226736 0.516127 0.255273 -0.645537
H29   H     H_    0.148002 0.527402 0.215767 0.354788
O20   O     O_3   0.267818 0.455659 0.891984 -0.710627
H30   H     H_    0.276809 0.399693 0.938428 0.338567
O21   O     O_3   0.271774 0.528805 0.739021 -0.524216
C37   C     C_3   0.242921 0.651948 0.755514 -0.244685
H31   H     H_    0.337711 0.714281 0.753732 0.133096
H32   H     H_    0.195990 0.657058 0.813257 0.194737
H33   H     H_    0.165177 0.686683 0.710394 0.188173
O22   O     O_3   0.315575 0.125142 0.596264 -0.704358
H34   H     H_    0.252496 0.066619 0.623674 0.358828

loop_
_geom_bond_atom_site_label_1
_geom_bond_atom_site_label_2
_ccdc_geom_bond_type
C33   H16   S    
O11   C31   S    
O21   C37   S    
Cu1   N4    S    
C18   C21   A    
C34   H20   S    
C34   H19   S    
C2    O18   S    
C19   C20   A    
C7    C8    A    
O10   H8    S    
C26   C27   A    
Cu1   O1    S    
C11   O22   S    
C18   C24   S    
C28   C29   A    
C35   H23   S    
C33   H17   S    
C15   C16   S    
C7    O19   S    
C31   H9    S    
C32   H13   S    
C24   O17   S    
C25   O8    A    
C16   H2    S    
C20   H3    S    
C1    O1    A    
C16   C17   S    
Cu2   N3    S    
O14   H18   S    
C9    C10   A    
C17   O11   S    
O16   C35   S    
C33   H15   S    
Cu1   O5    S    
C21   C22   S    
Cu2   O6    S    
C32   H12   S    
C8    H6    S    
Cu1   O7    S    
C13   O10   S    
C36   H27   S    
C23   O5    A    
C4    O9    S    
O9    H7    S    
O18   C36   S    
C12   O4    A    
C18   N3    A    
N1    N2    D    
C35   H22   S    
C12   O3    A    
C37   H33   S    
C36   H26   S    
C30   H5    S    
C12   C26   S    
O12   C32   S    
C14   C23   S    
C32   H14   S    
C29   C30   A    
C16   H1    S    
C1    O2    A    
Cu1   Cu2   S    
C29   N1    S    
Cu2   O2    S    
C2    C26   A    
C37   H32   S    
Cu2   O8    S    
C9    C17   S    
O22   H34   S    
C34   H21   S    
C22   C24   S    
C27   O21   S    
C4    C6    A    
C3    C4    A    
C3    O16   S    
O20   H30   S    
C24   O15   S    
C36   H28   S    
C23   O6    A    
Cu2   O4    S    
C1    C10   S    
O15   C34   S    
C3    C5    A    
C5    C8    A    
C20   N4    A    
C6    C7    A    
C22   H4    S    
C31   H11   S    
C2    C30   A    
C9    C15   A    
C11   C13   A    
C35   H24   S    
C31   H10   S    
C19   O13   S    
C28   O20   S    
O13   C33   S    
C37   H31   S    
C25   O7    A    
C10   C11   A    
C17   O12   S    
C21   N4    A    
C6    C25   S    
O17   H25   S    
Cu1   O3    S    
C5    N2    S    
C27   C28   A    
C14   C15   A    
O19   H29   S    
C13   C14   A    
C22   O14   S    
C19   N3    A    
