data_mof_unit_34542.cif
_audit_creation_date              2012-12-10T17:51:25-0500
_audit_creation_method            fapswitch 2.2
_symmetry_space_group_name_H-M    P1
_symmetry_Int_Tables_number       1
_space_group_crystal_system       triclinic
_cell_length_a                    9.865398
_cell_length_b                    10.724996
_cell_length_c                    16.676266
_cell_angle_alpha                 91.924526
_cell_angle_beta                  86.790395
_cell_angle_gamma                 89.182374
_cell_volume                      1760.46284328

loop_
_atom_site_label
_atom_site_type_symbol
_atom_type_description
_atom_site_fract_x
_atom_site_fract_y
_atom_site_fract_z
_atom_type_partial_charge
C1    C     C_R   0.498376 0.740243 0.495280 0.886660
C2    C     C_R   0.346317 0.471557 0.780327 -0.194570
C3    C     C_R   0.402676 0.334233 0.159306 -0.187796
C4    C     C_R   0.401230 0.391033 0.234915 -0.180997
C5    C     C_R   0.642585 0.430952 0.216777 -0.207225
C6    C     C_R   0.643297 0.375505 0.139895 -0.127175
C7    C     C_R   0.522432 0.329949 0.110556 0.140143
C8    C     C_2   0.433561 0.386511 0.986649 -0.278428
C9    C     C_2   0.513918 0.307833 0.024447 0.228970
C10   C     C_R   0.520437 0.442118 0.263833 -0.033463
C11   C     C_R   0.238308 0.893670 0.488153 -0.218224
C12   C     C_R   0.483341 0.496507 0.653654 0.892064
C13   C     C_R   0.119539 0.957925 0.515099 -0.201039
C14   C     C_R   0.127472 0.071200 0.557419 0.344619
C15   C     C_R   0.253603 0.125788 0.565169 -0.151483
C16   C     C_R   0.373399 0.066795 0.530459 0.044886
C17   C     C_R   0.367877 0.942501 0.503289 0.115456
C18   C     C_R   0.492861 0.874255 0.492502 -0.110534
C19   C     C_R   0.617056 0.935492 0.491585 -0.215014
C20   C     C_R   0.619238 0.062475 0.501417 -0.155487
C21   C     C_R   0.498010 0.128883 0.518590 -0.105247
C22   C     C_R   0.847168 0.666080 0.604507 -0.187311
C23   C     C_R   0.499648 0.261144 0.508206 0.883484
C24   C     C_R   0.911497 0.746810 0.656610 -0.184105
C25   C     C_R   0.051763 0.745594 0.657407 0.296705
C26   C     C_R   0.128186 0.664527 0.605349 -0.230454
C27   C     C_R   0.066324 0.581615 0.551660 0.120958
C28   C     C_R   0.921509 0.581989 0.551417 0.196710
C29   C     C_R   0.934210 0.421418 0.450893 -0.068640
C30   C     C_R   0.077656 0.421533 0.450855 -0.093466
C31   C     C_R   0.516726 0.490552 0.346805 0.863095
C32   C     C_R   0.475545 0.475220 0.740203 -0.137012
C33   C     C_R   0.592299 0.448641 0.783022 0.269126
C34   C     C_R   0.576768 0.419650 0.863288 -0.108100
C35   C     C_R   0.447736 0.409010 0.901014 0.152416
C36   C     C_R   0.332684 0.438470 0.860132 -0.122391
H1    H     H_    0.735934 0.374483 0.101771 0.159389
H2    H     H_    0.713240 0.885633 0.481900 0.173191
H3    H     H_    0.225655 0.808713 0.453085 0.183027
H4    H     H_    0.021610 0.917994 0.504648 0.157281
H5    H     H_    0.256836 0.214055 0.598340 0.187540
H6    H     H_    0.715873 0.108579 0.493835 0.198058
H7    H     H_    0.884806 0.357248 0.410940 0.138960
H8    H     H_    0.739240 0.670286 0.609250 0.224003
H9    H     H_    0.851619 0.809735 0.697040 0.206738
H10   H     H_    0.306041 0.394391 0.270648 0.155963
H11   H     H_    0.235199 0.670215 0.608514 0.229743
H12   H     H_    0.136676 0.357443 0.410879 0.138621
H13   H     H_    0.736194 0.466759 0.238744 0.153861
H14   H     H_    0.232434 0.435960 0.890053 0.165633
H15   H     H_    0.308624 0.300152 0.136797 0.148441
H16   H     H_    0.255009 0.492241 0.749762 0.200249
H17   H     H_    0.364634 0.450113 0.021694 0.146830
H18   H     H_    0.666694 0.406820 0.896610 0.190865
N1    N     N_R   0.857140 0.501200 0.500750 -0.105731
N2    N     N_R   0.142740 0.501280 0.500770 -0.114082
O1    O     O_R   0.385310 0.683220 0.500000 -0.648295
O2    O     O_R   0.614640 0.683250 0.500010 -0.646071
O3    O     O_R   0.371780 0.500010 0.615800 -0.640477
O4    O     O_R   0.601110 0.500030 0.615800 -0.583152
O5    O     O_R   0.385360 0.316750 0.499990 -0.631648
O6    O     O_R   0.614690 0.316780 0.500000 -0.597322
O7    O     O_R   0.398890 0.499970 0.384200 -0.623794
O8    O     O_R   0.628220 0.499990 0.384200 -0.620635
Zn1   Zn    Zn3+2 0.346870 0.499980 0.499990 0.936542
Zn2   Zn    Zn3+2 0.653130 0.500020 0.500010 0.978028
Br1   Br    Br    0.776889 0.443470 0.739039 -0.432009
Br2   Br    Br    0.966062 0.154680 0.600909 -0.468594
Br3   Br    Br    0.140217 0.855358 0.729716 -0.447571
Br4   Br    Br    0.627433 0.179259 0.971048 -0.450715

loop_
_geom_bond_atom_site_label_1
_geom_bond_atom_site_label_2
_ccdc_geom_bond_type
C8    H17   S    
C20   H6    S    
C24   C25   A    
O7    Zn1   S    
C16   C21   A    
C34   H18   S    
C29   C30   A    
C19   H2    S    
C1    O1    A    
C35   C36   A    
C29   H7    S    
C32   C33   A    
C27   N2    A    
C19   C20   A    
C17   C18   A    
C1    C18   S    
C6    H1    S    
O4    Zn2   S    
C5    C10   A    
O8    Zn2   S    
C4    H10   S    
C1    O2    A    
C12   C32   S    
C11   H3    S    
C11   C13   A    
C5    H13   S    
C26   C27   A    
C6    C7    A    
C2    H16   S    
C26   H11   S    
C9    Br4   S    
C24   H9    S    
C31   O8    A    
C22   C24   A    
C30   H12   S    
C22   C28   A    
C28   N1    A    
C33   C34   A    
C3    C7    A    
C21   C23   S    
O5    Zn1   S    
C5    C6    A    
C22   H8    S    
C25   Br3   S    
O6    Zn2   S    
C15   H5    S    
C4    C10   A    
C15   C16   A    
C12   O4    A    
C31   O7    A    
C23   O5    A    
N1    Zn2   S    
C36   H14   S    
C20   C21   A    
C33   Br1   S    
C2    C32   A    
C34   C35   A    
C2    C36   A    
C27   C28   A    
C7    C9    S    
C3    H15   S    
C14   C15   A    
C18   C19   A    
C13   H4    S    
C14   Br2   S    
C29   N1    A    
C25   C26   A    
C13   C14   A    
C12   O3    A    
C30   N2    A    
C10   C31   S    
O2    Zn2   S    
C23   O6    A    
O3    Zn1   S    
C3    C4    A    
N2    Zn1   S    
C16   C17   A    
O1    Zn1   S    
C8    C9    D    
C8    C35   S    
C11   C17   A    
