data_mof_unit_20287.cif
_audit_creation_date              2012-12-10T17:02:17-0500
_audit_creation_method            fapswitch 2.2
_symmetry_space_group_name_H-M    P1
_symmetry_Int_Tables_number       1
_space_group_crystal_system       triclinic
_cell_length_a                    10.733152
_cell_length_b                    10.628278
_cell_length_c                    10.03881
_cell_angle_alpha                 93.985911
_cell_angle_beta                  87.45442
_cell_angle_gamma                 89.843016
_cell_volume                      1141.25966698

loop_
_atom_site_label
_atom_site_type_symbol
_atom_type_description
_atom_site_fract_x
_atom_site_fract_y
_atom_site_fract_z
_atom_type_partial_charge
C1    C     C_R   0.503127 0.262409 0.494834 0.881998
C2    C     C_2   0.507818 0.129564 0.478105 0.030082
C3    C     C_2   0.446449 0.585426 0.935731 0.180235
C4    C     C_R   0.259780 0.493187 0.503458 0.932602
C5    C     C_2   0.435588 0.576447 0.084205 -0.117067
C6    C     C_R   0.489774 0.737393 0.505398 1.043289
C7    C     C_R   0.740089 0.504308 0.497167 0.913557
C8    C     C_R   0.094605 0.542423 0.757561 -0.159745
C9    C     C_R   0.023788 0.608432 0.859469 0.246865
C10   C     C_R   0.918763 0.675089 0.828793 -0.228744
C11   C     C_R   0.873145 0.661020 0.699985 -0.123058
C12   C     C_R   0.053729 0.532884 0.624973 0.067590
C13   C     C_R   0.932507 0.572615 0.603622 0.037661
C14   C     C_2   0.776761 0.751355 0.662744 0.969824
C15   C     C_2   0.303317 0.872956 0.354040 0.962006
C16   C     C_R   0.126129 0.483424 0.511857 -0.141098
C17   C     C_R   0.069500 0.438926 0.395801 -0.212050
C18   C     C_R   0.942517 0.446109 0.388163 0.187950
C19   C     C_R   0.873267 0.514928 0.491573 -0.139200
C20   C     C_2   0.395380 0.933044 0.443875 -0.033564
C21   C     C_2   0.467036 0.869953 0.522494 -0.307385
C22   C     C_2   0.399643 0.069483 0.461674 -0.237420
H1    H     H_    0.124094 0.394055 0.312121 0.198284
H2    H     H_    0.180974 0.731941 0.320269 0.367312
H3    H     H_    0.534214 0.420900 0.889948 0.165004
H4    H     H_    0.372018 0.640716 0.141991 0.210416
H5    H     H_    0.568707 0.447517 0.094692 0.180885
H6    H     H_    0.175804 0.493046 0.786555 0.188843
H7    H     H_    0.874469 0.738403 0.905802 0.178023
H8    H     H_    0.512622 0.919610 0.605250 0.217632
H9    H     H_    0.311999 0.121741 0.465448 0.150092
H10   H     H_    0.680266 0.759373 0.841779 0.313932
I1    I     I_    0.689323 0.053741 0.426376 -0.186401
I2    I     I_    0.359500 0.748230 0.871367 -0.220627
I3    I     I_    0.075923 0.611940 0.059640 -0.331262
I4    I     I_    0.868539 0.341213 0.220502 -0.245781
N1    N     N_2   0.501340 0.501330 0.852150 -0.219597
N2    N     N_2   0.501380 0.501360 0.147810 -0.200737
O1    O     O_R   0.499980 0.319060 0.613040 -0.611361
O2    O     O_R   0.687024 0.803873 0.755889 -0.755321
O3    O     O_2   0.273469 0.925149 0.255354 -0.572538
O4    O     O_R   0.245729 0.760612 0.385973 -0.809999
O5    O     O_R   0.500020 0.319100 0.386900 -0.598457
O6    O     O_R   0.316750 0.499980 0.613090 -0.632417
O7    O     O_R   0.316790 0.500020 0.386950 -0.594598
O8    O     O_R   0.499980 0.680900 0.613100 -0.577540
O9    O     O_R   0.500020 0.680940 0.386960 -0.594676
O10   O     O_R   0.683210 0.499980 0.613050 -0.632274
O11   O     O_R   0.683250 0.500020 0.386910 -0.576797
O12   O     O_2   0.777946 0.784065 0.548568 -0.580647
Zn1   Zn    Zn3+2 0.499970 0.499970 0.650990 0.993526
Zn2   Zn    Zn3+2 0.500030 0.500030 0.349010 1.022750

loop_
_geom_bond_atom_site_label_1
_geom_bond_atom_site_label_2
_ccdc_geom_bond_type
C2    C22   D    
O1    Zn1   S    
C4    C16   S    
O9    Zn2   S    
O6    Zn1   S    
H2    O4    S    
C21   H8    S    
O7    Zn2   S    
C8    C12   A    
O11   Zn2   S    
C7    O10   A    
C17   C18   A    
C14   O12   D    
C5    N2    D    
C12   C13   A    
C11   C13   A    
C10   H7    S    
C7    O11   A    
C17   H1    S    
N1    Zn1   S    
C2    I1    S    
C6    O9    A    
C20   C22   S    
C1    C2    S    
C7    C19   S    
C4    O7    A    
H10   O2    S    
C6    O8    A    
C15   C20   S    
C8    H6    S    
C11   C14   S    
O5    Zn2   S    
N2    Zn2   S    
C22   H9    S    
C13   C19   A    
H5    N2    S    
C14   O2    S    
C5    H4    S    
C9    C10   A    
C20   C21   D    
C3    N1    D    
C18   C19   A    
C10   C11   A    
C9    I3    S    
C1    O1    A    
C16   C17   A    
C4    O6    A    
C3    I2    S    
H3    N1    S    
C6    C21   S    
C18   I4    S    
O8    Zn1   S    
C1    O5    A    
O10   Zn1   S    
C12   C16   A    
C15   O4    S    
C15   O3    D    
C8    C9    A    
C3    C5    S    
