data_mof_unit_64355.cif
_audit_creation_date              2012-10-26T18:44:36-0400
_audit_creation_method            fapswitch 2.2
_symmetry_space_group_name_H-M    P1
_symmetry_Int_Tables_number       1
_space_group_crystal_system       triclinic
_cell_length_a                    13.040176
_cell_length_b                    16.008839
_cell_length_c                    14.7773
_cell_angle_alpha                 89.860115
_cell_angle_beta                  95.990362
_cell_angle_gamma                 90.050607
_cell_volume                      3068.02589064

loop_
_atom_site_label
_atom_site_type_symbol
_atom_type_description
_atom_site_fract_x
_atom_site_fract_y
_atom_site_fract_z
_atom_type_partial_charge
C1    C     C_R   0.500088 0.340930 0.500114 0.568765
C2    C     C_R   0.412381 0.477269 0.041744 0.369327
C3    C     C_R   0.497447 0.499806 0.902685 -0.089330
C4    C     C_R   0.501930 0.501163 0.097323 -0.089200
C5    C     C_R   0.408774 0.475970 0.945160 -0.005763
C6    C     C_R   0.590892 0.523976 0.054915 -0.005086
C7    C     C_1   0.499113 0.499864 0.802520 0.295995
C8    C     C_1   0.500768 0.500331 0.197490 0.295914
C9    C     C_R   0.300512 0.500713 0.483336 0.589504
C10   C     C_R   0.699509 0.499445 0.516606 0.588979
C11   C     C_R   0.811568 0.503126 0.525600 0.004506
C12   C     C_R   0.499915 0.659070 0.499886 0.571062
C13   C     C_R   0.188457 0.497532 0.473966 0.004628
C14   C     C_R   0.034138 0.427860 0.409373 -0.041582
C15   C     C_R   0.965707 0.573485 0.589654 -0.039186
C16   C     C_R   0.139117 0.441025 0.411891 0.368433
C17   C     C_R   0.860900 0.559503 0.587842 0.370005
C18   C     C_R   0.131838 0.543843 0.532895 0.007929
C19   C     C_R   0.868097 0.457934 0.465661 0.007712
C20   C     C_R   0.024699 0.529973 0.530863 -0.064167
C21   C     C_R   0.975239 0.471607 0.468027 -0.064283
C22   C     C_R   0.468738 0.953727 0.572312 -0.112040
C23   C     C_R   0.532130 0.958841 0.422488 0.061575
C24   C     C_R   0.531336 0.046270 0.427681 -0.112115
C25   C     C_R   0.500305 0.912650 0.496467 -0.013306
C26   C     C_R   0.499778 0.087346 0.503532 -0.012916
C27   C     C_2   0.814564 0.396756 0.401356 0.584390
C28   C     C_2   0.185206 0.607099 0.594764 0.586897
C29   C     C_2   0.433739 0.080826 0.660744 0.602215
C30   C     C_2   0.566378 0.919171 0.339253 0.603977
C31   C     C_2   0.688777 0.548714 0.109590 0.642883
C32   C     C_2   0.311552 0.449046 0.890683 0.639267
C33   C     C_R   0.467963 0.041153 0.577508 0.062869
C34   C     C_1   0.500157 0.823011 0.498016 0.033758
C35   C     C_1   0.499882 0.176986 0.501981 0.033082
C36   C     C_1   0.500048 0.251955 0.500648 0.079488
C37   C     C_1   0.499968 0.748043 0.499351 0.082335
C38   C     C_R   0.587248 0.523076 0.958371 0.368540
Cu1   Cu    Cu3+1 0.500030 0.500000 0.589220 1.165183
Cu2   Cu    Cu3+1 0.499970 0.500000 0.410780 1.169019
F1    F     F_    0.806418 0.605041 0.643792 -0.572825
F2    F     F_    0.193647 0.394844 0.356547 -0.573630
F3    F     F_    0.671472 0.546690 0.917605 -0.537255
F4    F     F_    0.327203 0.456486 0.082644 -0.536180
H1    H     H_    0.000457 0.381543 0.362131 0.199257
H2    H     H_    0.178933 0.383216 0.886054 0.359968
H3    H     H_    0.999102 0.619999 0.636724 0.201108
H4    H     H_    0.445231 0.916661 0.628116 0.183450
H5    H     H_    0.554844 0.083343 0.371885 0.183685
H6    H     H_    0.775272 0.363016 0.270904 0.355193
H7    H     H_    0.222826 0.646369 0.723534 0.361255
H8    H     H_    0.370900 0.065068 0.778934 0.365966
H9    H     H_    0.628622 0.935011 0.220787 0.367705
H10   H     H_    0.844166 0.554780 0.118529 0.365498
N1    N     N_1   0.500030 0.499980 0.276710 -0.144311
N2    N     N_1   0.499970 0.500020 0.723290 -0.144880
O1    O     O_R   0.500050 0.380310 0.575330 -0.494332
O2    O     O_R   0.815733 0.407808 0.307574 -0.662551
O3    O     O_2   0.233648 0.663699 0.563220 -0.508070
O4    O     O_R   0.182484 0.600340 0.688811 -0.636656
O5    O     O_2   0.443202 0.155952 0.673742 -0.487374
O6    O     O_R   0.390901 0.031430 0.725441 -0.675172
O7    O     O_2   0.557565 0.843961 0.326542 -0.478641
O8    O     O_R   0.608527 0.968657 0.274240 -0.674541
O9    O     O_2   0.687256 0.580943 0.184386 -0.486777
O10   O     O_R   0.783369 0.535547 0.075178 -0.563530
O11   O     O_2   0.291661 0.472292 0.811951 -0.484660
O12   O     O_R   0.499950 0.619690 0.424670 -0.487613
O13   O     O_R   0.241922 0.396968 0.929660 -0.565233
O14   O     O_R   0.500000 0.380310 0.424640 -0.483117
O15   O     O_R   0.500000 0.619690 0.575360 -0.481982
O16   O     O_R   0.349020 0.499990 0.563110 -0.490499
O17   O     O_R   0.650980 0.500010 0.436890 -0.492004
O18   O     O_R   0.348970 0.499990 0.412410 -0.442506
O19   O     O_R   0.651030 0.500010 0.587590 -0.442680
O20   O     O_2   0.767344 0.338277 0.430648 -0.505331

loop_
_geom_bond_atom_site_label_1
_geom_bond_atom_site_label_2
_ccdc_geom_bond_type
C31   O10   S    
C22   H4    S    
C30   O8    S    
C34   C37   T    
C35   C36   T    
C9    O16   A    
C15   H3    S    
C4    C8    S    
C12   O12   A    
C11   C19   A    
Cu2   O14   S    
C13   C18   A    
C14   C21   A    
C19   C21   A    
C24   C26   A    
C3    C7    S    
C10   O17   A    
Cu1   O1    S    
C29   C33   S    
Cu2   O17   S    
C31   O9    D    
C12   C37   S    
C9    C13   S    
H2    O13   S    
C3    C38   A    
C2    F4    S    
C22   C25   A    
C23   C24   A    
C6    C38   A    
Cu1   O19   S    
C19   C27   S    
C25   C34   S    
C5    C32   S    
C6    C31   S    
C30   O7    D    
C7    N2    T    
C8    N1    T    
C14   H1    S    
C28   O4    S    
C15   C20   A    
C29   O5    D    
H6    O2    S    
C23   C30   S    
C18   C28   S    
C4    C6    A    
Cu1   Cu2   S    
C2    C4    A    
C1    O1    A    
C10   O19   A    
C26   C33   A    
Cu1   N2    S    
Cu1   O16   S    
Cu2   N1    S    
C32   O11   D    
C12   O15   A    
C14   C16   A    
C2    C5    A    
C9    O18   A    
C27   O20   D    
C16   F2    S    
C28   O3    D    
C24   H5    S    
C15   C17   A    
C22   C33   A    
C29   O6    S    
C11   C17   A    
C3    C5    A    
C27   O2    S    
C32   O13   S    
H10   O10   S    
C1    O14   A    
C38   F3    S    
H8    O6    S    
H9    O8    S    
Cu2   O18   S    
C18   C20   A    
C23   C25   A    
C17   F1    S    
C10   C11   S    
C26   C35   S    
C20   C21   A    
Cu2   O12   S    
C13   C16   A    
Cu1   O15   S    
H7    O4    S    
C1    C36   S    
