data_mof_unit_39260.cif
_audit_creation_date              2012-12-11T14:44:21-0500
_audit_creation_method            fapswitch 2.2
_symmetry_space_group_name_H-M    P1
_symmetry_Int_Tables_number       1
_space_group_crystal_system       triclinic
_cell_length_a                    18.870733
_cell_length_b                    10.995555
_cell_length_c                    18.77701
_cell_angle_alpha                 90.115271
_cell_angle_beta                  89.467437
_cell_angle_gamma                 89.963572
_cell_volume                      3895.94331781

loop_
_atom_site_label
_atom_site_type_symbol
_atom_type_description
_atom_site_fract_x
_atom_site_fract_y
_atom_site_fract_z
_atom_type_partial_charge
C1    C     C_R   0.731847 0.382047 0.147574 0.535009
C2    C     C_R   0.268127 0.382186 0.852390 0.537862
C3    C     C_R   0.231847 0.882047 0.147574 0.535007
C4    C     C_R   0.768127 0.882186 0.852390 0.537862
C5    C     C_R   0.509261 0.387956 0.926718 -0.100685
C6    C     C_R   0.490401 0.387894 0.073966 -0.100431
C7    C     C_R   0.009261 0.887956 0.926719 -0.100685
C8    C     C_R   0.990401 0.887894 0.073966 -0.100431
C9    C     C_R   0.004403 0.997110 0.963735 -0.061311
C10   C     C_R   0.995333 0.997083 0.037257 -0.061846
C11   C     C_R   0.504403 0.497110 0.963735 -0.061311
C12   C     C_R   0.495333 0.497083 0.037257 -0.061846
C13   C     C_R   0.675643 0.948580 0.026423 -0.109967
C14   C     C_R   0.324284 0.948450 0.973565 -0.109761
C15   C     C_R   0.175643 0.448580 0.026423 -0.109966
C16   C     C_R   0.824284 0.448450 0.973565 -0.109761
C17   C     C_R   0.681759 0.920073 0.953902 -0.123925
C18   C     C_R   0.318166 0.919954 0.046038 -0.124099
C19   C     C_R   0.181759 0.420073 0.953902 -0.123925
C20   C     C_R   0.818166 0.419954 0.046038 -0.124098
C21   C     C_R   0.744626 0.945686 0.917678 -0.020616
C22   C     C_R   0.255211 0.945293 0.082270 -0.020822
C23   C     C_R   0.244626 0.445687 0.917678 -0.020616
C24   C     C_R   0.755211 0.445293 0.082270 -0.020821
C25   C     C_R   0.792659 0.025829 0.948779 -0.076411
C26   C     C_R   0.207019 0.025205 0.051244 -0.076342
C27   C     C_R   0.292660 0.525829 0.948779 -0.076411
C28   C     C_R   0.707019 0.525205 0.051244 -0.076342
C29   C     C_R   0.787513 0.058905 0.020075 0.016333
C30   C     C_R   0.212276 0.058554 0.980070 0.016164
C31   C     C_R   0.287513 0.558905 0.020075 0.016332
C32   C     C_R   0.712276 0.558554 0.980070 0.016164
C33   C     C_R   0.730706 0.010024 0.061868 -0.022534
C34   C     C_R   0.269170 0.009830 0.938202 -0.023101
C35   C     C_R   0.230706 0.510024 0.061868 -0.022536
C36   C     C_R   0.769170 0.509830 0.938202 -0.023100
C37   C     C_R   0.464353 0.064193 0.450844 0.145091
C38   C     C_R   0.466245 0.052578 0.523936 0.137904
C39   C     C_R   0.964365 0.564158 0.450844 0.145082
C40   C     C_R   0.966264 0.552561 0.523937 0.137862
C41   C     C_R   0.479463 0.157185 0.567210 0.007683
C42   C     C_R   0.492953 0.169199 0.419602 0.001515
C43   C     C_R   0.979442 0.657193 0.567202 0.007681
C44   C     C_R   0.992929 0.669186 0.419592 0.001513
C45   C     C_R   0.531166 0.155297 0.146969 0.527303
C46   C     C_R   0.468798 0.155367 0.853072 0.533291
C47   C     C_R   0.031166 0.655297 0.146969 0.527307
C48   C     C_R   0.968798 0.655367 0.853072 0.533289
C49   C     C_R   0.496192 0.267951 0.534683 -0.179969
C50   C     C_R   0.505176 0.273106 0.461369 -0.171666
C51   C     C_R   0.996110 0.767978 0.534663 -0.179826
C52   C     C_R   0.005098 0.773123 0.461348 -0.171602
C53   C     C_R   0.816455 0.934983 0.456684 -0.140851
C54   C     C_R   0.221021 0.033843 0.525841 -0.121991
C55   C     C_R   0.316451 0.434625 0.456644 -0.140907
C56   C     C_R   0.720941 0.533753 0.525857 -0.122014
C57   C     C_R   0.821598 0.926278 0.529374 -0.128121
C58   C     C_R   0.219011 0.017048 0.453250 -0.136368
C59   C     C_R   0.321628 0.425851 0.529333 -0.128098
C60   C     C_R   0.718944 0.516987 0.453265 -0.136393
C61   C     C_R   0.761423 0.899419 0.571140 0.031451
C62   C     C_R   0.248657 0.912305 0.423823 0.040949
C63   C     C_R   0.261430 0.399381 0.571142 0.031402
C64   C     C_R   0.748656 0.412316 0.423822 0.040915
C65   C     C_R   0.696270 0.877226 0.538892 -0.152236
C66   C     C_R   0.283402 0.826897 0.467150 -0.090746
C67   C     C_R   0.196211 0.377602 0.538949 -0.152322
C68   C     C_R   0.783456 0.326960 0.467136 -0.090739
C69   C     C_R   0.690739 0.888458 0.465555 -0.140219
C70   C     C_R   0.285035 0.843573 0.540249 -0.142297
C71   C     C_R   0.190652 0.388874 0.465619 -0.140234
C72   C     C_R   0.785085 0.343618 0.540237 -0.142259
C73   C     C_R   0.750584 0.921391 0.424667 0.024334
C74   C     C_R   0.252926 0.946289 0.569704 0.026153
C75   C     C_R   0.250537 0.421430 0.424682 0.024266
C76   C     C_R   0.752913 0.446261 0.569708 0.026175
C77   C     C_R   0.727123 0.024302 0.140361 0.558746
C78   C     C_R   0.272825 0.024299 0.859729 0.558835
C79   C     C_R   0.227123 0.524302 0.140361 0.558747
C80   C     C_R   0.772825 0.524299 0.859729 0.558835
C81   C     C_R   0.729997 0.377984 0.352338 0.546211
C82   C     C_R   0.272098 0.374607 0.645828 0.549095
C83   C     C_R   0.229997 0.877983 0.352338 0.546198
C84   C     C_R   0.772096 0.874613 0.645827 0.549128
C85   C     C_R   0.529306 0.157836 0.351477 0.540652
C86   C     C_R   0.463019 0.155055 0.643351 0.548878
C87   C     C_R   0.029301 0.657834 0.351474 0.540623
C88   C     C_R   0.963011 0.655056 0.643346 0.548902
C89   C     C_R   0.741481 0.970005 0.353926 0.557033
C90   C     C_R   0.259246 0.974659 0.644329 0.553423
C91   C     C_R   0.241472 0.470022 0.353934 0.557004
C92   C     C_R   0.759244 0.474651 0.644331 0.553446
C93   C     C_R   0.497373 0.163498 0.925357 0.002054
C94   C     C_R   0.502498 0.163389 0.074746 0.002787
C95   C     C_R   0.997373 0.663498 0.925357 0.002055
C96   C     C_R   0.002498 0.663389 0.074746 0.002786
C97   C     C_R   0.501755 0.275702 0.962461 0.026924
C98   C     C_R   0.497970 0.275653 0.037929 0.027839
C99   C     C_R   0.001755 0.775702 0.962461 0.026925
C100  C     C_R   0.997970 0.775653 0.037929 0.027839
C101  C     C_R   0.500088 0.054273 0.036422 -0.160857
C102  C     C_R   0.499934 0.054326 0.963412 -0.160709
C103  C     C_R   0.000087 0.554273 0.036422 -0.160857
C104  C     C_R   0.999934 0.554327 0.963412 -0.160709
Cr1   Cr    Cr6+3 0.772000 0.169640 0.250110 0.995627
Cr2   Cr    Cr6+3 0.228000 0.169640 0.749890 0.995474
Cr3   Cr    Cr6+3 0.272000 0.669640 0.250110 0.995643
Cr4   Cr    Cr6+3 0.728000 0.669640 0.749890 0.995466
Cr5   Cr    Cr6+3 0.614960 0.323350 0.249260 1.006289
Cr6   Cr    Cr6+3 0.385040 0.323350 0.750740 1.007902
Cr7   Cr    Cr6+3 0.114960 0.823350 0.249260 1.006300
Cr8   Cr    Cr6+3 0.885040 0.823350 0.750740 1.007910
Cr9   Cr    Cr6+3 0.616670 0.010620 0.250840 1.012215
Cr10  Cr    Cr6+3 0.383330 0.010620 0.749160 1.012163
Cr11  Cr    Cr6+3 0.116670 0.510620 0.250840 1.012194
Cr12  Cr    Cr6+3 0.883330 0.510620 0.749160 1.012160
H1    H     H_    0.501882 0.966696 0.062684 0.154668
H2    H     H_    0.498287 0.966753 0.936933 0.154751
H3    H     H_    0.001882 0.466696 0.062684 0.154668
H4    H     H_    0.998286 0.466753 0.936933 0.154750
H5    H     H_    0.863287 0.959342 0.426052 0.131649
H6    H     H_    0.197821 0.116116 0.547637 0.142930
H7    H     H_    0.363303 0.458696 0.425967 0.131627
H8    H     H_    0.697680 0.615963 0.547662 0.142866
H9    H     H_    0.873392 0.939091 0.552583 0.140896
H10   H     H_    0.191901 0.083157 0.420517 0.126185
H11   H     H_    0.373456 0.438325 0.552513 0.140983
H12   H     H_    0.691787 0.583054 0.420544 0.126169
H13   H     H_    0.650014 0.852535 0.570253 0.119199
H14   H     H_    0.305679 0.743933 0.445178 0.148868
H15   H     H_    0.149928 0.353234 0.570351 0.119195
H16   H     H_    0.805783 0.244048 0.445153 0.148848
H17   H     H_    0.639073 0.878112 0.441608 0.139764
H18   H     H_    0.310705 0.776716 0.573595 0.118717
H19   H     H_    0.138947 0.378875 0.441718 0.139932
H20   H     H_    0.810798 0.276800 0.573573 0.118671
H21   H     H_    0.520833 0.393185 0.870365 0.135499
H22   H     H_    0.478788 0.393078 0.130329 0.133660
H23   H     H_    0.020833 0.893185 0.870365 0.135498
H24   H     H_    0.978788 0.893078 0.130329 0.133661
H25   H     H_    0.007490 0.082085 0.934954 0.175102
H26   H     H_    0.992249 0.082045 0.066263 0.173594
H27   H     H_    0.507490 0.582085 0.934954 0.175103
H28   H     H_    0.492249 0.582045 0.066263 0.173593
H29   H     H_    0.629072 0.918410 0.055316 0.174641
H30   H     H_    0.370949 0.918447 0.944653 0.173978
H31   H     H_    0.129071 0.418410 0.055316 0.174642
H32   H     H_    0.870949 0.418447 0.944653 0.173978
H33   H     H_    0.639109 0.874346 0.926992 0.151209
H34   H     H_    0.360913 0.874527 0.072912 0.151070
H35   H     H_    0.139109 0.374347 0.926992 0.151208
H36   H     H_    0.860914 0.374527 0.072912 0.151071
H37   H     H_    0.837884 0.057209 0.918031 0.194972
H38   H     H_    0.161660 0.056404 0.081963 0.194730
H39   H     H_    0.337884 0.557209 0.918031 0.194973
H40   H     H_    0.661659 0.556404 0.081962 0.194730
H41   H     H_    0.505139 0.349124 0.566133 0.133511
H42   H     H_    0.525669 0.356128 0.438047 0.146508
H43   H     H_    0.005013 0.849175 0.566104 0.133518
H44   H     H_    0.025554 0.856165 0.438018 0.146466
O1    O     O_R   0.787540 0.042690 0.170470 -0.545326
O2    O     O_R   0.212460 0.042690 0.829530 -0.542287
O3    O     O_R   0.287540 0.542690 0.170470 -0.545324
O4    O     O_R   0.712460 0.542690 0.829530 -0.542289
O5    O     O_R   0.556540 0.252920 0.323970 -0.502763
O6    O     O_R   0.443460 0.252920 0.676030 -0.503046
O7    O     O_R   0.056540 0.752920 0.323970 -0.502740
O8    O     O_R   0.943460 0.752920 0.676030 -0.503016
O9    O     O_R   0.545870 0.051100 0.330840 -0.527883
O10   O     O_R   0.454130 0.051100 0.669160 -0.533248
O11   O     O_R   0.045870 0.551100 0.330840 -0.527941
O12   O     O_R   0.954130 0.551100 0.669160 -0.533260
O13   O     O_R   0.681340 0.959300 0.325510 -0.499397
O14   O     O_R   0.318660 0.959300 0.674490 -0.511283
O15   O     O_R   0.181340 0.459300 0.325510 -0.499433
O16   O     O_R   0.818660 0.459300 0.674490 -0.511263
O17   O     O_3   0.667880 0.167870 0.250070 -0.259616
O18   O     O_3   0.332120 0.167870 0.749930 -0.264946
O19   O     O_3   0.167880 0.667870 0.250070 -0.259628
O20   O     O_3   0.832120 0.667870 0.749930 -0.264934
O21   O     O_R   0.765660 0.292160 0.175050 -0.537918
O22   O     O_R   0.234340 0.292160 0.824950 -0.536487
O23   O     O_R   0.265660 0.792160 0.175050 -0.537918
O24   O     O_R   0.734340 0.792160 0.824950 -0.536485
O25   O     O_R   0.670190 0.408980 0.168550 -0.521460
O26   O     O_R   0.329810 0.408980 0.831450 -0.519922
O27   O     O_R   0.170190 0.908980 0.168550 -0.521460
O28   O     O_R   0.829810 0.908980 0.831450 -0.519926
O29   O     O_R   0.556580 0.251450 0.175160 -0.509038
O30   O     O_R   0.443420 0.251450 0.824840 -0.506400
O31   O     O_R   0.056580 0.751450 0.175160 -0.509037
O32   O     O_R   0.943420 0.751450 0.824840 -0.506402
O33   O     O_R   0.545920 0.049510 0.170320 -0.535358
O34   O     O_R   0.454080 0.049510 0.829680 -0.531329
O35   O     O_R   0.045920 0.549510 0.170320 -0.535352
O36   O     O_R   0.954080 0.549510 0.829680 -0.531332
O37   O     O_R   0.681390 0.957840 0.176710 -0.488526
O38   O     O_R   0.318610 0.957840 0.823290 -0.485909
O39   O     O_R   0.181390 0.457840 0.176710 -0.488514
O40   O     O_R   0.818610 0.457840 0.823290 -0.485915
O41   O     O_R   0.787500 0.044280 0.330990 -0.523422
O42   O     O_R   0.212500 0.044280 0.669010 -0.519463
O43   O     O_R   0.287500 0.544280 0.330990 -0.523371
O44   O     O_R   0.712500 0.544280 0.669010 -0.519501
O45   O     O_R   0.765610 0.293630 0.323860 -0.506006
O46   O     O_R   0.234390 0.293630 0.676140 -0.508018
O47   O     O_R   0.265610 0.793630 0.323860 -0.506000
O48   O     O_R   0.734390 0.793630 0.676140 -0.508023
O49   O     O_R   0.670140 0.410570 0.329080 -0.520073
O50   O     O_R   0.329860 0.410570 0.670920 -0.524868
O51   O     O_R   0.170140 0.910570 0.329080 -0.520049
O52   O     O_R   0.829860 0.910570 0.670920 -0.524889
C105  C     C_2   0.844133 0.141476 0.046573 0.187384
H45   H     H_    0.848774 0.168837 0.101193 0.165032
O53   O     O_2   0.887766 0.184757 0.005359 -0.587441
C106  C     C_2   0.155769 0.141455 0.953757 0.186993
H46   H     H_    0.151230 0.168876 0.899195 0.164772
O54   O     O_2   0.112181 0.185000 0.995059 -0.587398
C107  C     C_2   0.344133 0.641476 0.046573 0.187383
H47   H     H_    0.348774 0.668837 0.101193 0.165031
O55   O     O_2   0.387766 0.684757 0.005359 -0.587440
C108  C     C_2   0.655769 0.641455 0.953757 0.186993
H48   H     H_    0.651230 0.668876 0.899195 0.164773
O56   O     O_2   0.612181 0.685000 0.995059 -0.587399
N1    N     N_3   0.437524 0.964271 0.409425 -0.593179
H49   H     H_    0.478393 0.901855 0.400118 0.255989
H50   H     H_    0.417862 0.995646 0.360916 0.229485
N2    N     N_3   0.458083 0.931455 0.551237 -0.610118
H51   H     H_    0.411192 0.924387 0.580364 0.276288
H52   H     H_    0.502023 0.908728 0.582013 0.234875
N3    N     N_3   0.937567 0.464199 0.409435 -0.593211
H53   H     H_    0.978454 0.401813 0.400137 0.255967
H54   H     H_    0.917896 0.495540 0.360922 0.229519
N4    N     N_3   0.958149 0.431436 0.551248 -0.610176
H55   H     H_    0.911261 0.424319 0.580375 0.276274
H56   H     H_    0.002098 0.408768 0.582028 0.234830

loop_
_geom_bond_atom_site_label_1
_geom_bond_atom_site_label_2
_ccdc_geom_bond_type
C58   C62   A    
C89   O41   A    
C62   C83   S    
C52   H44   S    
C101  C102  A    
C56   C76   A    
C48   C95   S    
C55   C59   A    
C77   O37   A    
C14   C18   A    
C81   O49   A    
C86   O6    A    
C89   O13   A    
C72   C76   A    
C43   C51   A    
C49   C50   A    
C1    O21   A    
C97   C98   A    
C105  H45   S    
C50   H42   S    
C15   C19   A    
C41   C86   S    
Cr4   O4    S    
Cr4   O20   S    
C7    C99   A    
C88   O12   A    
C43   C88   S    
Cr8   O52   S    
C47   O35   A    
C56   C60   A    
C106  O54   D    
C5    C11   A    
C6    C12   A    
Cr12  O40   S    
C95   C99   A    
C72   H20   S    
Cr8   O32   S    
Cr6   O18   S    
C59   H11   S    
Cr8   O8    S    
C29   C33   A    
Cr12  O12   S    
Cr10  O10   S    
C10   H26   S    
C15   C35   A    
C37   C42   A    
C68   H16   S    
Cr11  O39   S    
C101  H1    S    
Cr2   O22   S    
C83   O47   A    
C103  C104  A    
Cr1   O21   S    
C54   C74   A    
Cr9   O37   S    
C29   C105  S    
C40   C43   A    
C80   O4    A    
C20   C24   A    
C94   C101  A    
Cr5   O29   S    
C88   O8    A    
C107  H47   S    
C70   C74   A    
C19   H35   S    
C47   C96   S    
C69   C73   A    
C13   H29   S    
C44   C87   S    
C66   H14   S    
C9    C10   A    
C34   C78   S    
Cr3   O47   S    
C92   O44   A    
Cr4   O48   S    
Cr8   O20   S    
C55   C75   A    
C44   C52   A    
C37   N1    S    
Cr9   O17   S    
C54   H6    S    
C18   C22   A    
C48   O36   A    
Cr7   O19   S    
Cr7   O27   S    
C49   H41   S    
Cr3   O43   S    
Cr6   O50   S    
N4    H56   S    
C46   O30   A    
Cr5   O49   S    
C45   C94   S    
C41   C49   A    
N2    H51   S    
C83   O51   A    
C46   O34   A    
C31   C107  S    
C105  O53   D    
C25   C29   A    
C55   H7    S    
C79   O39   A    
C30   C34   A    
C63   C82   S    
C25   H37   S    
C51   C52   A    
C6    C98   A    
C2    O22   A    
Cr7   O31   S    
C60   H12   S    
C62   C66   A    
C106  H46   S    
C38   C41   A    
Cr11  O11   S    
C36   C80   S    
Cr1   O17   S    
C39   C40   A    
Cr4   O24   S    
C82   O50   A    
Cr9   O9    S    
Cr10  O18   S    
C27   C31   A    
Cr6   O30   S    
C85   O9    A    
C12   H28   S    
Cr3   O23   S    
C68   C72   A    
C15   H31   S    
C45   O33   A    
C6    H22   S    
C19   C23   A    
C2    O26   A    
C63   C67   A    
C39   N3    S    
C37   C38   A    
C61   C65   A    
C65   H13   S    
C107  O55   D    
Cr9   O33   S    
C84   O48   A    
C93   C97   A    
Cr1   O41   S    
C99   C100  A    
C28   C32   A    
C16   C20   A    
C87   O11   A    
C84   O52   A    
N1    H49   S    
Cr9   O13   S    
Cr11  O15   S    
N3    H54   S    
C42   C85   S    
C4    O24   A    
C108  O56   D    
C69   H17   S    
Cr5   O5    S    
C76   C92   S    
Cr12  O16   S    
C40   N4    S    
Cr2   O46   S    
C42   C50   A    
C58   H10   S    
C23   C27   A    
Cr12  O20   S    
Cr10  O38   S    
N2    H52   S    
C38   N2    S    
C53   C73   A    
C7    H23   S    
Cr7   O7    S    
N4    H55   S    
C28   H40   S    
Cr11  O19   S    
C64   C68   A    
N3    H53   S    
C95   C104  A    
C78   O2    A    
C81   O45   A    
Cr8   O28   S    
C54   C58   A    
C45   O29   A    
C7    C9    A    
C21   C25   A    
Cr3   O3    S    
Cr6   O26   S    
C9    H25   S    
Cr10  O34   S    
C80   O40   A    
Cr3   O19   S    
C86   O10   A    
C17   H33   S    
C71   H19   S    
C92   O16   A    
C103  H3    S    
C24   C28   A    
C79   O3    A    
C3    C22   S    
C61   C84   S    
C3    O27   A    
C93   C102  A    
C14   C34   A    
C32   C108  S    
C11   C12   A    
C32   C36   A    
C47   O31   A    
C57   C61   A    
C39   C44   A    
Cr1   O45   S    
C75   C91   S    
C27   H39   S    
C87   O7    A    
C14   H30   S    
C59   C63   A    
C82   O46   A    
C60   C64   A    
C8    H24   S    
Cr5   O25   S    
C1    O25   A    
C4    O28   A    
C30   C106  S    
C8    C100  A    
C85   O5    A    
C5    H21   S    
Cr4   O44   S    
C53   H5    S    
C16   C36   A    
C57   H9    S    
C71   C75   A    
C4    C21   S    
Cr6   O6    S    
C33   C77   S    
C16   H32   S    
C66   C70   A    
C46   C93   S    
C11   H27   S    
C65   C69   A    
C74   C90   S    
C96   C100  A    
C31   C35   A    
C51   H43   S    
N1    H50   S    
C77   O1    A    
C53   C57   A    
C5    C97   A    
C67   C71   A    
Cr2   O2    S    
Cr11  O35   S    
C108  H48   S    
C67   H15   S    
C102  H2    S    
Cr7   O51   S    
C64   C81   S    
C48   O32   A    
C26   H38   S    
C90   O14   A    
C73   C89   S    
C13   C17   A    
Cr12  O36   S    
Cr5   O17   S    
Cr10  O14   S    
C20   H36   S    
Cr2   O42   S    
C1    C24   S    
C8    C10   A    
C13   C33   A    
C22   C26   A    
C96   C103  A    
C2    C23   S    
C70   H18   S    
C94   C98   A    
C56   H8    S    
Cr1   O1    S    
C35   C79   S    
C78   O38   A    
C104  H4    S    
C18   H34   S    
C3    O23   A    
Cr2   O18   S    
C91   O43   A    
C91   O15   A    
C90   O42   A    
C26   C30   A    
C17   C21   A    
