data_mof_unit_57353.cif
_audit_creation_date              2012-12-10T16:32:41-0500
_audit_creation_method            fapswitch 2.2
_symmetry_space_group_name_H-M    P1
_symmetry_Int_Tables_number       1
_space_group_crystal_system       triclinic
_cell_length_a                    17.031651
_cell_length_b                    16.996696
_cell_length_c                    16.940409
_cell_angle_alpha                 65.572713
_cell_angle_beta                  66.290674
_cell_angle_gamma                 66.37544
_cell_volume                      3923.09984523

loop_
_atom_site_label
_atom_site_type_symbol
_atom_type_description
_atom_site_fract_x
_atom_site_fract_y
_atom_site_fract_z
_atom_type_partial_charge
C1    C     C_R   0.591340 0.016775 0.598862 -0.039385
C2    C     C_R   0.822724 0.565412 0.029196 0.903057
C3    C     C_R   0.196365 0.616764 0.155458 -0.131409
C4    C     C_R   0.199037 0.647433 0.064328 -0.158664
C5    C     C_R   0.236758 0.586948 0.014086 -0.063844
C6    C     C_R   0.295715 0.898903 0.557853 0.166693
C7    C     C_R   0.322279 0.805850 0.600170 -0.203253
C8    C     C_R   0.299171 0.771872 0.694537 -0.138249
C9    C     C_R   0.248291 0.830459 0.746969 -0.159187
C10   C     C_R   0.221732 0.923170 0.705111 -0.175373
C11   C     C_R   0.247534 0.957462 0.610932 -0.044596
C12   C     C_R   0.728333 0.989926 0.474503 0.186986
C13   C     C_R   0.432843 0.975244 0.177173 0.937435
C14   C     C_R   0.763531 0.900491 0.472603 -0.133157
C15   C     C_R   0.810171 0.882163 0.390176 -0.133030
C16   C     C_R   0.826617 0.952384 0.310615 -0.101784
C17   C     C_R   0.792279 0.041097 0.312772 -0.139038
C18   C     C_R   0.740380 0.060319 0.393799 -0.090973
C19   C     C_R   0.552559 0.289559 0.939747 0.173032
C20   C     C_R   0.604935 0.317146 0.850413 -0.175494
C21   C     C_R   0.698075 0.288990 0.830129 -0.144566
C22   C     C_R   0.738992 0.230686 0.898215 -0.143822
C23   C     C_R   0.687220 0.203718 0.987158 -0.136204
C24   C     C_R   0.562714 0.036441 0.820981 0.889299
C25   C     C_R   0.594166 0.235009 0.008721 -0.054692
C26   C     C_R   0.466532 0.722430 0.007792 0.197847
C27   C     C_R   0.465150 0.750487 0.917838 -0.133634
C28   C     C_R   0.383940 0.786154 0.897442 -0.161660
C29   C     C_R   0.304191 0.801329 0.965280 -0.130566
C30   C     C_R   0.305443 0.774804 0.054614 -0.132609
C31   C     C_R   0.386187 0.733414 0.076604 -0.093732
C32   C     C_R   0.921412 0.557802 0.292194 0.168215
C33   C     C_R   0.833397 0.607119 0.324615 -0.179324
C34   C     C_R   0.811916 0.700466 0.302517 -0.150319
C35   C     C_R   0.568151 0.823899 0.021791 0.937326
C36   C     C_R   0.877530 0.744824 0.245505 -0.158673
C37   C     C_R   0.964743 0.696088 0.212056 -0.172440
C38   C     C_R   0.986944 0.602550 0.237177 -0.059948
C39   C     C_R   0.007834 0.471244 0.720000 0.191878
C40   C     C_R   0.919074 0.469077 0.747237 -0.133668
C41   C     C_R   0.898819 0.386778 0.789578 -0.156738
C42   C     C_R   0.966006 0.307113 0.809926 -0.107293
C43   C     C_R   0.054071 0.309210 0.784355 -0.129893
C44   C     C_R   0.075598 0.390641 0.737309 -0.092021
C45   C     C_3   0.665156 0.207082 0.687417 -0.800258
C46   C     C_R   0.437296 0.178948 0.963562 0.888828
C47   C     C_3   0.209321 0.044860 0.205801 -0.626644
C48   C     C_3   0.074686 0.763809 0.766657 -0.622665
C49   C     C_3   0.785838 0.289989 0.374371 -0.799721
C50   C     C_3   0.790879 0.792948 0.972907 -0.626327
C51   C     C_3   0.337637 0.318159 0.790431 -0.800235
C52   C     C_R   0.030695 0.565899 0.821267 0.930080
C53   C     C_R   0.960891 0.438199 0.178960 0.880494
C54   C     C_R   0.822007 0.027677 0.566244 0.924512
C55   C     C_R   0.177669 0.968954 0.435368 0.895343
C56   C     C_R   0.543369 0.996647 0.555653 0.142566
C57   C     C_R   0.413005 0.944694 0.418664 -0.028425
C58   C     C_R   0.455565 0.960023 0.470404 0.149840
C59   C     C_R   0.025360 0.552409 0.530961 0.135691
C60   C     C_R   0.988936 0.462325 0.447587 0.147994
C61   C     C_R   0.544692 0.534301 0.030772 0.143481
C62   C     C_R   0.455604 0.442401 0.005438 0.145609
C63   C     C_R   0.555503 0.907364 0.562521 -0.187726
C64   C     C_R   0.439620 0.048583 0.467993 -0.203462
C65   C     C_R   0.936862 0.562326 0.538442 -0.197478
C66   C     C_R   0.077492 0.454779 0.437470 -0.184893
C67   C     C_R   0.500733 0.474944 0.105323 -0.157438
C68   C     C_R   0.042971 0.595318 0.581027 -0.030664
C69   C     C_R   0.501563 0.499926 0.930963 -0.165472
C70   C     C_R   0.513058 0.889198 0.518751 -0.159907
C71   C     C_R   0.484526 0.066973 0.508605 -0.164896
C72   C     C_R   0.458755 0.427129 0.092387 -0.164233
C73   C     C_R   0.547898 0.543421 0.943387 -0.178597
C74   C     C_R   0.918775 0.516640 0.498314 -0.157206
C75   C     C_R   0.095676 0.498932 0.479390 -0.175661
C76   C     C_R   0.545741 0.041778 0.678297 -0.081750
C77   C     C_R   0.451852 0.955200 0.325839 -0.102655
C78   C     C_R   0.065858 0.676765 0.537278 -0.065861
C79   C     C_R   0.969943 0.413328 0.404559 -0.037885
C80   C     C_R   0.979527 0.320444 0.441917 -0.106345
C81   C     C_R   0.675225 0.545816 0.054624 -0.093243
C82   C     C_R   0.313591 0.429197 0.004516 -0.092938
C83   C     C_R   0.326471 0.934790 0.457986 -0.086165
C84   C     C_R   0.682714 0.011087 0.561039 -0.098082
C85   C     C_R   0.453830 0.320281 0.960701 -0.083681
C86   C     C_R   0.553035 0.679284 0.028971 -0.104923
C87   C     C_R   0.946078 0.458518 0.323474 -0.062281
C88   C     C_R   0.030308 0.558045 0.675181 -0.103108
C89   C     C_R   0.593841 0.052751 0.723178 -0.148980
C90   C     C_R   0.589861 0.586378 0.042225 -0.031162
C91   C     C_R   0.397511 0.969893 0.272090 -0.157683
C92   C     C_R   0.065903 0.723547 0.590172 -0.192493
C93   C     C_R   0.957721 0.275796 0.400988 -0.143968
C94   C     C_R   0.729363 0.601657 0.034140 -0.174146
C95   C     C_R   0.271973 0.395587 0.971487 -0.163018
C96   C     C_R   0.271862 0.961181 0.400618 -0.175986
C97   C     C_R   0.726173 0.035767 0.600696 -0.160388
C98   C     C_R   0.406075 0.276326 0.948248 -0.149010
C99   C     C_R   0.605110 0.730778 0.022805 -0.158487
C100  C     C_R   0.938320 0.409088 0.277896 -0.188205
C101  C     C_R   0.406820 0.396433 0.990575 -0.034570
C102  C     C_R   0.046222 0.600223 0.723280 -0.159647
C103  C     C_R   0.678465 0.064218 0.676933 0.131932
C104  C     C_R   0.305743 0.990925 0.307383 0.120151
C105  C     C_R   0.072366 0.679190 0.677462 0.121572
C106  C     C_R   0.925235 0.324610 0.326055 0.149274
C107  C     C_R   0.696287 0.694953 0.007892 0.122334
C108  C     C_R   0.321452 0.323196 0.936864 0.135061
C109  C     C_R   0.447397 0.061475 0.710102 0.177877
C110  C     C_R   0.393745 0.150703 0.689011 -0.178467
C111  C     C_R   0.300947 0.168765 0.713780 -0.142124
C112  C     C_R   0.971538 0.178356 0.433612 0.913401
C113  C     C_R   0.261702 0.098109 0.761723 -0.147887
C114  C     C_R   0.314970 0.009513 0.782496 -0.143294
C115  C     C_R   0.407775 0.990919 0.755357 -0.058089
C116  C     C_R   0.545462 0.960000 0.284647 0.176114
C117  C     C_R   0.564093 0.040898 0.263664 -0.112131
C118  C     C_R   0.648946 0.051102 0.212073 -0.136026
C119  C     C_R   0.713962 0.983145 0.175908 -0.137518
C120  C     C_R   0.695359 0.903081 0.195464 -0.127298
C121  C     C_R   0.613031 0.889428 0.253512 -0.113566
C122  C     C_R   0.091162 0.714178 0.437073 0.153883
C123  C     C_R   0.040835 0.821699 0.561038 0.912554
C124  C     C_R   0.172409 0.736760 0.391510 -0.150766
C125  C     C_R   0.188377 0.790981 0.301591 -0.121639
C126  C     C_R   0.123298 0.823233 0.256821 -0.159383
C127  C     C_R   0.045138 0.796391 0.299712 -0.153482
C128  C     C_R   0.028848 0.742098 0.389556 -0.075009
C129  C     C_R   0.002844 0.273676 0.528498 0.186540
C130  C     C_R   0.092400 0.240564 0.529540 -0.134390
C131  C     C_R   0.113832 0.189470 0.610989 -0.147520
C132  C     C_R   0.046632 0.167252 0.690491 -0.120905
C133  C     C_R   0.957473 0.200478 0.689663 -0.129737
C134  C     C_R   0.177118 0.432180 0.976116 0.937682
C135  C     C_R   0.935136 0.255884 0.609577 -0.080669
C136  C     C_R   0.709972 0.446784 0.074944 0.174520
C137  C     C_R   0.691450 0.390439 0.164306 -0.183868
C138  C     C_R   0.718358 0.297066 0.181509 -0.142676
C139  C     C_R   0.766281 0.260069 0.110033 -0.136780
C140  C     C_R   0.785421 0.315968 0.021510 -0.131110
C141  C     C_R   0.755183 0.409088 0.003496 -0.056463
C142  C     C_R   0.262919 0.494119 0.057409 0.177736
C143  C     C_R   0.252766 0.463305 0.150813 -0.182705
C144  C     C_R   0.223511 0.524640 0.198632 -0.160027
H1    H     H_    0.473646 0.136084 0.503176 0.127022
H2    H     H_    0.499563 0.465270 0.173051 0.123344
H3    H     H_    0.132415 0.413546 0.398126 0.115631
H4    H     H_    0.881695 0.604712 0.576498 0.119121
H5    H     H_    0.423948 0.205682 0.651493 0.118661
H6    H     H_    0.259568 0.237257 0.695300 0.120415
H7    H     H_    0.190173 0.111297 0.782191 0.106329
H8    H     H_    0.283843 0.955656 0.818672 0.123126
H9    H     H_    0.449501 0.922236 0.769215 0.115577
H10   H     H_    0.512236 0.097227 0.284306 0.109424
H11   H     H_    0.662922 0.113157 0.197503 0.116702
H12   H     H_    0.525157 0.820420 0.522217 0.122908
H13   H     H_    0.778403 0.992819 0.132106 0.096040
H14   H     H_    0.744018 0.852205 0.164185 0.121194
H15   H     H_    0.598967 0.827596 0.266982 0.103972
H16   H     H_    0.221156 0.716389 0.427149 0.103639
H17   H     H_    0.249938 0.810183 0.267690 0.120236
H18   H     H_    0.132819 0.869639 0.189112 0.105892
H19   H     H_    0.996016 0.820221 0.264048 0.117502
H20   H     H_    0.965633 0.726612 0.423625 0.120480
H21   H     H_    0.145384 0.252933 0.467396 0.101446
H22   H     H_    0.182726 0.165213 0.611951 0.129188
H23   H     H_    0.164316 0.490662 0.472529 0.124237
H24   H     H_    0.063153 0.124540 0.752987 0.093347
H25   H     H_    0.905824 0.182363 0.750801 0.105032
H26   H     H_    0.865841 0.280451 0.609484 0.101835
H27   H     H_    0.654378 0.418826 0.219931 0.119009
H28   H     H_    0.701389 0.253484 0.249848 0.117803
H29   H     H_    0.787821 0.188263 0.122055 0.099331
H30   H     H_    0.822532 0.286684 0.967066 0.119139
H31   H     H_    0.767747 0.452280 0.934313 0.113642
H32   H     H_    0.272686 0.391865 0.185280 0.114838
H33   H     H_    0.220548 0.500915 0.269319 0.132159
H34   H     H_    0.850061 0.523398 0.507038 0.123143
H35   H     H_    0.170281 0.663922 0.193582 0.143173
H36   H     H_    0.173054 0.718228 0.032344 0.105905
H37   H     H_    0.244910 0.612154 0.941969 0.114748
H38   H     H_    0.361610 0.759917 0.560079 0.117554
H39   H     H_    0.319758 0.700081 0.727026 0.130798
H40   H     H_    0.228777 0.803900 0.819933 0.116086
H41   H     H_    0.181467 0.968491 0.745588 0.112825
H42   H     H_    0.229186 0.029265 0.578782 0.123174
H43   H     H_    0.755300 0.845407 0.534550 0.102623
H44   H     H_    0.834790 0.813537 0.388433 0.127649
H45   H     H_    0.585254 0.585478 0.884784 0.118513
H46   H     H_    0.865986 0.938878 0.246980 0.093422
H47   H     H_    0.806888 0.094707 0.251962 0.110634
H48   H     H_    0.713360 0.129403 0.394841 0.099532
H49   H     H_    0.573585 0.361015 0.796929 0.118466
H50   H     H_    0.738597 0.311817 0.761686 0.117798
H51   H     H_    0.810856 0.207244 0.882852 0.099733
H52   H     H_    0.719826 0.159098 0.039062 0.110721
H53   H     H_    0.554501 0.214522 0.078203 0.114232
H54   H     H_    0.526889 0.742858 0.863958 0.102495
H55   H     H_    0.383048 0.803562 0.828708 0.134987
H56   H     H_    0.427922 0.379138 0.150213 0.118769
H57   H     H_    0.241281 0.832737 0.948840 0.094768
H58   H     H_    0.243631 0.784203 0.106881 0.115899
H59   H     H_    0.386315 0.711385 0.146388 0.104971
H60   H     H_    0.782417 0.573018 0.369044 0.116377
H61   H     H_    0.744646 0.738119 0.329949 0.137099
H62   H     H_    0.861163 0.816969 0.226959 0.123257
H63   H     H_    0.014932 0.730901 0.167325 0.115828
H64   H     H_    0.054052 0.564100 0.212149 0.157196
H65   H     H_    0.865891 0.530834 0.735609 0.101569
H66   H     H_    0.830731 0.385027 0.808357 0.125980
H67   H     H_    0.394339 0.103868 0.431958 0.121994
H68   H     H_    0.950074 0.243569 0.845612 0.097668
H69   H     H_    0.105399 0.247886 0.801690 0.111166
H70   H     H_    0.144212 0.391568 0.717296 0.104759
H71   H     H_    0.734074 0.080236 0.758046 0.259687
H72   H     H_    0.708217 0.242719 0.685365 0.233974
H73   H     H_    0.602566 0.215571 0.743439 0.235038
H74   H     H_    0.648893 0.237814 0.621799 0.235478
H75   H     H_    0.210657 0.115846 0.280721 0.208082
H76   H     H_    0.135460 0.071580 0.228691 0.221115
H77   H     H_    0.226710 0.971505 0.216993 0.235352
H78   H     H_    0.598581 0.851985 0.600906 0.117772
H79   H     H_    0.231091 0.079661 0.132355 0.230278
H80   H     H_    0.179555 0.718081 0.663411 0.216145
H81   H     H_    0.092327 0.828426 0.731222 0.232136
H82   H     H_    0.095813 0.732969 0.829478 0.217041
H83   H     H_    0.000970 0.778228 0.784479 0.234690
H84   H     H_    0.861933 0.323583 0.242804 0.253516
H85   H     H_    0.748184 0.263648 0.355724 0.223357
H86   H     H_    0.745550 0.358783 0.379226 0.223751
H87   H     H_    0.795073 0.244949 0.441536 0.243355
H88   H     H_    0.796885 0.727723 0.888294 0.208184
H89   H     H_    0.502125 0.510414 0.863193 0.124047
H90   H     H_    0.865066 0.771017 0.949556 0.208899
H91   H     H_    0.768882 0.776396 0.047813 0.236966
H92   H     H_    0.770378 0.867040 0.941937 0.225508
H93   H     H_    0.268738 0.244292 0.914840 0.258697
H94   H     H_    0.402074 0.264604 0.781877 0.229629
H95   H     H_    0.350714 0.385022 0.761644 0.238079
H96   H     H_    0.297535 0.318228 0.752721 0.231278
N1    N     N_2   0.712856 0.112704 0.700627 -0.278741
N2    N     N_2   0.250988 0.063914 0.253195 -0.300886
N3    N     N_2   0.121947 0.703688 0.710751 -0.295312
N4    N     N_2   0.871007 0.292940 0.306269 -0.272854
N5    N     N_2   0.753478 0.750729 0.942621 -0.294924
N6    N     N_2   0.288131 0.302588 0.884984 -0.277307
O1    O     O_R   0.982940 0.138950 0.510160 -0.626210
O2    O     O_R   0.982940 0.510160 0.138950 -0.625100
O3    O     O_R   0.861050 0.017060 0.489840 -0.618228
O4    O     O_R   0.138950 0.982940 0.510160 -0.639775
O5    O     O_R   0.867700 0.025880 0.612340 -0.616359
O6    O     O_R   0.132300 0.974120 0.387660 -0.623362
O7    O     O_R   0.025880 0.612340 0.867700 -0.620804
O8    O     O_R   0.974120 0.387660 0.132300 -0.635333
O9    O     O_R   0.612340 0.867700 0.025880 -0.618261
O10   O     O_R   0.387660 0.132300 0.974120 -0.638909
O11   O     O_R   0.387660 0.974120 0.132300 -0.622775
O12   O     O_R   0.017060 0.861050 0.489840 -0.610867
O13   O     O_R   0.612340 0.025880 0.867700 -0.638331
O14   O     O_R   0.132300 0.387660 0.974120 -0.610784
O15   O     O_R   0.867700 0.612340 0.025880 -0.624529
O16   O     O_R   0.974120 0.132300 0.387660 -0.601677
O17   O     O_R   0.025880 0.867700 0.612340 -0.630507
O18   O     O_R   0.138950 0.510160 0.982940 -0.641363
O19   O     O_R   0.861050 0.489840 0.017060 -0.633205
O20   O     O_R   0.510160 0.982940 0.138950 -0.623185
O21   O     O_R   0.489840 0.017060 0.861050 -0.622466
O22   O     O_R   0.489840 0.861050 0.017060 -0.632523
O23   O     O_R   0.510160 0.138950 0.982940 -0.623461
O24   O     O_R   0.017060 0.489840 0.861050 -0.624016
Zn1   Zn    Zn3+2 0.004880 0.004880 0.583590 0.936597
Zn2   Zn    Zn3+2 0.995120 0.995120 0.416410 0.968716
Zn3   Zn    Zn3+2 0.004880 0.583590 0.004880 0.913064
Zn4   Zn    Zn3+2 0.995120 0.416410 0.995120 0.960639
Zn5   Zn    Zn3+2 0.583590 0.004880 0.004880 0.940658
Zn6   Zn    Zn3+2 0.416410 0.995120 0.995120 0.941093

loop_
_geom_bond_atom_site_label_1
_geom_bond_atom_site_label_2
_ccdc_geom_bond_type
C112  O1    A    
C35   O9    A    
C60   C79   S    
C126  C127  A    
C14   H43   S    
C45   N1    S    
C11   H42   S    
C45   H73   S    
C41   C42   A    
O24   Zn4   S    
C19   C20   A    
O3    Zn2   S    
C114  H8    S    
C91   C104  A    
C82   C142  S    
C110  H5    S    
C24   C89   S    
C10   H41   S    
C79   C87   A    
C114  C115  A    
O8    Zn4   S    
C85   C101  A    
C7    C8    A    
C117  C118  A    
C17   H47   S    
C1    C84   A    
C24   O13   A    
C18   H48   S    
C26   C27   A    
C136  C141  A    
C38   H64   S    
C44   H70   S    
C84   C97   A    
C39   C88   S    
C56   C63   A    
C36   C37   A    
C1    C56   S    
C113  C114  A    
C30   C31   A    
C93   C106  A    
C3    H35   S    
C135  H26   S    
C2    O15   A    
O15   Zn3   S    
C48   H82   S    
C83   C96   A    
C143  C144  A    
C80   C129  S    
C108  N6    S    
C128  H20   S    
C45   H72   S    
C98   C108  A    
C116  C117  A    
C12   C84   S    
C102  C105  A    
H88   N5    S    
C64   C71   A    
C5    H37   S    
C49   H86   S    
C50   H90   S    
C133  H25   S    
C110  C111  A    
C13   O11   A    
C85   C98   A    
C129  C135  A    
C82   C101  A    
C52   O24   A    
C6    C7    A    
C131  H22   S    
C123  O17   A    
C8    C9    A    
C74   H34   S    
C23   H52   S    
C15   H44   S    
C134  O18   A    
C113  H7    S    
C57   C83   A    
C54   C97   S    
O13   Zn5   S    
C51   H96   S    
C82   C95   A    
C32   C38   A    
C35   O22   A    
C50   N5    S    
O12   Zn2   S    
C9    C10   A    
C31   H59   S    
O19   Zn4   S    
C26   C86   S    
C76   C89   A    
C62   C101  S    
O14   Zn4   S    
O17   Zn1   S    
C46   C98   S    
C76   C109  S    
C60   C66   A    
C26   C31   A    
C34   H61   S    
C21   C22   A    
C13   O20   A    
C120  H14   S    
C45   H74   S    
C37   H63   S    
C63   H78   S    
C50   H91   S    
C27   H54   S    
C121  H15   S    
C143  H32   S    
C4    H36   S    
C48   N3    S    
C35   C99   S    
C46   O10   A    
C118  C119  A    
C17   C18   A    
C54   O5    A    
C22   C23   A    
C53   C100  S    
C68   C78   A    
C94   C107  A    
C5    C142  A    
C125  H17   S    
O21   Zn6   S    
H71   N1    S    
C28   H55   S    
C29   H57   S    
C116  C121  A    
O23   Zn5   S    
C138  H28   S    
C68   C88   A    
C57   C77   A    
C67   C72   A    
C51   N6    S    
C48   H81   S    
C140  C141  A    
C111  C113  A    
C138  C139  A    
C92   C123  S    
O5    Zn1   S    
C6    C11   A    
C48   H83   S    
O6    Zn2   S    
C93   C112  S    
C58   C64   A    
C61   C73   A    
C123  O12   A    
C32   C87   S    
C40   H65   S    
C95   C134  S    
C65   C74   A    
C62   C69   A    
O9    Zn5   S    
C49   H85   S    
C49   H87   S    
C50   H92   S    
C52   O7    A    
C37   C38   A    
C59   C68   S    
C72   H56   S    
O1    Zn1   S    
C61   C67   A    
H84   N4    S    
C63   C70   A    
C2    C94   S    
O20   Zn5   S    
C119  H13   S    
C56   C71   A    
C52   C102  S    
O22   Zn6   S    
C67   H2    S    
C43   H69   S    
C33   C34   A    
C120  C121  A    
C55   O4    A    
C62   C72   A    
C118  H11   S    
C64   H67   S    
C36   H62   S    
C144  H33   S    
C65   H4    S    
C69   C73   A    
C86   C99   A    
C66   H3    S    
C97   C103  A    
O4    Zn1   S    
C95   C108  A    
C41   H66   S    
C8    H39   S    
C134  O14   A    
C40   C41   A    
C71   H1    S    
C12   C14   A    
C124  H16   S    
C46   O23   A    
C96   C104  A    
C24   O21   A    
C86   C90   A    
C125  C126  A    
C21   H50   S    
C70   H12   S    
C22   H51   S    
C139  H29   S    
C42   C43   A    
C81   C90   A    
C115  H9    S    
C122  C124  A    
C127  C128  A    
C77   C116  S    
C111  H6    S    
C59   C75   A    
C20   H49   S    
C39   C40   A    
C49   N4    S    
C42   H68   S    
C61   C90   S    
C28   C29   A    
C81   C136  S    
C141  H31   S    
C87   C100  A    
C47   H76   S    
C47   H79   S    
C77   C91   A    
O11   Zn6   S    
C69   H89   S    
C6    C83   S    
C7    H38   S    
C14   C15   A    
C1    C76   A    
C107  N5    S    
C58   C70   A    
C3    C144  A    
C132  H24   S    
C106  N4    S    
C55   C96   S    
C19   C85   S    
C15   C16   A    
C47   N2    S    
C88   C102  A    
C139  C140  A    
H80   N3    S    
C39   C44   A    
C55   O6    A    
C99   C107  A    
C137  C138  A    
C33   H60   S    
C100  C106  A    
O18   Zn3   S    
H75   N2    S    
C78   C92   A    
C32   C33   A    
C130  C131  A    
C129  C130  A    
C53   O2    A    
O2    Zn3   S    
C9    H40   S    
O7    Zn3   S    
C109  C110  A    
C59   C65   A    
C81   C94   A    
C2    O19   A    
C130  H21   S    
C57   C58   S    
C16   C17   A    
C43   C44   A    
C104  N2    S    
C66   C75   A    
C16   H46   S    
C60   C74   A    
C103  N1    S    
C54   O3    A    
C29   C30   A    
H93   N6    S    
C132  C133  A    
C51   H94   S    
C34   C36   A    
C23   C25   A    
C122  C128  A    
C131  C132  A    
C78   C122  S    
C73   H45   S    
C137  H27   S    
C127  H19   S    
C25   H53   S    
C10   C11   A    
C109  C115  A    
C19   C25   A    
O16   Zn2   S    
C79   C80   A    
C92   C105  A    
C4    C5    A    
C30   H58   S    
C20   C21   A    
C140  H30   S    
C119  C120  A    
C53   O8    A    
C12   C18   A    
C117  H10   S    
C133  C135  A    
C142  C143  A    
O10   Zn6   S    
C75   H23   S    
C89   C103  A    
C80   C93   A    
C126  H18   S    
C105  N3    S    
C47   H77   S    
C13   C91   S    
C136  C137  A    
C3    C4    A    
C112  O16   A    
C124  C125  A    
C27   C28   A    
C51   H95   S    
