data_mof_unit_35700.cif
_audit_creation_date              2012-12-10T17:15:42-0500
_audit_creation_method            fapswitch 2.2
_symmetry_space_group_name_H-M    P1
_symmetry_Int_Tables_number       1
_space_group_crystal_system       triclinic
_cell_length_a                    17.318216
_cell_length_b                    13.042552
_cell_length_c                    11.628768
_cell_angle_alpha                 99.917
_cell_angle_beta                  91.089639
_cell_angle_gamma                 90.839968
_cell_volume                      2586.48995134

loop_
_atom_site_label
_atom_site_type_symbol
_atom_type_description
_atom_site_fract_x
_atom_site_fract_y
_atom_site_fract_z
_atom_type_partial_charge
C1    C     C_R   0.505569 0.299236 0.478169 0.819405
C2    C     C_R   0.494431 0.700764 0.521831 0.819406
C3    C     C_R   0.485804 0.814524 0.534766 -0.208363
C4    C     C_R   0.514196 0.185476 0.465235 -0.208362
C5    C     C_R   0.505575 0.014177 0.344497 -0.212530
C6    C     C_R   0.494425 0.985823 0.655503 -0.212530
C7    C     C_R   0.515378 0.121478 0.353170 -0.083477
C8    C     C_R   0.484623 0.878522 0.646830 -0.083477
C9    C     C_R   0.515291 0.138346 0.566487 0.337923
C10   C     C_R   0.484710 0.861654 0.433513 0.337923
C11   C     C_R   0.502802 0.031146 0.555717 0.043721
C12   C     C_R   0.497198 0.968854 0.444284 0.043721
C13   C     C_R   0.420849 0.411683 0.028306 -0.333562
C14   C     C_R   0.579151 0.588317 0.971693 -0.333562
C15   C     C_R   0.429164 0.418933 0.150034 0.109564
C16   C     C_R   0.570836 0.581067 0.849966 0.109564
C17   C     C_R   0.534945 0.536907 0.154406 0.049363
C18   C     C_R   0.465055 0.463093 0.845594 0.049364
C19   C     C_R   0.528965 0.531714 0.031880 0.049845
C20   C     C_R   0.471035 0.468286 0.968120 0.049845
C21   C     C_R   0.350654 0.501376 0.513917 0.789910
C22   C     C_R   0.649346 0.498622 0.486082 0.789910
C23   C     C_R   0.266690 0.507222 0.517017 -0.037294
C24   C     C_R   0.733310 0.492772 0.482982 -0.037295
C25   C     C_R   0.223611 0.472984 0.413768 -0.242192
C26   C     C_R   0.776389 0.527002 0.586232 -0.242193
C27   C     C_R   0.143948 0.485770 0.409733 0.036305
C28   C     C_R   0.856052 0.514211 0.590265 0.036305
C29   C     C_R   0.106988 0.532489 0.512637 0.126368
C30   C     C_R   0.893011 0.467493 0.487359 0.126367
C31   C     C_R   0.150209 0.567333 0.615383 -0.175532
C32   C     C_R   0.849788 0.432656 0.384613 -0.175532
C33   C     C_R   0.229714 0.553979 0.618011 -0.219603
C34   C     C_R   0.770284 0.446015 0.381986 -0.219604
C35   C     C_2   0.023108 0.541433 0.517862 -0.223973
C36   C     C_2   0.976890 0.458548 0.482133 -0.223975
Cu1   Cu    Cu3+1 0.505800 0.507690 0.615350 0.946618
Cu2   Cu    Cu3+1 0.494200 0.492310 0.384650 0.946618
H1    H     H_    0.252306 0.437809 0.334982 0.148120
H2    H     H_    0.747696 0.562177 0.665019 0.148122
H3    H     H_    0.609627 0.625195 0.804439 0.120950
H4    H     H_    0.390373 0.374805 0.195561 0.120950
H5    H     H_    0.375749 0.361880 0.981729 0.138316
H6    H     H_    0.624251 0.638119 0.018271 0.138316
H7    H     H_    0.737649 0.418016 0.302107 0.143249
H8    H     H_    0.262349 0.581983 0.697889 0.143248
H9    H     H_    0.000590 0.384206 0.443344 0.162991
H10   H     H_    0.999408 0.615775 0.556651 0.162990
H11   H     H_    0.122013 0.603199 0.694273 0.150057
H12   H     H_    0.877983 0.396791 0.305721 0.150056
H13   H     H_    0.505934 0.965801 0.258746 0.193414
H14   H     H_    0.494067 0.034199 0.741254 0.193414
H15   H     H_    0.421095 0.413788 0.795562 0.136957
H16   H     H_    0.578905 0.586212 0.204438 0.136957
N1    N     N_R   0.514530 0.519260 0.788680 -0.183150
N2    N     N_R   0.485470 0.480740 0.211320 -0.183150
O1    O     O_R   0.504120 0.354440 0.581590 -0.558452
O2    O     O_R   0.495880 0.645560 0.418410 -0.558452
O3    O     O_R   0.494320 0.341440 0.386760 -0.578676
O4    O     O_R   0.505680 0.658560 0.613240 -0.578676
O5    O     O_R   0.391870 0.507230 0.608700 -0.592713
O6    O     O_R   0.608130 0.492770 0.391300 -0.592712
O7    O     O_R   0.382070 0.494240 0.413880 -0.599997
O8    O     O_R   0.617930 0.505760 0.586120 -0.599997
C37   C     C_R   0.898712 0.549526 0.702604 0.102831
C38   C     C_R   0.891046 0.652129 0.762178 -0.177882
C39   C     C_R   0.934999 0.687949 0.863599 -0.136567
C40   C     C_R   0.986958 0.621905 0.906264 -0.130471
C41   C     C_R   0.994031 0.519320 0.848816 -0.158106
C42   C     C_R   0.949481 0.482708 0.748273 -0.125008
H17   H     H_    0.852482 0.705107 0.728552 0.123015
H18   H     H_    0.929482 0.767359 0.908298 0.124425
H19   H     H_    0.021776 0.650260 0.983804 0.123885
H20   H     H_    0.034570 0.468383 0.881556 0.136995
H21   H     H_    0.955724 0.403012 0.704722 0.125445
C43   C     C_R   0.101290 0.450449 0.297394 0.102830
C44   C     C_R   0.050519 0.517262 0.251720 -0.125010
C45   C     C_R   0.005971 0.480644 0.151177 -0.158112
C46   C     C_R   0.013048 0.378058 0.093733 -0.130467
C47   C     C_R   0.065009 0.312020 0.136403 -0.136565
C48   C     C_R   0.108959 0.347845 0.237825 -0.177882
H22   H     H_    0.044273 0.596958 0.295268 0.125448
H23   H     H_    0.965431 0.531578 0.118433 0.136996
H24   H     H_    0.978232 0.349700 0.016192 0.123883
H25   H     H_    0.070529 0.232609 0.091707 0.124425
H26   H     H_    0.147525 0.294870 0.271455 0.123016
O9    O     O_3   0.471475 0.804825 0.323206 -0.749489
H27   H     H_    0.423932 0.762303 0.327049 0.328296
O10   O     O_3   0.528526 0.195175 0.676794 -0.749489
H28   H     H_    0.576069 0.237697 0.672951 0.328296
C49   C     C_R   0.468748 0.838294 0.756403 0.164680
C50   C     C_R   0.518751 0.863748 0.854282 -0.180170
C51   C     C_R   0.501692 0.830140 0.958994 -0.141327
C52   C     C_R   0.434861 0.770645 0.966885 -0.094520
C53   C     C_R   0.384683 0.745216 0.870310 -0.146206
C54   C     C_R   0.401015 0.779660 0.765797 -0.087558
H29   H     H_    0.570837 0.909667 0.849489 0.130772
H30   H     H_    0.540440 0.849894 0.033946 0.142840
H31   H     H_    0.422062 0.744089 0.047778 0.151072
H32   H     H_    0.332880 0.699294 0.876670 0.117222
H33   H     H_    0.361016 0.760637 0.692178 0.102263
C55   C     C_R   0.531253 0.161706 0.243597 0.164681
C56   C     C_R   0.598986 0.220340 0.234204 -0.087559
C57   C     C_R   0.615318 0.254785 0.129691 -0.146205
C58   C     C_R   0.565141 0.229356 0.033116 -0.094521
C59   C     C_R   0.498310 0.169861 0.041007 -0.141326
C60   C     C_R   0.481250 0.136252 0.145718 -0.180170
H34   H     H_    0.638985 0.239363 0.307823 0.102264
H35   H     H_    0.667122 0.300706 0.123332 0.117222
H36   H     H_    0.577941 0.255912 0.952224 0.151071
H37   H     H_    0.459562 0.150108 0.966054 0.142841
H38   H     H_    0.429165 0.090334 0.150510 0.130771

loop_
_geom_bond_atom_site_label_1
_geom_bond_atom_site_label_2
_ccdc_geom_bond_type
O9    H27   S    
C51   C52   A    
C27   C29   A    
C60   H38   S    
C53   C54   A    
C58   H36   S    
C44   C45   A    
C6    C11   A    
Cu1   Cu2   S    
C52   H31   S    
C24   C26   A    
C1    O3    A    
C46   H24   S    
C2    O4    A    
C59   C60   A    
C37   C42   A    
C36   H9    S    
C39   H18   S    
C18   H15   S    
C49   C54   A    
Cu2   O2    S    
C45   H23   S    
C35   C36   D    
C40   C41   A    
C23   C33   A    
C7    C55   S    
C31   C33   A    
C56   H34   S    
C21   O5    A    
C48   H26   S    
C38   C39   A    
C54   H33   S    
C33   H8    S    
C55   C56   A    
C31   H11   S    
C4    C7    A    
C35   H10   S    
C57   C58   A    
C50   H29   S    
C59   H37   S    
C10   O9    S    
C39   C40   A    
C55   C60   A    
C43   C44   A    
C5    C12   A    
C3    C8    A    
C9    O10   S    
C49   C50   A    
C5    C7    A    
C17   H16   S    
C45   C46   A    
C6    C8    A    
C40   H19   S    
C24   C34   A    
Cu2   O3    S    
C32   C34   A    
C47   H25   S    
C1    O1    A    
C22   O6    A    
C38   H17   S    
C8    C49   S    
C41   H20   S    
C34   H7    S    
C9    C11   A    
C17   N2    A    
C32   H12   S    
C10   C12   A    
C18   N1    A    
C52   C53   A    
C13   C15   A    
C14   C16   A    
C27   C43   S    
C13   H5    S    
Cu1   O8    S    
C14   H6    S    
Cu2   O7    S    
C13   C20   A    
C53   H32   S    
C14   C19   A    
C15   H4    S    
C47   C48   A    
C43   C48   A    
C18   C20   A    
Cu1   O5    S    
C11   C12   A    
C2    O2    A    
C25   C27   A    
C58   C59   A    
C29   C35   S    
C26   C28   A    
C30   C36   S    
C1    C4    S    
C15   N2    A    
C19   C20   A    
C21   C23   S    
C2    C3    S    
O10   H28   S    
C16   N1    A    
C29   C31   A    
C3    C10   A    
C25   H1    S    
C30   C32   A    
C26   H2    S    
C57   H35   S    
C44   H22   S    
C51   H30   S    
C28   C30   A    
C50   C51   A    
C17   C19   A    
C28   C37   S    
C22   C24   S    
C23   C25   A    
C41   C42   A    
C21   O7    A    
Cu1   O4    S    
C22   O8    A    
C46   C47   A    
Cu1   N1    S    
Cu2   N2    S    
C42   H21   S    
C37   C38   A    
C56   C57   A    
C5    H13   S    
C6    H14   S    
C4    C9    A    
C16   H3    S    
Cu1   O1    S    
Cu2   O6    S    
