data_mof_unit_15959.cif
_audit_creation_date              2012-12-10T17:33:00-0500
_audit_creation_method            fapswitch 2.2
_symmetry_space_group_name_H-M    P1
_symmetry_Int_Tables_number       1
_space_group_crystal_system       triclinic
_cell_length_a                    12.354651
_cell_length_b                    13.239924
_cell_length_c                    14.384549
_cell_angle_alpha                 93.181982
_cell_angle_beta                  107.772865
_cell_angle_gamma                 116.907921
_cell_volume                      1945.41995531

loop_
_atom_site_label
_atom_site_type_symbol
_atom_type_description
_atom_site_fract_x
_atom_site_fract_y
_atom_site_fract_z
_atom_type_partial_charge
C1    C     C_R   0.649311 0.713683 0.506771 0.780578
C2    C     C_R   0.888739 0.552104 0.918522 0.113734
C3    C     C_R   0.876797 0.619548 0.990365 0.073135
C4    C     C_R   0.988873 0.521277 0.947913 -0.065557
C5    C     C_R   0.064943 0.544885 0.051836 -0.059649
C6    C     C_R   0.038417 0.601926 0.122594 0.493184
C7    C     C_R   0.955059 0.647178 0.090298 -0.301721
C8    C     C_R   0.012900 0.465670 0.876077 -0.278420
C9    C     C_R   0.099751 0.423408 0.903669 0.461935
C10   C     C_R   0.168555 0.438287 0.005213 0.054716
C11   C     C_R   0.158513 0.505286 0.079852 0.023292
C12   C     C_R   0.621297 0.520634 0.686274 0.796628
C13   C     C_R   0.249836 0.388685 0.033099 -0.163056
C14   C     C_R   0.319758 0.403118 0.133530 -0.208643
C15   C     C_R   0.243100 0.529421 0.179639 -0.192345
C16   C     C_R   0.167780 0.959711 0.400586 -0.158112
C17   C     C_R   0.254279 0.161988 0.472548 -0.059893
C18   C     C_R   0.718194 0.920384 0.559561 -0.198924
C19   C     C_R   0.809042 0.037008 0.579598 -0.125573
C20   C     C_R   0.916263 0.070831 0.551713 -0.085700
C21   C     C_R   0.930270 0.988275 0.496180 0.030655
C22   C     C_R   0.827572 0.871190 0.463875 0.002249
C23   C     C_R   0.346371 0.285283 0.486914 0.802203
C24   C     C_R   0.042612 0.017965 0.471975 0.023874
C25   C     C_R   0.052908 0.930327 0.419712 0.094336
C26   C     C_R   0.945536 0.817034 0.381116 0.119478
C27   C     C_R   0.827428 0.793018 0.391731 0.128971
C28   C     C_R   0.145732 0.132660 0.498625 -0.214257
C29   C     C_R   0.267268 0.074781 0.426306 -0.212162
C30   C     C_R   0.729475 0.836121 0.505995 -0.096970
C31   C     C_R   0.253464 0.689595 0.655319 -0.319463
C32   C     C_R   0.651627 0.332732 0.374388 -0.082936
C33   C     C_R   0.723054 0.279735 0.361364 0.022653
C34   C     C_R   0.382068 0.483798 0.313796 0.782946
C35   C     C_R   0.860644 0.337249 0.412442 0.481763
C36   C     C_R   0.924728 0.449714 0.476817 -0.164110
C37   C     C_R   0.843146 0.492138 0.495800 0.207004
C38   C     C_R   0.065791 0.519477 0.527943 -0.013904
C39   C     C_R   0.118128 0.620829 0.602965 0.157936
C40   C     C_R   0.035585 0.653489 0.625978 -0.290941
C41   C     C_R   0.901952 0.591320 0.573371 -0.146723
C42   C     C_R   0.159045 0.497292 0.505855 0.045702
C43   C     C_R   0.338340 0.660464 0.631958 0.055413
C44   C     C_R   0.701755 0.548578 0.792374 -0.059756
C45   C     C_R   0.315230 0.472580 0.207254 -0.074931
C46   C     C_R   0.780701 0.652931 0.962716 -0.168439
C47   C     C_R   0.693896 0.618071 0.863983 -0.194149
C48   C     C_R   0.796520 0.514323 0.820124 -0.229562
Cu1   Cu    Cu3+1 0.416420 0.526630 0.522910 0.934404
Cu2   Cu    Cu3+1 0.583580 0.473370 0.477090 0.912283
H1    H     H_    0.942114 0.694955 0.145496 0.196366
H2    H     H_    0.257539 0.336383 0.977481 0.180596
H3    H     H_    0.351475 0.095888 0.406200 0.150860
H4    H     H_    0.179078 0.895099 0.361368 0.176338
H5    H     H_    0.142603 0.202499 0.537046 0.163058
H6    H     H_    0.641899 0.895970 0.589853 0.155656
H7    H     H_    0.985769 0.162342 0.575828 0.158410
H8    H     H_    0.800156 0.101270 0.621839 0.154948
H9    H     H_    0.442715 0.713330 0.672229 0.121906
H10   H     H_    0.258473 0.594040 0.238053 0.216540
H11   H     H_    0.074984 0.729437 0.684872 0.155014
H12   H     H_    0.293479 0.766017 0.713804 0.142975
H13   H     H_    0.130280 0.428583 0.444993 0.176861
H14   H     H_    0.546534 0.286929 0.336054 0.154555
H15   H     H_    0.847833 0.622749 0.598413 0.206899
H16   H     H_    0.377132 0.359890 0.153473 0.150794
H17   H     H_    0.771936 0.705099 0.017774 0.143569
H18   H     H_    0.621982 0.646520 0.843534 0.145898
H19   H     H_    0.793609 0.455508 0.763495 0.153498
H20   H     H_    0.965476 0.452996 0.796608 0.163107
N1    N     N_R   0.290690 0.566960 0.557640 -0.189834
N2    N     N_R   0.709100 0.433710 0.442970 -0.213537
O1    O     O_R   0.545970 0.684450 0.528810 -0.580697
O2    O     O_R   0.687130 0.639470 0.490120 -0.604869
O3    O     O_R   0.519670 0.535100 0.660030 -0.585098
O4    O     O_R   0.660830 0.490120 0.621340 -0.594201
O5    O     O_R   0.312870 0.360530 0.509880 -0.588142
O6    O     O_R   0.454030 0.315550 0.471190 -0.582046
O7    O     O_R   0.339170 0.509880 0.378660 -0.578380
O8    O     O_R   0.480330 0.464900 0.339970 -0.597059
N3    N     N_3   0.956459 0.728978 0.327665 -0.589870
H21   H     H_    0.868510 0.650678 0.297919 0.225817
H22   H     H_    0.021186 0.710613 0.379978 0.235893
N4    N     N_3   0.707143 0.703242 0.315866 -0.585373
H23   H     H_    0.626953 0.711127 0.316525 0.211616
H24   H     H_    0.692505 0.621460 0.326691 0.257766
O9    O     O_3   0.927789 0.275808 0.417894 -0.598406
C49   C     C_3   0.913504 0.226419 0.322152 -0.302237
H25   H     H_    0.010405 0.241664 0.324481 0.166909
H26   H     H_    0.875790 0.263012 0.260466 0.140706
H27   H     H_    0.848404 0.130809 0.304547 0.219821
N5    N     N_3   0.653773 0.163170 0.302268 -0.584902
H28   H     H_    0.587466 0.110277 0.333032 0.225730
H29   H     H_    0.600317 0.162502 0.229922 0.202569
O10   O     O_3   0.109754 0.359412 0.830418 -0.594092
C50   C     C_3   0.192181 0.436856 0.787164 -0.323828
H30   H     H_    0.203253 0.385581 0.730643 0.198035
H31   H     H_    0.291392 0.496662 0.844385 0.158523
H32   H     H_    0.149147 0.487389 0.747616 0.179584
O11   O     O_3   0.083095 0.607394 0.223884 -0.593471
C51   C     C_3   0.995117 0.503567 0.241249 -0.356026
H33   H     H_    0.996318 0.427401 0.205968 0.167308
H34   H     H_    0.893816 0.489903 0.214725 0.160623
H35   H     H_    0.026607 0.510175 0.322734 0.190147

loop_
_geom_bond_atom_site_label_1
_geom_bond_atom_site_label_2
_ccdc_geom_bond_type
O9    C49   S    
C51   H33   S    
C17   C29   A    
C15   H10   S    
O10   C50   S    
C48   H19   S    
C4    C8    A    
N3    H21   S    
C32   N2    A    
C26   C27   A    
C17   C23   S    
C31   C43   A    
C1    O2    A    
N5    H28   S    
C36   C37   A    
N4    H24   S    
C38   C42   A    
C3    C7    A    
Cu2   O2    S    
C5    C6    A    
C50   H32   S    
C18   C19   A    
Cu2   N2    S    
C42   N1    A    
C34   O8    A    
C11   C15   A    
C19   C20   A    
C31   C39   A    
C8    C9    A    
C50   H31   S    
Cu1   O3    S    
C18   C30   A    
C9    C10   A    
C9    O10   S    
C44   C47   A    
C18   H6    S    
C51   H34   S    
C21   C22   A    
C31   H12   S    
C37   N2    A    
C35   O9    S    
Cu2   O6    S    
N3    H22   S    
C28   H5    S    
C14   C45   A    
C19   H8    S    
C24   C25   A    
C32   H14   S    
C33   N5    S    
C39   C40   A    
C41   H15   S    
C2    C48   A    
C16   C29   A    
C23   O5    A    
C40   H11   S    
Cu1   O7    S    
C35   C36   A    
C6    O11   S    
C2    C4    A    
Cu2   O4    S    
C34   O7    A    
C13   H2    S    
C49   H27   S    
C50   H30   S    
C20   C21   A    
N5    H29   S    
C14   H16   S    
C34   C45   S    
N4    H23   S    
C40   C41   A    
C49   H26   S    
C26   N3    S    
C22   C27   A    
C12   O4    A    
Cu1   O1    S    
C12   O3    A    
C15   C45   A    
C47   H18   S    
C16   C25   A    
C46   C47   A    
C27   N4    S    
C43   N1    A    
C22   C30   A    
C17   C28   A    
C24   C28   A    
C4    C5    A    
C10   C13   A    
Cu2   O8    S    
C5    C11   A    
C6    C7    A    
C43   H9    S    
C51   H35   S    
C3    C46   A    
C8    H20   S    
C1    O1    A    
C32   C33   A    
C36   C38   A    
C2    C3    A    
C25   C26   A    
C7    H1    S    
C46   H17   S    
C12   C44   S    
C38   C39   A    
C29   H3    S    
C1    C30   S    
C33   C35   A    
Cu1   O5    S    
C23   O6    A    
C37   C41   A    
C16   H4    S    
C10   C11   A    
C49   H25   S    
Cu1   Cu2   S    
Cu1   N1    S    
C21   C24   A    
O11   C51   S    
C20   H7    S    
C13   C14   A    
C42   H13   S    
C44   C48   A    
