data_mof_unit_55510.cif
_audit_creation_date              2012-12-11T15:26:43-0500
_audit_creation_method            fapswitch 2.2
_symmetry_space_group_name_H-M    P1
_symmetry_Int_Tables_number       1
_space_group_crystal_system       triclinic
_cell_length_a                    7.206135
_cell_length_b                    12.03095
_cell_length_c                    29.319681
_cell_angle_alpha                 89.999882
_cell_angle_beta                  90.650079
_cell_angle_gamma                 89.99997
_cell_volume                      2541.75450666

loop_
_atom_site_label
_atom_site_type_symbol
_atom_type_description
_atom_site_fract_x
_atom_site_fract_y
_atom_site_fract_z
_atom_type_partial_charge
O1    O     O_R   0.647170 0.849180 0.201220 -0.537326
O2    O     O_R   0.352830 0.150820 0.798780 -0.537326
O3    O     O_R   0.352830 0.150820 0.701220 -0.538554
O4    O     O_R   0.647170 0.849180 0.298780 -0.538554
O5    O     O_R   0.147170 0.650820 0.298780 -0.538554
O6    O     O_R   0.852830 0.349180 0.701220 -0.538554
O7    O     O_R   0.852830 0.349180 0.798780 -0.537327
O8    O     O_R   0.147170 0.650820 0.201220 -0.537327
O9    O     O_R   0.317430 0.862210 0.298450 -0.541097
O10   O     O_R   0.682570 0.137790 0.701550 -0.541097
O11   O     O_R   0.682570 0.137790 0.798450 -0.542072
O12   O     O_R   0.317430 0.862210 0.201550 -0.542072
O13   O     O_R   0.817430 0.637790 0.201550 -0.542072
O14   O     O_R   0.182570 0.362210 0.798450 -0.542072
O15   O     O_R   0.182570 0.362210 0.701550 -0.541096
O16   O     O_R   0.817430 0.637790 0.298450 -0.541096
H1    H     H_    0.089358 0.227905 0.455172 0.141495
H2    H     H_    0.910643 0.772095 0.544828 0.141495
H3    H     H_    0.072487 0.774587 0.955867 0.141174
H4    H     H_    0.927512 0.225413 0.044133 0.141174
H5    H     H_    0.427471 0.274584 0.044131 0.141176
H6    H     H_    0.572530 0.725416 0.955869 0.141176
H7    H     H_    0.410679 0.727901 0.544829 0.141494
H8    H     H_    0.589322 0.272098 0.455170 0.141493
C1    C     C_R   0.486294 0.886111 0.314078 0.705204
C2    C     C_R   0.513706 0.113889 0.685922 0.705204
C3    C     C_R   0.515220 0.113761 0.814132 0.702851
C4    C     C_R   0.484780 0.886239 0.185868 0.702851
C5    C     C_R   0.984780 0.613761 0.185868 0.702853
C6    C     C_R   0.015220 0.386239 0.814132 0.702853
C7    C     C_R   0.013706 0.386111 0.685922 0.705202
C8    C     C_R   0.986294 0.613889 0.314078 0.705202
H9    H     H_    0.872043 0.591070 0.687053 0.118262
H10   H     H_    0.127957 0.408930 0.312947 0.118262
H11   H     H_    0.864144 0.403994 0.186221 0.119222
H12   H     H_    0.135858 0.596005 0.813779 0.119222
H13   H     H_    0.635883 0.903999 0.813780 0.119224
H14   H     H_    0.364120 0.096001 0.186220 0.119223
H15   H     H_    0.627935 0.091075 0.312946 0.118260
H16   H     H_    0.372064 0.908925 0.687054 0.118260
H17   H     H_    0.149897 0.276088 0.375934 0.133166
H18   H     H_    0.850104 0.723912 0.624066 0.133166
H19   H     H_    0.141086 0.728939 0.876841 0.133366
H20   H     H_    0.858915 0.271061 0.123159 0.133366
H21   H     H_    0.358877 0.228934 0.123157 0.133367
H22   H     H_    0.641126 0.771067 0.876843 0.133367
H23   H     H_    0.350137 0.776082 0.624067 0.133165
H24   H     H_    0.649862 0.223918 0.375932 0.133165
O17   O     O_3   0.480630 0.680630 0.250000 -0.376322
O18   O     O_3   0.519370 0.319370 0.750000 -0.376322
O19   O     O_3   0.980630 0.819370 0.250000 -0.376322
O20   O     O_3   0.019370 0.180630 0.750000 -0.376322
V1    V     V_3+5 0.205800 0.762860 0.250000 1.399605
V2    V     V_3+5 0.794200 0.237140 0.750000 1.399605
V3    V     V_3+5 0.705800 0.737140 0.250000 1.399606
V4    V     V_3+5 0.294200 0.262860 0.750000 1.399606
H25   H     H_    0.017883 0.282596 0.531831 0.152198
H26   H     H_    0.982117 0.717403 0.468168 0.152198
H27   H     H_    0.001509 0.717295 0.032204 0.151389
H28   H     H_    0.998488 0.282706 0.967796 0.151389
H29   H     H_    0.498459 0.217294 0.967795 0.151388
H30   H     H_    0.501540 0.782706 0.032205 0.151388
H31   H     H_    0.482145 0.782595 0.468169 0.152199
H32   H     H_    0.517857 0.217405 0.531830 0.152199
C9    C     C_R   0.998683 0.537277 0.353071 -0.041813
C10   C     C_R   0.001317 0.462723 0.646929 -0.041813
C11   C     C_R   0.012920 0.463761 0.853028 -0.043203
C12   C     C_R   0.987080 0.536239 0.146971 -0.043202
C13   C     C_R   0.487077 0.963762 0.146972 -0.043205
C14   C     C_R   0.512923 0.036238 0.853028 -0.043206
C15   C     C_R   0.501319 0.037278 0.646929 -0.041810
C16   C     C_R   0.498681 0.962722 0.353071 -0.041811
C17   C     C_R   0.097047 0.358886 0.382458 -0.177362
C18   C     C_R   0.902953 0.641114 0.617542 -0.177362
C19   C     C_R   0.094031 0.644740 0.883042 -0.178258
C20   C     C_R   0.905970 0.355259 0.116958 -0.178258
C21   C     C_R   0.405944 0.144737 0.116957 -0.178258
C22   C     C_R   0.594058 0.855263 0.883043 -0.178258
C23   C     C_R   0.402975 0.858882 0.617543 -0.177362
C24   C     C_R   0.597024 0.141118 0.382457 -0.177362
C25   C     C_R   0.082204 0.433743 0.346524 -0.218549
C26   C     C_R   0.917796 0.566257 0.653475 -0.218549
C27   C     C_R   0.088451 0.569744 0.847028 -0.216789
C28   C     C_R   0.911550 0.430256 0.152972 -0.216788
C29   C     C_R   0.411533 0.069742 0.152971 -0.216788
C30   C     C_R   0.588469 0.930258 0.847029 -0.216787
C31   C     C_R   0.417811 0.933741 0.653476 -0.218550
C32   C     C_R   0.582188 0.066260 0.346524 -0.218550
C33   C     C_R   0.936046 0.568241 0.396925 0.090952
C34   C     C_R   0.063954 0.431759 0.603074 0.090953
C35   C     C_R   0.948279 0.431073 0.896520 0.090964
C36   C     C_R   0.051720 0.568927 0.103480 0.090964
C37   C     C_R   0.551725 0.931077 0.103480 0.090966
C38   C     C_R   0.448275 0.068923 0.896520 0.090965
C39   C     C_R   0.563950 0.068245 0.603074 0.090952
C40   C     C_R   0.436051 0.931755 0.396926 0.090951
C41   C     C_R   0.990459 0.502058 0.435387 0.072372
C42   C     C_R   0.009541 0.497942 0.564613 0.072372
C43   C     C_R   0.994519 0.498362 0.935321 0.072347
C44   C     C_R   0.005479 0.501638 0.064679 0.072346
C45   C     C_R   0.505478 0.998363 0.064679 0.072346
C46   C     C_R   0.494522 0.001637 0.935321 0.072346
C47   C     C_R   0.509543 0.002059 0.564613 0.072371
C48   C     C_R   0.490457 0.997941 0.435387 0.072371
C49   C     C_R   0.051033 0.391864 0.426682 0.102032
C50   C     C_R   0.948967 0.608135 0.573318 0.102032
C51   C     C_R   0.047463 0.610131 0.927011 0.102375
C52   C     C_R   0.952536 0.389869 0.072989 0.102375
C53   C     C_R   0.452518 0.110130 0.072988 0.102376
C54   C     C_R   0.547482 0.889870 0.927012 0.102376
C55   C     C_R   0.448984 0.891863 0.573318 0.102032
C56   C     C_R   0.551017 0.108137 0.426682 0.102031
C57   C     C_R   0.987661 0.539190 0.481875 0.057988
C58   C     C_R   0.012339 0.460810 0.518124 0.057988
C59   C     C_R   0.991401 0.460731 0.981768 0.057663
C60   C     C_R   0.008596 0.539269 0.018232 0.057664
C61   C     C_R   0.508602 0.960732 0.018232 0.057662
C62   C     C_R   0.491397 0.039268 0.981767 0.057663
C63   C     C_R   0.512335 0.039191 0.518124 0.057989
C64   C     C_R   0.487665 0.960809 0.481876 0.057989
C65   C     C_R   0.027681 0.347465 0.506628 -0.206482
C66   C     C_R   0.972319 0.652535 0.493371 -0.206483
C67   C     C_R   0.016823 0.653003 0.006945 -0.206263
C68   C     C_R   0.983175 0.346998 0.993055 -0.206262
C69   C     C_R   0.483154 0.153002 0.993054 -0.206261
C70   C     C_R   0.516845 0.846998 0.006946 -0.206261
C71   C     C_R   0.472339 0.847463 0.493372 -0.206483
C72   C     C_R   0.527662 0.152537 0.506628 -0.206484
C73   C     C_R   0.060407 0.314701 0.462083 -0.194352
C74   C     C_R   0.939593 0.685298 0.537917 -0.194352
C75   C     C_R   0.049289 0.687061 0.962551 -0.193569
C76   C     C_R   0.950709 0.312939 0.037449 -0.193568
C77   C     C_R   0.450682 0.187059 0.037448 -0.193566
C78   C     C_R   0.549319 0.812941 0.962552 -0.193566
C79   C     C_R   0.439618 0.814699 0.537918 -0.194354
C80   C     C_R   0.560383 0.185301 0.462082 -0.194353
C81   C     C_3   0.210012 0.341345 0.599851 -0.801121
H33   H     H_    0.147334 0.258338 0.605769 0.202554
H34   H     H_    0.284126 0.343038 0.566984 0.208151
H35   H     H_    0.321383 0.355620 0.625587 0.223640
C82   C     C_3   0.789987 0.658655 0.400148 -0.801121
H36   H     H_    0.715874 0.656962 0.433016 0.208151
H37   H     H_    0.852664 0.741661 0.394231 0.202555
H38   H     H_    0.678616 0.644378 0.374413 0.223640
C83   C     C_3   0.192084 0.662594 0.101089 -0.797864
H39   H     H_    0.268509 0.663053 0.068549 0.206484
H40   H     H_    0.123865 0.744054 0.106883 0.202449
H41   H     H_    0.302390 0.650275 0.127281 0.223088
C84   C     C_3   0.807913 0.337408 0.898910 -0.797865
H42   H     H_    0.876129 0.255948 0.893117 0.202450
H43   H     H_    0.731488 0.336948 0.931451 0.206484
H44   H     H_    0.697608 0.349728 0.872718 0.223088
C85   C     C_3   0.307896 0.162581 0.898909 -0.797866
H45   H     H_    0.231468 0.163037 0.931450 0.206482
H46   H     H_    0.376101 0.244045 0.893115 0.202450
H47   H     H_    0.197594 0.150256 0.872717 0.223089
C86   C     C_3   0.692102 0.837418 0.101091 -0.797867
H48   H     H_    0.623895 0.755955 0.106884 0.202450
H49   H     H_    0.768531 0.836963 0.068550 0.206482
H50   H     H_    0.802404 0.849742 0.127283 0.223089
C87   C     C_3   0.290005 0.841334 0.400150 -0.801118
H51   H     H_    0.352694 0.758330 0.394232 0.202554
H52   H     H_    0.215893 0.843022 0.433017 0.208153
H53   H     H_    0.178631 0.855603 0.374415 0.223640
C88   C     C_3   0.709996 0.158666 0.599850 -0.801119
H54   H     H_    0.784107 0.156978 0.566983 0.208153
H55   H     H_    0.647307 0.241669 0.605768 0.202554
H56   H     H_    0.821371 0.144396 0.625585 0.223640

loop_
_geom_bond_atom_site_label_1
_geom_bond_atom_site_label_2
_ccdc_geom_bond_type
C7    C10   S    
O14   V4    S    
C11   C27   A    
C88   H54   S    
C60   C67   A    
C4    C13   S    
C44   C60   A    
H23   C23   S    
C19   C27   A    
C20   C28   A    
H17   C17   S    
C23   C31   A    
C87   H51   S    
C64   C71   A    
O9    C1    A    
C10   C34   A    
C9    C33   A    
C81   H34   S    
C86   H48   S    
H6    C78   S    
O8    C5    A    
H16   C31   S    
O13   C5    A    
C14   C38   A    
C56   C80   A    
C13   C37   A    
C84   H43   S    
C43   C59   A    
C42   C58   A    
C84   H42   S    
C15   C39   A    
H12   C27   S    
C45   C53   A    
C59   C60   A    
C40   C87   S    
C68   C76   A    
C47   C55   A    
H5    C77   S    
H20   C20   S    
C16   C32   A    
C58   C65   A    
C9    C25   A    
C57   C66   A    
C39   C47   A    
H32   C72   S    
O1    C4    A    
O2    C3    A    
C19   C51   A    
C62   C69   A    
C85   H46   S    
C61   C70   A    
C6    C11   S    
C46   C62   A    
O5    C8    A    
C41   C49   A    
C63   C72   A    
H8    C80   S    
O6    C7    A    
C21   C29   A    
C20   C52   A    
O7    C6    A    
H3    C75   S    
C2    C15   S    
C88   H55   S    
H15   C32   S    
C18   C26   A    
C39   C88   S    
C17   C25   A    
C87   H52   S    
O20   V2    S    
O4    C1    A    
H27   C67   S    
C81   H35   S    
C44   C52   A    
H26   C66   S    
C83   H40   S    
H14   C29   S    
C53   C77   A    
C12   C28   A    
H13   C30   S    
C51   C75   A    
C82   H38   S    
C37   C45   A    
H22   C22   S    
C49   C73   A    
O17   V3    S    
H1    C73   S    
O18   V4    S    
C33   C41   A    
O19   V1    S    
C82   H37   S    
H4    C76   S    
C21   C53   A    
C18   C50   A    
C5    C12   S    
O3    V4    S    
C17   C49   A    
O11   C3    A    
H11   C28   S    
C69   C77   A    
C24   C56   A    
C11   C35   A    
O10   C2    A    
H7    C79   S    
C22   C54   A    
C1    C16   S    
C85   H47   S    
C37   C86   S    
O11   V2    S    
C38   C46   A    
H18   C18   S    
C15   C31   A    
H30   C70   S    
H10   C25   S    
O12   C4    A    
O6    V2    S    
C86   H50   S    
C40   C48   A    
O4    V3    S    
C84   H44   S    
O9    V1    S    
C41   C57   A    
C14   C30   A    
C83   H39   S    
C87   H53   S    
C13   C29   A    
C83   H41   S    
C36   C44   A    
H19   C19   S    
C48   C56   A    
C57   C58   A    
H9    C26   S    
C48   C64   A    
O5    V1    S    
C50   C74   A    
C54   C78   A    
C65   C73   A    
C59   C68   A    
C67   C75   A    
C36   C83   S    
O3    C2    A    
C47   C63   A    
O12   V1    S    
C71   C79   A    
O8    V1    S    
H21   C21   S    
C63   C64   A    
O15   C7    A    
C88   H56   S    
C3    C14   S    
C34   C81   S    
O16   C8    A    
C43   C51   A    
C81   H33   S    
C42   C50   A    
H2    C74   S    
C23   C55   A    
C45   C61   A    
O15   V4    S    
H24   C24   S    
C72   C80   A    
O1    V3    S    
O16   V3    S    
O14   C6    A    
C24   C32   A    
O2    V4    S    
C82   H36   S    
C55   C79   A    
C38   C85   S    
C33   C82   S    
C12   C36   A    
C34   C42   A    
O10   V2    S    
C52   C76   A    
C46   C54   A    
H25   C65   S    
C16   C40   A    
C70   C78   A    
C86   H49   S    
C22   C30   A    
C35   C84   S    
H28   C68   S    
H29   C69   S    
O7    V2    S    
C35   C43   A    
C85   H45   S    
C61   C62   A    
C66   C74   A    
H31   C71   S    
C10   C26   A    
C8    C9    S    
O13   V3    S    
