data_mof_unit_42522.cif
_audit_creation_date              2012-12-10T19:03:04-0500
_audit_creation_method            fapswitch 2.2
_symmetry_space_group_name_H-M    P1
_symmetry_Int_Tables_number       1
_space_group_crystal_system       triclinic
_cell_length_a                    10.832895
_cell_length_b                    10.82741
_cell_length_c                    9.575903
_cell_angle_alpha                 90.457797
_cell_angle_beta                  90.62489
_cell_angle_gamma                 92.363233
_cell_volume                      1122.11663906

loop_
_atom_site_label
_atom_site_type_symbol
_atom_type_description
_atom_site_fract_x
_atom_site_fract_y
_atom_site_fract_z
_atom_type_partial_charge
C1    C     C_R   0.493841 0.262104 0.498944 0.890381
C2    C     C_3   0.876350 0.482777 0.500040 -0.108949
C3    C     C_3   0.930189 0.600495 0.425199 -0.465018
C4    C     C_3   0.920546 0.364210 0.417946 0.394460
C5    C     C_R   0.485426 0.065274 0.623650 0.106362
C6    C     C_R   0.474681 0.128198 0.497831 -0.149399
C7    C     C_R   0.438206 0.058108 0.376939 0.326041
C8    C     C_R   0.434287 0.928997 0.382967 -0.168137
C9    C     C_R   0.473917 0.869095 0.503582 -0.148050
C10   C     C_R   0.485938 0.938504 0.626612 0.109314
C11   C     C_3   0.579058 0.939665 0.742511 -0.433440
C12   C     C_R   0.259563 0.496337 0.498967 0.853614
C13   C     C_3   0.578343 0.079750 0.739362 -0.324747
C14   C     C_R   0.602036 0.540511 0.073054 0.242476
C15   C     C_R   0.411414 0.436474 0.074073 -0.010058
C16   C     C_R   0.411673 0.434222 0.925740 0.335785
C17   C     C_R   0.603417 0.536261 0.927602 0.220973
C18   C     C_3   0.684825 0.648621 0.915704 -0.482196
C19   C     C_3   0.681972 0.657461 0.074941 0.063221
C20   C     C_R   0.494349 0.737322 0.500884 0.820362
C21   C     C_R   0.739149 0.491577 0.500572 0.851383
C22   C     C_3   0.071279 0.467454 0.646302 -0.389940
C23   C     C_3   0.932619 0.487907 0.652629 0.105537
C24   C     C_3   0.071746 0.612492 0.444152 -0.421175
C25   C     C_3   0.066714 0.379157 0.398069 0.409822
C26   C     C_3   0.120667 0.487983 0.495817 -0.102126
Cu1   Cu    Cu3+1 0.499990 0.499980 0.640670 1.018009
Cu2   Cu    Cu3+1 0.500010 0.500020 0.359330 1.049256
H1    H     H_    0.115179 0.642318 0.344663 0.231797
H2    H     H_    0.907253 0.595830 0.311923 0.235518
H3    H     H_    0.406212 0.876080 0.290980 0.220352
H4    H     H_    0.538698 0.901694 0.839992 0.245061
H5    H     H_    0.668617 0.902235 0.710401 0.208695
H6    H     H_    0.667258 0.123793 0.705429 0.247085
H7    H     H_    0.343369 0.382088 0.129658 0.232342
H8    H     H_    0.638532 0.722291 0.859119 0.218953
H9    H     H_    0.920678 0.582792 0.694691 0.140103
H10   H     H_    0.095806 0.686671 0.522190 0.195143
N1    N     N_R   0.500800 0.500930 0.147930 -0.213448
N2    N     N_R   0.500800 0.500890 0.852020 -0.222195
O1    O     O_R   0.500000 0.319640 0.618810 -0.553073
O2    O     O_R   0.500010 0.319680 0.381230 -0.533997
O3    O     O_R   0.317690 0.499960 0.618790 -0.565381
O4    O     O_R   0.317700 0.500000 0.381210 -0.562950
O5    O     O_R   0.499990 0.680320 0.618770 -0.594665
O6    O     O_R   0.500000 0.680360 0.381190 -0.546192
O7    O     O_R   0.682300 0.500000 0.618790 -0.562368
O8    O     O_R   0.682310 0.500040 0.381210 -0.563640
H11   H     H_    0.118419 0.531709 0.723084 0.210138
Br1   Br    Br    0.831685 0.333169 0.238509 -0.324983
Br2   Br    Br    0.400222 0.126542 0.197891 -0.379118
H12   H     H_    0.538660 0.120751 0.834885 0.249493
H13   H     H_    0.089308 0.371722 0.678512 0.278198
Br3   Br    Br    0.298170 0.316703 0.839526 -0.399441
H14   H     H_    0.777588 0.628426 0.875929 0.203729
H15   H     H_    0.773852 0.644863 0.123944 0.158384
Br4   Br    Br    0.605077 0.807736 0.129725 -0.480775
Br5   Br    Br    0.860268 0.380389 0.797575 -0.394131
H16   H     H_    0.888921 0.685423 0.467417 0.193640
Br6   Br    Br    0.107828 0.415616 0.201815 -0.399793
Br7   Br    Br    0.152892 0.226418 0.435519 -0.378858
Br8   Br    Br    0.867818 0.212362 0.515015 -0.387385

loop_
_geom_bond_atom_site_label_1
_geom_bond_atom_site_label_2
_ccdc_geom_bond_type
C19   H15   S    
C3    H2    S    
C2    C4    S    
C6    C7    A    
C25   Br6   S    
Cu1   O3    S    
C23   Br5   S    
C13   H12   S    
C9    C10   A    
Cu1   O1    S    
C9    C20   S    
C5    C13   S    
C20   O5    A    
C4    Br1   S    
Cu1   N2    S    
C21   O8    A    
C15   N1    A    
Cu1   O5    S    
C2    C21   S    
C17   C18   S    
C25   C26   S    
C7    Br2   S    
C13   H6    S    
C12   O4    A    
C25   Br7   S    
C19   Br4   S    
C11   C13   S    
C14   C17   A    
Cu2   O6    S    
C3    C24   S    
C18   H14   S    
C16   N2    A    
C22   H11   S    
C22   H13   S    
C1    O1    A    
C24   C26   S    
C11   H4    S    
C4    C25   S    
C12   O3    A    
C2    C3    S    
C22   C23   S    
C5    C6    A    
C16   Br3   S    
C7    C8    A    
C10   C11   S    
C5    C10   A    
C24   H10   S    
C4    Br8   S    
C1    O2    A    
C11   H5    S    
C18   C19   S    
C22   C26   S    
C15   H7    S    
C2    C23   S    
Cu1   O7    S    
C3    H16   S    
C24   H1    S    
Cu2   O8    S    
Cu2   O2    S    
Cu2   N1    S    
C21   O7    A    
C14   N1    A    
C23   H9    S    
C8    H3    S    
C18   H8    S    
C14   C19   S    
Cu2   O4    S    
C20   O6    A    
C15   C16   A    
C12   C26   S    
C8    C9    A    
Cu1   Cu2   S    
C17   N2    A    
C1    C6    S    
