data_mof_unit_59907.cif
_audit_creation_date              2012-12-10T18:23:18-0500
_audit_creation_method            fapswitch 2.2
_symmetry_space_group_name_H-M    P1
_symmetry_Int_Tables_number       1
_space_group_crystal_system       triclinic
_cell_length_a                    27.811501
_cell_length_b                    10.613647
_cell_length_c                    9.411644
_cell_angle_alpha                 89.649098
_cell_angle_beta                  89.839303
_cell_angle_gamma                 90.023329
_cell_volume                      2778.07948371

loop_
_atom_site_label
_atom_site_type_symbol
_atom_type_description
_atom_site_fract_x
_atom_site_fract_y
_atom_site_fract_z
_atom_type_partial_charge
C1    C     C_R   0.500116 0.259392 0.500417 0.821061
C2    C     C_R   0.499849 0.740610 0.499589 0.822931
C3    C     C_R   0.101853 0.499071 0.489059 -0.043235
C4    C     C_R   0.897972 0.497080 0.508068 -0.043144
C5    C     C_R   0.127357 0.387956 0.458275 -0.026628
C6    C     C_R   0.872600 0.606036 0.548164 -0.024789
C7    C     C_R   0.102128 0.276929 0.431834 -0.138218
C8    C     C_R   0.897970 0.714362 0.585155 -0.139668
C9    C     C_R   0.127654 0.610559 0.515953 -0.025339
C10   C     C_R   0.872040 0.387912 0.472040 -0.025030
C11   C     C_R   0.354697 0.493543 0.499524 -0.172513
C12   C     C_R   0.645259 0.505631 0.500257 -0.151998
C13   C     C_R   0.974128 0.385860 0.465168 0.042775
C14   C     C_R   0.025639 0.611168 0.527547 0.043190
C15   C     C_R   0.974595 0.609512 0.537072 0.042705
C16   C     C_R   0.025286 0.385478 0.464035 0.043064
C17   C     C_R   0.949123 0.497448 0.503523 0.070119
C18   C     C_R   0.050703 0.498592 0.493446 0.070131
C19   C     C_R   0.946793 0.278260 0.428499 -0.203231
C20   C     C_R   0.052776 0.722187 0.550151 -0.203199
C21   C     C_R   0.896882 0.279514 0.432156 -0.140992
C22   C     C_R   0.102672 0.721474 0.544980 -0.140189
C23   C     C_R   0.407602 0.496736 0.500239 0.858800
C24   C     C_R   0.592383 0.503092 0.499750 0.856313
C25   C     C_R   0.052222 0.275321 0.434985 -0.202916
C26   C     C_R   0.947856 0.716256 0.580184 -0.203752
C27   C     C_3   0.539853 0.042401 0.434499 -0.146930
C28   C     C_3   0.460093 0.957607 0.565534 -0.148885
C29   C     C_3   0.500649 0.960350 0.364678 -0.126438
C30   C     C_3   0.499296 0.039662 0.635353 -0.129121
C31   C     C_3   0.499895 0.877562 0.498745 0.003057
C32   C     C_3   0.500052 0.122447 0.501283 0.002141
C33   C     C_3   0.539101 0.957322 0.568445 -0.138369
C34   C     C_3   0.460844 0.042691 0.431589 -0.139956
C35   C     C_3   0.510890 0.610214 0.049594 -0.015734
C36   C     C_3   0.489111 0.389785 0.950414 -0.015109
C37   C     C_3   0.469054 0.579804 0.949025 -0.043807
C38   C     C_3   0.530948 0.420198 0.050984 -0.048027
C39   C     C_3   0.541868 0.530363 0.948996 0.010996
C40   C     C_3   0.458136 0.469638 0.051022 0.009527
C41   C     C_R   0.177827 0.390080 0.456022 0.552598
C42   C     C_R   0.822131 0.604199 0.550311 0.549884
C43   C     C_R   0.178146 0.608421 0.513915 0.548888
C44   C     C_R   0.821551 0.390243 0.474754 0.549248
C45   C     C_R   0.280579 0.567197 0.390812 -0.074574
C46   C     C_R   0.719336 0.428082 0.605598 -0.074758
C47   C     C_R   0.330609 0.565310 0.395874 -0.280148
C48   C     C_R   0.669301 0.431030 0.601406 -0.276215
C49   C     C_R   0.327572 0.420175 0.597603 0.412994
C50   C     C_R   0.672389 0.580736 0.403929 0.358476
C51   C     C_R   0.277323 0.424620 0.592237 -0.158132
C52   C     C_R   0.722633 0.575508 0.408611 -0.189623
C53   C     C_R   0.253758 0.497340 0.489361 0.264864
C54   C     C_R   0.746140 0.499944 0.508905 0.288983
Cu1   Cu    Cu3+1 0.500010 0.499990 0.643150 0.988747
Cu2   Cu    Cu3+1 0.499990 0.500010 0.356850 0.987460
H1    H     H_    0.571106 0.919098 0.624210 0.160157
H2    H     H_    0.428839 0.080923 0.375829 0.159205
H3    H     H_    0.520253 0.702995 0.095798 0.154693
H4    H     H_    0.479737 0.297009 0.904218 0.150012
H5    H     H_    0.577104 0.556200 0.901422 0.162344
H6    H     H_    0.422913 0.443798 0.098680 0.159335
H7    H     H_    0.737327 0.369958 0.684031 0.161147
H8    H     H_    0.262606 0.623043 0.310278 0.164017
H9    H     H_    0.962652 0.191165 0.394134 0.139478
H10   H     H_    0.036709 0.812503 0.570538 0.137879
H11   H     H_    0.501247 0.925225 0.253807 0.147779
H12   H     H_    0.498698 0.074785 0.746225 0.146368
N1    N     N_R   0.202152 0.499019 0.484943 -0.457175
N2    N     N_R   0.797709 0.497604 0.512803 -0.457362
N3    N     N_3   0.500040 0.499970 0.858290 -0.174379
N4    N     N_3   0.499960 0.500030 0.141710 -0.175802
O1    O     O_R   0.500020 0.316850 0.620870 -0.568421
O2    O     O_R   0.499980 0.683150 0.379130 -0.567918
O3    O     O_R   0.500000 0.316860 0.379090 -0.599398
O4    O     O_R   0.500000 0.683140 0.620910 -0.599077
O5    O     O_R   0.430270 0.500020 0.620880 -0.517675
O6    O     O_R   0.569730 0.499980 0.379120 -0.519850
O7    O     O_R   0.430250 0.500030 0.379090 -0.604836
O8    O     O_R   0.569750 0.499970 0.620910 -0.604027
O9    O     O_2   0.202442 0.284161 0.424813 -0.515998
O10   O     O_2   0.797608 0.708066 0.589710 -0.526502
O11   O     O_2   0.796471 0.286649 0.437812 -0.529164
O12   O     O_2   0.203057 0.714343 0.542787 -0.525378
S1    S     S_3+6 0.354301 0.317195 0.723281 -0.008492
O13   O     O_2   0.394730 0.245416 0.655196 -0.327359
O14   O     O_2   0.373463 0.393489 0.844478 -0.321375
O15   O     O_3   0.313356 0.214253 0.786312 -0.522494
H13   H     H_    0.330983 0.162240 0.856685 0.376027
S2    S     S_3+6 0.645633 0.686654 0.281336 0.005877
O16   O     O_2   0.626569 0.613355 0.157715 -0.276526
O17   O     O_2   0.604921 0.756568 0.350392 -0.332931
O18   O     O_3   0.686297 0.791362 0.220505 -0.500281
H14   H     H_    0.694127 0.844423 0.303532 0.354593
H15   H     H_    0.572484 0.080239 0.381049 0.153231
H16   H     H_    0.427465 0.919762 0.618992 0.152474
H17   H     H_    0.443005 0.646813 0.901073 0.134656
H18   H     H_    0.556995 0.353189 0.098945 0.135971
H19   H     H_    0.256037 0.370707 0.667493 0.200426
H20   H     H_    0.743956 0.630929 0.334853 0.185877
H21   H     H_    0.120911 0.189869 0.409202 0.189930
H22   H     H_    0.879318 0.798933 0.618149 0.190032
H23   H     H_    0.649240 0.373634 0.676525 0.171456
H24   H     H_    0.350624 0.621255 0.319276 0.173638
H25   H     H_    0.877786 0.194602 0.402788 0.189807
H26   H     H_    0.121637 0.808935 0.564037 0.190309
H27   H     H_    0.036054 0.184919 0.415961 0.137631
H28   H     H_    0.964242 0.803150 0.612958 0.139784

loop_
_geom_bond_atom_site_label_1
_geom_bond_atom_site_label_2
_ccdc_geom_bond_type
Cu1   Cu2   S    
O18   H14   S    
C27   C29   S    
C8    C26   A    
C14   C18   A    
C27   H15   S    
C42   O10   S    
C38   H18   S    
C44   O11   S    
C53   N1    S    
C37   H17   S    
C40   H6    S    
S1    O13   D    
C27   C33   S    
Cu2   O7    S    
C11   C49   A    
C20   H10   S    
C35   C37   S    
C37   C40   S    
C38   C39   S    
Cu1   O5    S    
C9    C22   A    
C42   N2    A    
Cu2   O6    S    
C3    C18   A    
C35   H3    S    
C11   C23   S    
C29   H11   S    
C11   C47   A    
C50   S2    S    
C52   C54   A    
C49   C51   A    
C50   C52   A    
C31   C33   S    
C44   N2    A    
C2    O2    A    
C36   N3    S    
C12   C48   A    
S1    O14   D    
C28   C34   S    
C43   N1    A    
Cu2   O3    S    
C43   O12   S    
C24   O8    A    
C38   N4    S    
C45   C47   A    
C10   C21   A    
C51   H19   S    
C39   H5    S    
C46   C48   A    
C9    C43   A    
Cu2   O2    S    
C13   C19   A    
C10   C44   A    
C1    O3    A    
C14   C20   A    
C36   C40   S    
C4    C6    A    
C26   H28   S    
C5    C7    A    
C15   C26   A    
C6    C8    A    
Cu2   N4    S    
C22   H26   S    
C48   H23   S    
C29   C34   S    
C52   H20   S    
C1    C32   S    
C2    C31   S    
C51   C53   A    
C32   C34   S    
Cu1   N3    S    
C35   C39   S    
C3    C9    A    
C49   S1    S    
S2    O17   D    
C54   N2    S    
C41   O9    S    
C46   C54   A    
C23   O5    A    
Cu1   O4    S    
C24   O6    A    
C20   C22   A    
C35   N4    S    
C37   N3    S    
C6    C42   A    
C4    C17   A    
C4    C10   A    
C3    C5    A    
C2    O4    A    
C25   H27   S    
S2    O18   S    
C41   N1    A    
S1    O15   S    
C16   C25   A    
C15   C17   A    
C5    C41   A    
C33   H1    S    
C47   H24   S    
C40   N4    S    
C30   C33   S    
C19   C21   A    
C27   C32   S    
C28   C31   S    
C36   H4    S    
C12   C50   A    
C12   C24   S    
C45   H8    S    
C7    C25   A    
C13   C17   A    
C46   H7    S    
C28   H16   S    
C1    O1    A    
C36   C38   S    
C29   C31   S    
C30   C32   S    
Cu1   O8    S    
S2    O16   D    
C28   C30   S    
C19   H9    S    
C21   H25   S    
C45   C53   A    
Cu1   O1    S    
O15   H13   S    
C16   C18   A    
C7    H21   S    
C13   C16   A    
C34   H2    S    
C39   N3    S    
C14   C15   A    
C23   O7    A    
C8    H22   S    
C30   H12   S    
