data_mof_unit_17580.cif
_audit_creation_date              2012-12-11T14:25:56-0500
_audit_creation_method            fapswitch 2.2
_symmetry_space_group_name_H-M    P1
_symmetry_Int_Tables_number       1
_space_group_crystal_system       triclinic
_cell_length_a                    6.932582
_cell_length_b                    14.797624
_cell_length_c                    16.18973
_cell_angle_alpha                 90.538669
_cell_angle_beta                  89.995133
_cell_angle_gamma                 90.337412
_cell_volume                      1660.73326398

loop_
_atom_site_label
_atom_site_type_symbol
_atom_type_description
_atom_site_fract_x
_atom_site_fract_y
_atom_site_fract_z
_atom_type_partial_charge
O1    O     O_R   0.494490 0.416160 0.413410 -0.547456
O2    O     O_R   0.823830 0.407240 0.585990 -0.566311
O3    O     O_R   0.994160 0.583840 0.586590 -0.558652
C1    C     C_R   0.653445 0.385460 0.614215 0.599154
O4    O     O_R   0.824200 0.405280 0.414020 -0.512367
O5    O     O_R   0.994530 0.581860 0.413390 -0.500211
C2    C     C_R   0.654547 0.380726 0.387753 0.767475
O6    O     O_R   0.494110 0.418140 0.586610 -0.541772
O7    O     O_3   0.660810 0.557940 0.500000 -0.351878
V1    V     V_3+5 0.935650 0.489250 0.500000 1.452467
O8    O     O_R   0.324250 0.592760 0.414010 -0.544098
C3    C     C_R   0.155507 0.614114 0.385289 0.817528
O9    O     O_R   0.323880 0.594720 0.585980 -0.518156
C4    C     C_R   0.155192 0.614962 0.616429 0.769211
V2    V     V_3+5 0.435660 0.510750 0.500000 1.471322
O10   O     O_3   0.160630 0.442060 0.500000 -0.393145
C5    C     C_3   0.931126 0.689445 0.723791 0.008719
H1    H     H_    0.834723 0.708865 0.671938 0.165676
C6    C     C_3   0.917228 0.765489 0.789972 -0.374920
H2    H     H_    0.839017 0.741088 0.844874 0.202167
H3    H     H_    0.827133 0.821242 0.765891 0.166707
H4    H     H_    0.089401 0.800196 0.615530 0.073776
C7    C     C_3   0.204433 0.778172 0.659363 0.175387
C8    C     C_3   0.284611 0.656037 0.761020 0.287278
C9    C     C_3   0.144091 0.682028 0.689223 -0.161377
H5    H     H_    0.433817 0.669263 0.737437 0.126336
C10   C     C_3   0.120970 0.801221 0.814548 -0.159257
C11   C     C_3   0.213470 0.844461 0.735196 -0.039259
C12   C     C_3   0.250004 0.716587 0.841506 0.708599
H6    H     H_    0.368128 0.858233 0.749689 0.191242
C13   C     C_2   0.984963 0.714305 0.285110 0.392330
C14   C     C_2   0.148680 0.674938 0.312676 -0.460693
H7    H     H_    0.281986 0.683735 0.278303 0.101668
C15   C     C_2   0.981169 0.760272 0.201929 0.383220
C16   C     C_2   0.119812 0.820916 0.182006 -0.434158
H8    H     H_    0.243839 0.829787 0.222346 0.087187
C17   C     C_2   0.777424 0.203202 0.775817 -0.100004
C18   C     C_2   0.614840 0.165685 0.806071 -0.259479
H9    H     H_    0.915672 0.186421 0.803015 0.131687
H10   H     H_    0.478289 0.175526 0.775407 0.167117
C19   C     C_2   0.779434 0.264395 0.703134 -0.228495
C20   C     C_2   0.635269 0.321823 0.684712 0.306728
H11   H     H_    0.907858 0.263430 0.664843 0.080248
C21   C     C_2   0.758426 0.183442 0.232236 0.038242
C22   C     C_2   0.622945 0.185510 0.171157 0.256307
C23   C     C_2   0.788131 0.259362 0.293714 0.472137
C24   C     C_2   0.637267 0.304609 0.327606 -0.400661
H12   H     H_    0.491444 0.281902 0.314086 0.158281
O11   O     O_R   0.770850 0.076180 0.907410 -0.538781
O12   O     O_R   0.440600 0.088970 0.079950 -0.540909
O13   O     O_R   0.270430 0.912340 0.080550 -0.557037
C25   C     C_R   0.610077 0.111249 0.108203 0.705222
O14   O     O_R   0.441120 0.087010 0.907980 -0.544800
O15   O     O_R   0.270950 0.910370 0.907350 -0.529072
C26   C     C_R   0.609987 0.106111 0.878260 0.714222
O16   O     O_R   0.770320 0.078150 0.080620 -0.529518
O17   O     O_3   0.604200 0.936340 0.994000 -0.371483
V3    V     V_3+5 0.329300 0.004970 0.993950 1.445548
O18   O     O_R   0.941240 0.899420 0.907920 -0.551303
C27   C     C_R   0.110071 0.875366 0.880873 0.778019
O19   O     O_R   0.940720 0.901380 0.079890 -0.509450
C28   C     C_R   0.109180 0.880939 0.109189 0.791366
V4    V     V_3+5 0.829310 0.983370 0.993880 1.470777
O20   O     O_3   0.104280 0.052120 0.993920 -0.373922
O21   O     O_3   0.436818 0.749005 0.866389 -0.601676
C29   C     C_3   0.490420 0.730708 0.948674 -0.172496
H13   H     H_    0.484441 0.657505 0.962665 0.132593
H14   H     H_    0.405653 0.770925 0.993361 0.155539
H15   H     H_    0.640756 0.753681 0.957870 0.146997
O22   O     O_3   0.389633 0.774903 0.621586 -0.551953
C30   C     C_3   0.391245 0.821518 0.546060 -0.243423
H16   H     H_    0.342587 0.892494 0.553971 0.116645
H17   H     H_    0.300639 0.785562 0.499389 0.123265
H18   H     H_    0.541527 0.823560 0.522726 0.150140
O23   O     O_3   0.815031 0.702184 0.329639 -0.533997
C31   C     C_3   0.711578 0.783824 0.335335 -0.239523
H19   H     H_    0.641832 0.800612 0.275740 0.167698
H20   H     H_    0.804729 0.840731 0.357306 0.107250
H21   H     H_    0.594023 0.774897 0.380951 0.144098
O24   O     O_3   0.826492 0.747875 0.147817 -0.548621
C32   C     C_3   0.765244 0.656666 0.145684 -0.257136
H22   H     H_    0.667389 0.641890 0.198147 0.185447
H23   H     H_    0.888549 0.608703 0.144354 0.125575
H24   H     H_    0.681216 0.644879 0.088417 0.126155
N1    N     N_3   0.853523 0.604363 0.757217 -0.671593
H25   H     H_    0.880897 0.549194 0.718662 0.252422
H26   H     H_    0.912762 0.589732 0.814624 0.302128
O25   O     O_3   0.482551 0.330917 0.739845 -0.564049
C33   C     C_3   0.303627 0.312123 0.701366 -0.233448
H27   H     H_    0.314267 0.263959 0.648166 0.098258
H28   H     H_    0.233727 0.375902 0.682230 0.185378
H29   H     H_    0.207294 0.280714 0.747749 0.143149
N2    N     N_3   0.886221 0.107498 0.236008 -0.689597
H30   H     H_    0.874456 0.078891 0.294574 0.202468
H31   H     H_    0.027572 0.130384 0.227192 0.265503
O26   O     O_3   0.494678 0.257098 0.167322 -0.561294
C34   C     C_3   0.516978 0.302192 0.091477 -0.235488
H32   H     H_    0.455738 0.261664 0.039520 0.138225
H33   H     H_    0.670802 0.319648 0.079096 0.122417
H34   H     H_    0.435764 0.366497 0.094724 0.167143
O27   O     O_3   0.976156 0.285178 0.312383 -0.532531
C35   C     C_3   0.040724 0.238220 0.382786 -0.188386
H35   H     H_    0.100302 0.171490 0.365001 0.104428
H36   H     H_    0.927211 0.229654 0.430928 0.087504
H37   H     H_    0.160315 0.277526 0.411423 0.161677
N3    N     N_3   0.125523 0.931965 0.715771 -0.690872
H38   H     H_    0.990061 0.922619 0.688619 0.222663
H39   H     H_    0.212424 0.965164 0.672747 0.224641
O28   O     O_3   0.260849 0.562503 0.778100 -0.558341
C36   C     C_3   0.435407 0.524024 0.804671 -0.133237
H40   H     H_    0.517697 0.568458 0.847670 0.140432
H41   H     H_    0.525809 0.507246 0.750249 0.161176
H42   H     H_    0.401795 0.461107 0.838484 0.189383
O29   O     O_3   0.163447 0.654934 0.899495 -0.553798
C37   C     C_3   0.070780 0.688808 0.970777 -0.256167
H43   H     H_    0.915396 0.672361 0.967212 0.142938
H44   H     H_    0.091141 0.760645 0.983756 0.104535
H45   H     H_    0.127847 0.652329 0.025001 0.155035

loop_
_geom_bond_atom_site_label_1
_geom_bond_atom_site_label_2
_ccdc_geom_bond_type
C29   H14   S    
C12   O29   S    
N2    H30   S    
O11   V4    S    
C10   C12   S    
C19   C20   D    
C16   H8    S    
C31   H21   S    
C1    O6    A    
C32   H24   S    
O29   C37   S    
O15   C27   A    
N1    H25   S    
O27   C35   S    
N3    H39   S    
C5    N1    S    
C6    H3    S    
C31   H20   S    
C10   C27   S    
O5    C3    A    
C29   H15   S    
N3    H38   S    
V2    O10   S    
C34   H32   S    
C35   H37   S    
C15   C16   D    
O19   V4    S    
C36   H40   S    
C21   N2    S    
C34   H33   S    
C8    C12   S    
O8    V2    S    
C18   C26   S    
C13   C14   D    
C11   N3    S    
C37   H44   S    
O12   C25   A    
O22   C30   S    
O1    V2    S    
C33   H28   S    
C6    C10   S    
O7    V1    S    
C15   O24   S    
N1    H26   S    
C29   H13   S    
O18   C27   A    
N2    H31   S    
O9    C4    A    
C3    C14   S    
C19   H11   S    
C7    O22   S    
O19   C28   A    
O13   C28   A    
C32   H23   S    
C21   C23   S    
O17   V4    S    
O14   C26   A    
V3    O20   S    
C23   O27   S    
C13   C15   S    
O12   V3    S    
C31   H19   S    
C30   H17   S    
C22   C25   S    
O11   C26   A    
C32   H22   S    
C2    C24   S    
O2    C1    A    
O23   C31   S    
C17   C18   D    
C13   O23   S    
C24   H12   S    
O14   V3    S    
C37   H45   S    
O26   C34   S    
C5    H1    S    
O16   V4    S    
O13   V3    S    
C7    C11   S    
C8    C9    S    
C33   H29   S    
C35   H36   S    
C36   H42   S    
O3    C4    A    
C12   O21   S    
O6    V2    S    
O9    V2    S    
C20   O25   S    
O2    V1    S    
C34   H34   S    
C21   C22   D    
O4    C2    A    
O15   V3    S    
C23   C24   D    
O1    C2    A    
C8    O28   S    
C8    H5    S    
O24   C32   S    
O5    V1    S    
C30   H18   S    
O8    C3    A    
O18   V4    S    
C5    C9    S    
C14   H7    S    
C6    H2    S    
C11   H6    S    
O7    V2    S    
O4    V1    S    
C17   H9    S    
O3    V1    S    
V1    O10   S    
O28   C36   S    
C18   H10   S    
O17   V3    S    
C1    C20   S    
C5    C6    S    
C16   C28   S    
C7    C9    S    
C4    C9    S    
C17   C19   S    
C35   H35   S    
C36   H41   S    
V4    O20   S    
C25   O16   A    
C30   H16   S    
O25   C33   S    
O21   C29   S    
C10   C11   S    
H4    C7    S    
C33   H27   S    
C22   O26   S    
C37   H43   S    
