data_mof_unit_41621.cif
_audit_creation_date              2012-12-11T17:23:09-0500
_audit_creation_method            fapswitch 2.2
_symmetry_space_group_name_H-M    P1
_symmetry_Int_Tables_number       1
_space_group_crystal_system       triclinic
_cell_length_a                    22.430267
_cell_length_b                    7.089029
_cell_length_c                    19.463195
_cell_angle_alpha                 89.999219
_cell_angle_beta                  99.192581
_cell_angle_gamma                 89.99962
_cell_volume                      3055.07264472

loop_
_atom_site_label
_atom_site_type_symbol
_atom_type_description
_atom_site_fract_x
_atom_site_fract_y
_atom_site_fract_z
_atom_type_partial_charge
O1    O     O_R   0.443980 0.494320 0.557430 -0.534422
O2    O     O_R   0.556020 0.994320 0.442570 -0.534410
O3    O     O_R   0.441210 0.822520 0.414610 -0.544565
O4    O     O_R   0.558790 0.322520 0.585390 -0.544573
C1    C     C_R   0.426804 0.655354 0.389052 0.730810
C2    C     C_R   0.573195 0.155350 0.610949 0.730786
O5    O     O_R   0.436920 0.823940 0.555180 -0.533557
O6    O     O_R   0.563080 0.323940 0.444820 -0.533561
O7    O     O_R   0.551700 0.995760 0.584140 -0.532856
O8    O     O_R   0.448300 0.495760 0.415860 -0.532869
C3    C     C_R   0.421705 0.655443 0.575018 0.713226
C4    C     C_R   0.578295 0.155444 0.424982 0.713223
O9    O     O_3   0.537660 0.661290 0.509340 -0.372439
O10   O     O_3   0.462340 0.161290 0.490660 -0.372445
V1    V     V_3+5 0.493010 0.935560 0.498270 1.441969
V2    V     V_3+5 0.506990 0.435560 0.501730 1.441946
H1    H     H_    0.690050 0.829264 0.270712 0.130697
H2    H     H_    0.309968 0.329281 0.729315 0.130695
C5    C     C_R   0.759100 0.941254 0.217115 -0.183897
C6    C     C_R   0.240909 0.441266 0.782899 -0.183855
H3    H     H_    0.765888 0.807700 0.192502 0.152279
H4    H     H_    0.234130 0.307720 0.807524 0.152238
C7    C     C_R   0.793418 0.099526 0.204523 0.067783
C8    C     C_R   0.206581 0.599530 0.795476 0.067776
C9    C     C_R   0.783291 0.272664 0.236943 0.201393
C10   C     C_R   0.216697 0.772657 0.763040 0.201375
C11   C     C_R   0.739647 0.283917 0.281362 -0.129932
C12   C     C_R   0.260342 0.783908 0.718622 -0.129929
H5    H     H_    0.732282 0.417183 0.305992 0.131563
H6    H     H_    0.267699 0.917165 0.693980 0.131571
C13   C     C_R   0.705828 0.124799 0.294216 0.071508
C14   C     C_R   0.294172 0.624798 0.705784 0.071507
C15   C     C_R   0.715771 0.953627 0.261638 -0.153060
C16   C     C_R   0.284239 0.453637 0.738377 -0.153065
C17   C     C_1   0.838788 0.082953 0.158839 -0.048091
C18   C     C_1   0.161211 0.582958 0.841160 -0.048098
C19   C     C_1   0.661076 0.137008 0.340722 -0.041935
C20   C     C_1   0.338924 0.637005 0.659278 -0.041935
C21   C     C_1   0.623568 0.146236 0.379371 -0.175707
C22   C     C_1   0.376432 0.646233 0.620629 -0.175710
C23   C     C_1   0.876966 0.071671 0.121164 -0.159666
C24   C     C_1   0.123033 0.571674 0.878835 -0.159662
C25   C     C_R   0.626152 0.167943 0.804203 -0.197047
C26   C     C_R   0.373837 0.668132 0.195799 -0.197075
H7    H     H_    0.605599 0.195005 0.849691 0.118821
H8    H     H_    0.394383 0.695293 0.150313 0.118824
C27   C     C_R   0.612945 0.148335 0.679039 -0.054157
C28   C     C_R   0.387052 0.648357 0.320962 -0.054142
C29   C     C_R   0.907545 0.068026 0.761692 0.181953
C30   C     C_R   0.092458 0.567954 0.238309 0.181956
C31   C     C_R   0.870203 0.079804 0.696194 0.143225
C32   C     C_R   0.129801 0.579706 0.303807 0.143227
C33   C     C_R   0.807740 0.095440 0.693766 -0.245967
C34   C     C_R   0.192263 0.595356 0.306235 -0.245969
C35   C     C_R   0.779603 0.097019 0.753734 0.039761
C36   C     C_R   0.220397 0.596991 0.246265 0.039761
C37   C     C_R   0.817111 0.087289 0.820541 -0.035674
C38   C     C_R   0.182888 0.587297 0.179458 -0.035676
C39   C     C_R   0.715014 0.114172 0.748194 0.074591
C40   C     C_R   0.284985 0.614177 0.251806 0.074596
C41   C     C_R   0.688660 0.129488 0.809702 0.017751
C42   C     C_R   0.311335 0.629594 0.190299 0.017763
C43   C     C_R   0.724882 0.107583 0.875602 0.080574
C44   C     C_R   0.275115 0.607705 0.124397 0.080574
C45   C     C_R   0.788083 0.091367 0.880955 0.134588
C46   C     C_R   0.211915 0.591431 0.119043 0.134583
C47   C     C_R   0.675195 0.116894 0.683088 -0.254607
C48   C     C_R   0.324805 0.616845 0.316911 -0.254633
C49   C     C_R   0.588532 0.178532 0.739807 0.200366
C50   C     C_R   0.411457 0.678681 0.260197 0.200351
C51   C     C_R   0.881906 0.073086 0.823738 -0.139939
C52   C     C_R   0.118095 0.573068 0.176262 -0.139939
H9    H     H_    0.690456 0.093728 0.634102 0.101077
H10   H     H_    0.309549 0.593583 0.365894 0.101085
H11   H     H_    0.781943 0.109854 0.642522 0.118149
H12   H     H_    0.218062 0.609747 0.357478 0.118150
O11   O     O_R   0.051730 0.724670 0.084120 -0.537229
O12   O     O_R   0.948270 0.224670 0.915880 -0.537228
O13   O     O_R   0.063080 0.393540 0.944820 -0.538436
O14   O     O_R   0.936920 0.893540 0.055180 -0.538436
C53   C     C_R   0.077122 0.561866 0.923533 0.717060
C54   C     C_R   0.922878 0.061865 0.076467 0.717058
O15   O     O_R   0.058800 0.395030 0.085390 -0.540682
O16   O     O_R   0.941200 0.895030 0.914610 -0.540682
O17   O     O_R   0.943980 0.223310 0.057440 -0.536457
O18   O     O_R   0.056020 0.723310 0.942560 -0.536457
C55   C     C_R   0.074353 0.563956 0.110089 0.701519
C56   C     C_R   0.925647 0.063960 0.889911 0.701521
O19   O     O_3   0.962360 0.556290 0.990650 -0.369839
O20   O     O_3   0.037640 0.056290 0.009350 -0.369839
V3    V     V_3+5 0.006980 0.281990 0.001730 1.395223
V4    V     V_3+5 0.993020 0.781990 0.998270 1.395222
C57   C     C_3   0.891393 0.078954 0.625090 -0.347859
C58   C     C_3   0.959169 0.060506 0.622031 -0.253253
C59   C     C_3   0.970904 0.060662 0.546828 -0.810849
H13   H     H_    0.947645 0.939655 0.517729 0.235964
H14   H     H_    0.954667 0.194354 0.520466 0.235869
H15   H     H_    0.020154 0.047820 0.546163 0.223298
H16   H     H_    0.984016 0.181761 0.649200 0.224123
H17   H     H_    0.976628 0.925459 0.646377 0.222210
H18   H     H_    0.867924 0.960561 0.594369 0.167606
H19   H     H_    0.875265 0.211984 0.597940 0.166824
C60   C     C_3   0.108613 0.578812 0.374912 -0.347857
C61   C     C_3   0.040836 0.560404 0.377970 -0.253256
C62   C     C_3   0.029101 0.560556 0.453173 -0.810851
H20   H     H_    0.052356 0.439536 0.482271 0.235968
H21   H     H_    0.045343 0.694238 0.479537 0.235870
H22   H     H_    0.979850 0.547734 0.453838 0.223295
H23   H     H_    0.015995 0.681675 0.350803 0.224114
H24   H     H_    0.023369 0.425369 0.353623 0.222219
H25   H     H_    0.132076 0.460386 0.405620 0.167604
H26   H     H_    0.124750 0.711816 0.402074 0.166826
N1    N     N_3   0.821067 0.081949 0.949970 -0.703253
H27   H     H_    0.848874 0.199964 0.959604 0.239099
H28   H     H_    0.843413 0.952840 0.957464 0.236667
N2    N     N_3   0.178932 0.582015 0.050029 -0.703251
H29   H     H_    0.151118 0.700015 0.040398 0.239121
H30   H     H_    0.156593 0.452895 0.042533 0.236649
N3    N     N_3   0.816802 0.438680 0.225629 -0.684630
H31   H     H_    0.862724 0.410263 0.241138 0.238437
H32   H     H_    0.809711 0.467463 0.172251 0.228735
N4    N     N_3   0.183175 0.938666 0.774338 -0.684601
H33   H     H_    0.137256 0.910221 0.758830 0.238434
H34   H     H_    0.190263 0.967481 0.827713 0.228738
N5    N     N_3   0.525044 0.216511 0.735767 -0.675501
H35   H     H_    0.516951 0.351700 0.714871 0.225232
H36   H     H_    0.512918 0.219792 0.785439 0.222524
N6    N     N_3   0.474941 0.716739 0.264241 -0.675505
H37   H     H_    0.483010 0.851950 0.285124 0.225248
H38   H     H_    0.487069 0.720005 0.214570 0.222528
C63   C     C_3   0.697078 0.095908 0.942369 -0.313000
C64   C     C_3   0.694370 0.291194 0.975746 -0.298309
C65   C     C_3   0.668855 0.279209 0.043759 -0.767808
H39   H     H_    0.622078 0.222695 0.034012 0.226344
H40   H     H_    0.697511 0.186311 0.081417 0.240167
H41   H     H_    0.667995 0.422083 0.066972 0.218361
H42   H     H_    0.740482 0.352799 0.986844 0.213827
H43   H     H_    0.665579 0.387213 0.939411 0.186344
H44   H     H_    0.651838 0.028800 0.933106 0.148059
H45   H     H_    0.723614 0.998700 0.980371 0.203155
C66   C     C_3   0.302921 0.596096 0.057630 -0.313003
C67   C     C_3   0.305621 0.791409 0.024269 -0.298313
C68   C     C_3   0.331126 0.779483 0.956247 -0.767807
H46   H     H_    0.377901 0.722948 0.965978 0.226348
H47   H     H_    0.302461 0.686628 0.918582 0.240164
H48   H     H_    0.331987 0.922380 0.933051 0.218353
H49   H     H_    0.259509 0.853019 0.013186 0.213817
H50   H     H_    0.334417 0.887405 0.060607 0.186336
H51   H     H_    0.348163 0.529000 0.066891 0.148059
H52   H     H_    0.276389 0.498907 0.019617 0.203172
N7    N     N_3   0.971834 0.051979 0.765861 -0.709920
H53   H     H_    0.986456 0.927194 0.791867 0.227322
H54   H     H_    0.992666 0.167003 0.793549 0.228533
N8    N     N_3   0.028170 0.551874 0.234141 -0.709924
H55   H     H_    0.013553 0.427099 0.208127 0.227334
H56   H     H_    0.007332 0.666905 0.206462 0.228520

loop_
_geom_bond_atom_site_label_1
_geom_bond_atom_site_label_2
_ccdc_geom_bond_type
C68   H48   S    
O15   C55   A    
C43   C45   A    
O11   V4    S    
O4    V2    S    
C57   C58   S    
C35   C39   A    
C11   H5    S    
C33   C35   A    
C18   C24   T    
C59   H13   S    
O1    C3    A    
O2    C4    A    
N6    H37   S    
C2    O7    A    
O17   V3    S    
C59   H15   S    
C66   H51   S    
C32   C60   S    
O5    C3    A    
C62   H21   S    
C8    C18   S    
C46   N2    S    
C40   C42   A    
C5    H3    S    
C8    C10   A    
C61   H23   S    
C44   C66   S    
C48   H10   S    
C68   H46   S    
N2    H29   S    
C60   H25   S    
C41   C43   A    
C30   C52   A    
C27   C49   A    
C42   C44   A    
C63   H45   S    
C39   C47   A    
O12   C56   A    
C38   C46   A    
C6    C8    A    
C32   C34   A    
C64   C65   S    
C29   C31   A    
C65   H41   S    
C30   C32   A    
N7    H53   S    
C13   C15   A    
C28   C50   A    
C26   C50   A    
C47   H9    S    
C43   C63   S    
C36   C38   A    
O19   V3    S    
O13   V3    S    
C53   O18   A    
C6    C16   A    
O5    V1    S    
C49   N5    S    
O6    V2    S    
C20   C22   T    
C33   H11   S    
C24   C53   S    
H1    C15   S    
C9    N3    S    
C27   C47   A    
C61   C62   S    
C62   H22   S    
C26   H8    S    
C66   H52   S    
N3    H32   S    
C1    C28   S    
C34   C36   A    
C39   C41   A    
C2    C27   S    
C29   N7    S    
C11   C13   A    
C3    C22   S    
C67   H50   S    
C12   C14   A    
O4    C2    A    
C5    C15   A    
C57   H18   S    
O13   C53   A    
C26   C42   A    
C64   H42   S    
C37   C51   A    
C36   C40   A    
C60   H26   S    
C31   C33   A    
C44   C46   A    
O14   V4    S    
C5    C7    A    
H2    C16   S    
O20   V4    S    
C58   H17   S    
O6    C4    A    
O1    V2    S    
C28   C48   A    
O19   V4    S    
O2    V1    S    
C25   H7    S    
C40   C48   A    
N8    H55   S    
C31   C57   S    
C34   H12   S    
O14   C54   A    
C6    H4    S    
C14   C20   S    
C35   C37   A    
C65   H39   S    
C45   N1    S    
N4    H34   S    
C63   C64   S    
C52   C55   S    
O3    V1    S    
C25   C41   A    
N5    H36   S    
N1    H27   S    
C50   N6    S    
C68   H47   S    
O10   V1    S    
N8    H56   S    
C67   H49   S    
O16   C56   A    
C37   C45   A    
O3    C1    A    
N6    H38   S    
C57   H19   S    
N3    H31   S    
C59   H14   S    
O12   V3    S    
C9    C11   A    
C54   O17   A    
O15   V3    S    
C62   H20   S    
C10   C12   A    
C4    C21   S    
C12   H6    S    
O7    V1    S    
C1    O8    A    
C19   C21   T    
O8    V2    S    
C66   C67   S    
C61   H24   S    
C38   C52   A    
O20   V3    S    
N5    H35   S    
C58   H16   S    
C30   N8    S    
C23   C54   S    
C10   N4    S    
N2    H30   S    
N7    H54   S    
C58   C59   S    
C17   C23   T    
C7    C17   S    
C63   H44   S    
C51   C56   S    
C13   C19   S    
C7    C9    A    
O11   C55   A    
C25   C49   A    
C29   C51   A    
O9    V2    S    
C60   C61   S    
C65   H40   S    
C67   C68   S    
O18   V4    S    
O16   V4    S    
N4    H33   S    
C64   H43   S    
C14   C16   A    
N1    H28   S    
