data_mof_unit_58376.cif
_audit_creation_date              2012-12-10T16:57:17-0500
_audit_creation_method            fapswitch 2.2
_symmetry_space_group_name_H-M    P1
_symmetry_Int_Tables_number       1
_space_group_crystal_system       triclinic
_cell_length_a                    15.885372
_cell_length_b                    10.876737
_cell_length_c                    9.766162
_cell_angle_alpha                 88.360322
_cell_angle_beta                  90.511089
_cell_angle_gamma                 90.804561
_cell_volume                      1686.48889361

loop_
_atom_site_label
_atom_site_type_symbol
_atom_type_description
_atom_site_fract_x
_atom_site_fract_y
_atom_site_fract_z
_atom_type_partial_charge
C1    C     C_R   0.506062 0.264942 0.502365 0.765953
C2    C     C_3   0.948072 0.417103 0.630846 0.211206
C3    C     C_3   0.916612 0.496103 0.503826 -0.050375
C4    C     C_3   0.953929 0.630254 0.524028 0.243266
C5    C     C_3   0.052143 0.632254 0.518093 0.271475
C6    C     C_1   0.824425 0.497888 0.502553 0.096790
C7    C     C_1   0.175420 0.498076 0.501296 0.041874
C8    C     C_1   0.250892 0.498987 0.499271 -0.199359
C9    C     C_2   0.557282 0.934232 0.411872 0.179711
C10   C     C_2   0.502444 0.867337 0.489777 -0.291176
C11   C     C_2   0.546041 0.069016 0.398903 0.395179
C12   C     C_R   0.340455 0.499753 0.499621 0.813666
C13   C     C_2   0.527272 0.132879 0.511871 0.172499
C14   C     C_2   0.453852 0.427891 0.929332 0.317871
C15   C     C_2   0.473190 0.409515 0.079341 -0.090417
C16   C     C_R   0.501912 0.734529 0.497770 0.837988
C17   C     C_R   0.659518 0.500011 0.500454 0.796880
C18   C     C_3   0.048238 0.411468 0.629636 0.229474
C19   C     C_3   0.047850 0.448933 0.367434 -0.484686
C20   C     C_3   0.950883 0.431861 0.373667 0.333804
C21   C     C_1   0.748998 0.499046 0.501641 -0.175288
C22   C     C_3   0.082988 0.497005 0.505718 0.057179
Cu1   Cu    Cu3+1 0.500020 0.500020 0.638630 0.941352
Cu2   Cu    Cu3+1 0.499980 0.499980 0.361370 0.944751
H1    H     H_    0.927708 0.466645 0.723668 0.080114
H2    H     H_    0.451703 0.911093 0.542579 0.114595
H3    H     H_    0.460230 0.320531 0.127957 0.193600
H4    H     H_    0.487333 0.585257 0.114159 0.215656
H5    H     H_    0.064903 0.513626 0.281552 0.241734
H6    H     H_    0.077234 0.360421 0.341858 0.140019
H7    H     H_    0.937052 0.331329 0.387430 0.152500
H8    H     H_    0.077604 0.666904 0.616918 0.055481
H9    H     H_    0.940981 0.649735 0.633036 0.053772
N1    N     N_2   0.499090 0.498660 0.846910 -0.127771
N2    N     N_2   0.499070 0.498630 0.153040 -0.304077
O1    O     O_R   0.500010 0.321960 0.617040 -0.568736
O2    O     O_R   0.499990 0.321920 0.382900 -0.553280
O3    O     O_R   0.379450 0.500030 0.617120 -0.577077
O4    O     O_R   0.379420 0.499980 0.382980 -0.561322
O5    O     O_R   0.500010 0.678080 0.617100 -0.568438
O6    O     O_R   0.499990 0.678040 0.382960 -0.573665
O7    O     O_R   0.620580 0.500020 0.617020 -0.583873
O8    O     O_R   0.620550 0.499970 0.382880 -0.568769
O9    O     O_3   0.910297 0.297362 0.628367 -0.570034
C23   C     C_3   0.878108 0.261298 0.757872 -0.317634
H10   H     H_    0.824089 0.319650 0.784794 0.163536
H11   H     H_    0.927738 0.264911 0.838758 0.146982
H12   H     H_    0.854825 0.164885 0.753282 0.197565
C24   C     C_3   0.082854 0.454528 0.770142 -0.928135
H13   H     H_    0.058808 0.545885 0.796793 0.199167
H14   H     H_    0.062653 0.389595 0.853821 0.236423
H15   H     H_    0.152742 0.458663 0.771458 0.250249
O10   O     O_3   0.913551 0.732138 0.457236 -0.577374
C25   C     C_3   0.904915 0.724985 0.314196 -0.112466
H16   H     H_    0.960389 0.686372 0.263917 0.225689
H17   H     H_    0.897978 0.819806 0.271179 0.129951
H18   H     H_    0.845979 0.674648 0.288268 0.186893
C26   C     C_3   0.629582 0.877876 0.336985 -0.803039
H19   H     H_    0.688536 0.929598 0.359850 0.214158
H20   H     H_    0.641251 0.780930 0.368758 0.227532
H21   H     H_    0.617088 0.882580 0.224970 0.236380
O11   O     O_3   0.544040 0.122969 0.268466 -0.596656
C27   C     C_3   0.624346 0.173479 0.237550 -0.276205
H22   H     H_    0.617817 0.238750 0.148869 0.186854
H23   H     H_    0.667996 0.100828 0.206634 0.156020
H24   H     H_    0.652428 0.225929 0.323503 0.153650
O12   O     O_3   0.545899 0.078298 0.639547 -0.586879
C28   C     C_3   0.477630 0.083893 0.730866 -0.293376
H25   H     H_    0.415748 0.102283 0.679982 0.113557
H26   H     H_    0.491733 0.153726 0.808675 0.206571
H27   H     H_    0.471671 0.993865 0.786497 0.183804
C29   C     C_3   0.376811 0.361868 0.876680 -0.831076
H28   H     H_    0.390509 0.308254 0.785763 0.246401
H29   H     H_    0.327462 0.429987 0.850490 0.236938
H30   H     H_    0.350395 0.297248 0.955819 0.187584
C30   C     C_3   0.571155 0.568907 0.898264 -0.517824
H31   H     H_    0.610953 0.603723 0.813921 0.232642
H32   H     H_    0.550500 0.655288 0.944065 0.151902
H33   H     H_    0.612105 0.512202 0.967101 0.172423
C31   C     C_3   0.078599 0.276759 0.615350 -0.693858
H34   H     H_    0.148262 0.273092 0.608916 0.197506
H35   H     H_    0.059666 0.218597 0.705553 0.233092
H36   H     H_    0.051322 0.233011 0.523622 0.213686
O13   O     O_3   0.911515 0.476198 0.251419 -0.588574
C32   C     C_3   0.914468 0.388449 0.147764 -0.392146
H37   H     H_    0.889218 0.430651 0.051410 0.190954
H38   H     H_    0.874193 0.306961 0.174442 0.167798
H39   H     H_    0.980050 0.359826 0.127695 0.162471
O14   O     O_3   0.082269 0.706258 0.405993 -0.563297
C33   C     C_3   0.104641 0.825572 0.447910 -0.294451
H40   H     H_    0.161938 0.822712 0.514119 0.148666
H41   H     H_    0.052105 0.869515 0.502042 0.188240
H42   H     H_    0.119430 0.883457 0.355678 0.177660

loop_
_geom_bond_atom_site_label_1
_geom_bond_atom_site_label_2
_ccdc_geom_bond_type
C27   H23   S    
C4    O10   S    
C2    C18   S    
C19   C20   S    
C30   H33   S    
C11   O11   S    
C7    C8    T    
O10   C25   S    
Cu1   O7    S    
C30   H32   S    
C31   H36   S    
C32   H37   S    
C32   H39   S    
C26   H20   S    
Cu1   O5    S    
Cu2   O4    S    
C9    C26   S    
C17   O7    A    
C4    H9    S    
C15   H3    S    
C5    C22   S    
H4    N2    S    
C2    O9    S    
C28   H25   S    
C24   H14   S    
Cu1   Cu2   S    
C9    C10   D    
C1    O2    A    
C5    H8    S    
C10   H2    S    
C26   H21   S    
C23   H11   S    
C27   H24   S    
Cu2   O6    S    
C29   H30   S    
C15   N2    D    
C32   H38   S    
C25   H17   S    
Cu2   N2    S    
O12   C28   S    
C19   C22   S    
O13   C32   S    
C31   H35   S    
C29   H28   S    
C26   H19   S    
C23   H10   S    
C6    C21   T    
C17   C21   S    
C17   O8    A    
O11   C27   S    
C33   H41   S    
C8    C12   S    
C24   H15   S    
Cu2   O2    S    
C3    C20   S    
C30   H31   S    
C9    C11   S    
C16   O5    A    
C29   H29   S    
Cu1   O1    S    
C20   O13   S    
C1    C13   S    
C3    C4    S    
C7    C22   S    
O9    C23   S    
C33   H42   S    
C13   O12   S    
C23   H12   S    
Cu2   O8    S    
C25   H16   S    
Cu1   N1    S    
C18   C22   S    
C14   C29   S    
C31   H34   S    
C14   N1    D    
Cu1   O3    S    
C12   O4    A    
C2    C3    S    
C10   C16   S    
C11   C13   D    
C33   H40   S    
C28   H27   S    
C2    H1    S    
C12   O3    A    
C27   H22   S    
C4    C5    S    
C18   C24   S    
C18   C31   S    
C24   H13   S    
C3    C6    S    
C28   H26   S    
C14   C15   S    
O14   C33   S    
C19   H6    S    
C16   O6    A    
C20   H7    S    
C5    O14   S    
C1    O1    A    
N1    C30   S    
C25   H18   S    
C19   H5    S    
