data_mof_unit_49409.cif
_audit_creation_date              2012-12-10T19:08:36-0500
_audit_creation_method            fapswitch 2.2
_symmetry_space_group_name_H-M    P1
_symmetry_Int_Tables_number       1
_space_group_crystal_system       triclinic
_cell_length_a                    15.939907
_cell_length_b                    10.841378
_cell_length_c                    9.678557
_cell_angle_alpha                 91.237811
_cell_angle_beta                  87.764695
_cell_angle_gamma                 94.082602
_cell_volume                      1666.74578206

loop_
_atom_site_label
_atom_site_type_symbol
_atom_type_description
_atom_site_fract_x
_atom_site_fract_y
_atom_site_fract_z
_atom_type_partial_charge
C1    C     C_R   0.500234 0.262607 0.498942 0.850889
C2    C     C_R   0.039535 0.507901 0.626495 -0.175073
C3    C     C_1   0.823191 0.501179 0.493208 -0.069857
C4    C     C_1   0.177049 0.501340 0.505694 -0.035109
C5    C     C_1   0.252260 0.501266 0.505962 -0.099864
C6    C     C_1   0.747912 0.500958 0.493424 -0.174254
C7    C     C_R   0.505578 0.066861 0.619790 0.144391
C8    C     C_R   0.492644 0.128442 0.498935 -0.173916
C9    C     C_R   0.460759 0.059222 0.386056 -0.275791
C10   C     C_R   0.449532 0.929867 0.390966 0.340118
C11   C     C_R   0.481597 0.868624 0.504317 -0.217316
C12   C     C_R   0.341586 0.501034 0.502209 0.892528
C13   C     C_R   0.501091 0.939964 0.622373 0.115687
C14   C     C_3   0.571558 0.939938 0.719562 -0.464624
C15   C     C_3   0.577453 0.080129 0.714103 -0.451976
C16   C     C_R   0.570416 0.536727 0.068787 0.175990
C17   C     C_R   0.436715 0.433029 0.078418 0.466722
C18   C     C_R   0.434140 0.441906 0.929320 0.092631
C19   C     C_R   0.570899 0.534843 0.923699 0.221283
C20   C     C_3   0.624612 0.652849 0.917342 -0.470897
C21   C     C_3   0.624896 0.653599 0.075109 -0.452503
C22   C     C_R   0.494700 0.736646 0.501286 0.818254
C23   C     C_R   0.658500 0.500676 0.497802 0.794852
C24   C     C_R   0.952116 0.507931 0.623140 -0.164325
C25   C     C_R   0.912811 0.501391 0.496054 0.152128
C26   C     C_R   0.960802 0.494825 0.372278 -0.179854
C27   C     C_R   0.048227 0.494792 0.375631 -0.129901
C28   C     C_R   0.087499 0.501333 0.502725 0.145770
Cu1   Cu    Cu3+1 0.500000 0.499980 0.640670 0.944724
Cu2   Cu    Cu3+1 0.500000 0.500020 0.359330 1.059134
H1    H     H_    0.069650 0.512963 0.725122 0.141386
H2    H     H_    0.636486 0.119503 0.661998 0.191252
H3    H     H_    0.687502 0.640230 0.867480 0.193281
H4    H     H_    0.590641 0.727965 0.875546 0.211733
H5    H     H_    0.687701 0.638633 0.115217 0.187276
H6    H     H_    0.593419 0.731574 0.125294 0.238826
H7    H     H_    0.915229 0.512992 0.719281 0.137426
H8    H     H_    0.930706 0.489711 0.273648 0.140271
H9    H     H_    0.085140 0.489669 0.279509 0.167053
H10   H     H_    0.444130 0.104959 0.294256 0.253474
H11   H     H_    0.548805 0.907490 0.823158 0.204466
H12   H     H_    0.627882 0.897036 0.673984 0.191236
H13   H     H_    0.560103 0.125409 0.814341 0.213065
N1    N     N_R   0.500520 0.500930 0.147930 -0.233270
N2    N     N_R   0.500520 0.500890 0.852020 -0.213059
O1    O     O_R   0.500000 0.319640 0.618810 -0.602739
O2    O     O_R   0.500010 0.319680 0.381230 -0.529258
O3    O     O_R   0.380300 0.499950 0.618760 -0.618157
O4    O     O_R   0.380310 0.499990 0.381180 -0.461201
O5    O     O_R   0.499990 0.680320 0.618770 -0.579432
O6    O     O_R   0.500000 0.680360 0.381190 -0.526692
O7    O     O_R   0.619690 0.500010 0.618820 -0.577709
O8    O     O_R   0.619700 0.500050 0.381240 -0.588980
S1    S     S_3+6 0.360153 0.318057 0.158451 0.004782
O9    O     O_2   0.273151 0.354833 0.132512 -0.326085
O10   O     O_2   0.372867 0.197790 0.082659 -0.331761
O11   O     O_3   0.355174 0.281754 0.325859 -0.533103
H14   H     H_    0.306573 0.220006 0.336720 0.373373
C29   C     C_3   0.354783 0.391185 0.859335 -0.245546
C30   C     C_3   0.289171 0.489118 0.859985 -0.696730
H15   H     H_    0.316841 0.579603 0.822296 0.263614
H16   H     H_    0.235870 0.455864 0.795398 0.211401
H17   H     H_    0.263683 0.508225 0.965504 0.274861
H18   H     H_    0.370165 0.346954 0.759427 0.211154
H19   H     H_    0.323109 0.307497 0.903681 0.240766
S2    S     S_3+6 0.387791 0.853493 0.261883 0.034375
O12   O     O_2   0.336647 0.744586 0.322091 -0.265038
O13   O     O_2   0.328519 0.940695 0.206655 -0.241220
O14   O     O_3   0.449509 0.804661 0.130322 -0.526400
H20   H     H_    0.476500 0.881230 0.089358 0.331469

loop_
_geom_bond_atom_site_label_1
_geom_bond_atom_site_label_2
_ccdc_geom_bond_type
C8    C9    A    
C7    C13   A    
S2    O13   D    
Cu2   O6    S    
C19   N2    A    
C15   H2    S    
Cu1   Cu2   S    
C21   H5    S    
C26   H8    S    
C1    C8    S    
C9    C10   A    
C16   N1    A    
C11   C22   S    
C19   C20   S    
C12   O3    A    
Cu1   O1    S    
C22   O5    A    
C3    C6    T    
C20   H4    S    
C20   C21   S    
C7    C15   S    
C12   O4    A    
C23   O7    A    
C17   N1    A    
C15   H13   S    
C29   C30   S    
C21   H6    S    
C13   C14   S    
C29   H19   S    
C11   C13   A    
Cu2   N1    S    
C26   C27   A    
C16   C21   S    
C10   S2    S    
C18   C29   S    
C14   H11   S    
C20   H3    S    
C2    H1    S    
C30   H16   S    
C4    C28   S    
Cu2   O4    S    
C23   O8    A    
O11   H14   S    
Cu1   O5    S    
C30   H17   S    
C2    C24   A    
O14   H20   S    
Cu2   O8    S    
S1    O10   D    
C1    O1    A    
C22   O6    A    
S2    O14   S    
C10   C11   A    
C6    C23   S    
Cu1   O3    S    
C18   N2    A    
C29   H18   S    
Cu2   O2    S    
C7    C8    A    
C3    C25   S    
S2    O12   D    
C24   C25   A    
C5    C12   S    
C17   C18   A    
C27   H9    S    
C24   H7    S    
C14   C15   S    
C30   H15   S    
C2    C28   A    
C25   C26   A    
S1    O9    D    
C14   H12   S    
C17   S1    S    
S1    O11   S    
C9    H10   S    
C1    O2    A    
Cu1   N2    S    
C4    C5    T    
C27   C28   A    
Cu1   O7    S    
C16   C19   A    
