data_mof_unit_41590.cif
_audit_creation_date              2012-12-11T19:20:14-0500
_audit_creation_method            fapswitch 2.2
_symmetry_space_group_name_H-M    P1
_symmetry_Int_Tables_number       1
_space_group_crystal_system       triclinic
_cell_length_a                    8.327062
_cell_length_b                    15.081106
_cell_length_c                    18.776718
_cell_angle_alpha                 101.880363
_cell_angle_beta                  91.713933
_cell_angle_gamma                 98.91076
_cell_volume                      2274.98363268

loop_
_atom_site_label
_atom_site_type_symbol
_atom_type_description
_atom_site_fract_x
_atom_site_fract_y
_atom_site_fract_z
_atom_type_partial_charge
Ba1   Ba    Ba6+2 0.853510 0.540900 0.466480 1.668756
Ba2   Ba    Ba6+2 0.336320 0.459170 0.533530 1.673495
C1    C     C_3   0.697761 0.894706 0.329536 -0.296440
C2    C     C_3   0.641762 0.796150 0.336731 0.324172
C3    C     C_3   0.438876 0.276335 0.299459 0.465864
C4    C     C_3   0.307987 0.208749 0.250116 -0.287617
C5    C     C_3   0.084540 0.297942 0.733914 0.324876
C6    C     C_3   0.128073 0.288528 0.811613 -0.201405
C7    C     C_3   0.561651 0.233865 0.723960 0.349380
C8    C     C_3   0.462934 0.161241 0.663820 -0.277931
C9    C     C_R   0.993352 0.464891 0.048692 0.018427
C10   C     C_R   0.896937 0.415797 0.092595 0.036785
C11   C     C_R   0.742988 0.366892 0.064242 -0.087768
C12   C     C_3   0.129961 0.734415 0.283347 0.349112
C13   C     C_R   0.680402 0.372632 0.995737 -0.050546
C14   C     C_R   0.775346 0.421565 0.951607 0.025843
C15   C     C_R   0.934348 0.465297 0.977007 0.006514
C16   C     C_R   0.715209 0.424623 0.881730 -0.112961
C17   C     C_R   0.816156 0.463396 0.833150 -0.063076
C18   C     C_R   0.977543 0.506215 0.857877 0.005979
C19   C     C_R   0.034369 0.508745 0.930725 -0.008764
C20   C     C_R   0.762144 0.458601 0.760049 0.004871
C21   C     C_R   0.867381 0.495547 0.712939 -0.245256
C22   C     C_R   0.025904 0.539887 0.736062 -0.022045
C23   C     C_3   0.126606 0.763944 0.210701 -0.305377
C24   C     C_R   0.082687 0.545774 0.810061 -0.057314
C25   C     C_R   0.148980 0.512545 0.075973 -0.003230
C26   C     C_R   0.204601 0.516683 0.149244 0.001580
C27   C     C_R   0.105392 0.469031 0.194775 -0.048822
C28   C     C_R   0.954688 0.416608 0.163997 -0.065696
C29   C     C_R   0.240967 0.589033 0.838162 -0.057858
C30   C     C_R   0.295472 0.593529 0.910451 0.039565
C31   C     C_R   0.192807 0.552614 0.956883 0.009720
C32   C     C_R   0.248997 0.556092 0.029678 0.015078
C33   C     C_R   0.452417 0.638615 0.937061 -0.076782
C34   C     C_3   0.304922 0.761678 0.723658 0.453184
C35   C     C_R   0.507224 0.643438 0.008970 -0.081813
C36   C     C_R   0.406136 0.602645 0.055771 0.029208
C37   C     C_R   0.360388 0.567407 0.175948 -0.037111
C38   C     C_R   0.459960 0.608635 0.128216 -0.105931
C39   C     C_R   0.413275 0.575029 0.249406 -0.030084
C40   C     C_R   0.307511 0.534242 0.295960 -0.269738
C41   C     C_R   0.159006 0.476234 0.269395 0.046033
C42   C     C_R   0.319263 0.826894 0.477191 -0.001577
C43   C     C_R   0.567581 0.793727 0.527134 -0.004406
C44   C     C_R   0.757898 0.231500 0.525570 -0.258997
C45   C     C_3   0.241721 0.797081 0.798503 -0.363311
C46   C     C_R   0.846074 0.178632 0.559263 -0.018301
C47   C     C_R   0.778183 0.088185 0.561557 -0.089249
C48   C     C_R   0.628045 0.045343 0.520405 -0.015524
C49   C     C_R   0.546915 0.098734 0.480301 -0.088870
C50   C     C_R   0.554994 0.951037 0.515578 0.005449
C51   C     C_R   0.390667 0.920486 0.486779 -0.052927
C52   C     C_R   0.308306 0.981121 0.459620 -0.017746
C53   C     C_R   0.398051 0.056739 0.440313 -0.034800
C54   C     C_R   0.642378 0.884209 0.532245 -0.202235
C55   C     C_R   0.407011 0.765295 0.499957 -0.247863
C56   C     C_3   0.879873 0.232330 0.296386 0.369300
C57   C     C_R   0.611784 0.193263 0.485126 0.011952
C58   C     C_3   0.849307 0.178260 0.214819 -0.168403
C59   C     C_3   0.816106 0.786136 0.697686 0.456995
C60   C     C_3   0.772880 0.881797 0.723322 -0.326896
H1    H     H_    0.690684 0.787987 0.390140 0.069888
H2    H     H_    0.171170 0.741093 0.819535 0.070994
H3    H     H_    0.346204 0.830093 0.838159 0.097830
H4    H     H_    0.160065 0.847894 0.796433 0.141843
H5    H     H_    0.785413 0.274189 0.311181 0.093196
H6    H     H_    0.857739 0.228563 0.179175 0.007909
H7    H     H_    0.923162 0.793931 0.664529 0.065299
H8    H     H_    0.832922 0.910923 0.334417 0.180905
H9    H     H_    0.726163 0.904430 0.675843 0.052700
H10   H     H_    0.882731 0.930959 0.748883 0.126762
H11   H     H_    0.676712 0.882741 0.762760 0.125952
H12   H     H_    0.506579 0.782829 0.334024 -0.059284
H13   H     H_    0.649170 0.942919 0.372964 0.039606
H14   H     H_    0.382043 0.331854 0.333091 0.036945
H15   H     H_    0.221930 0.176225 0.283342 0.165744
H16   H     H_    0.244407 0.245014 0.215025 0.052066
H17   H     H_    0.359681 0.153064 0.214869 0.151832
H18   H     H_    0.652903 0.904380 0.275805 0.123020
H19   H     H_    0.133920 0.704611 0.165553 0.057982
H20   H     H_    0.169447 0.357153 0.722838 0.103502
H21   H     H_    0.958177 0.312218 0.729509 -0.119165
H22   H     H_    0.161077 0.357614 0.847718 0.009902
H23   H     H_    0.235350 0.253354 0.812210 0.197086
H24   H     H_    0.681137 0.257954 0.703569 -0.161113
H25   H     H_    0.341339 0.137164 0.681821 0.175939
H26   H     H_    0.524392 0.100656 0.650047 -0.007992
H27   H     H_    0.026645 0.677696 0.281633 0.103521
H28   H     H_    0.449086 0.190442 0.615016 0.146727
H29   H     H_    0.669903 0.324203 0.094897 0.085152
H30   H     H_    0.559066 0.336619 0.976500 0.126541
H31   H     H_    0.823560 0.491382 0.657305 0.076506
H32   H     H_    0.590167 0.394326 0.865503 0.136403
H33   H     H_    0.877942 0.378137 0.195698 0.079219
H34   H     H_    0.324305 0.621055 0.804879 0.076631
H35   H     H_    0.532375 0.671030 0.902434 0.053233
H36   H     H_    0.628861 0.679243 0.027981 0.079282
H37   H     H_    0.579828 0.646802 0.146805 0.110813
H38   H     H_    0.246680 0.710338 0.291144 -0.056325
H39   H     H_    0.348958 0.540716 0.352227 0.073447
H40   H     H_    0.351651 0.694228 0.494660 0.082508
H41   H     H_    0.184323 0.959654 0.436928 0.146418
H42   H     H_    0.771060 0.898457 0.545482 0.132528
H43   H     H_    0.809021 0.302436 0.527133 0.063950
H44   H     H_    0.011540 0.790121 0.202122 0.160794
H45   H     H_    0.231652 0.818954 0.209993 0.137318
H46   H     H_    0.402175 0.721620 0.731938 0.048245
O1    O     O_2   0.871970 0.437290 0.322980 -0.484478
O2    O     O_3   0.682225 0.724706 0.658791 -0.630713
O3    O     O_3   0.116437 0.809691 0.339304 -0.587511
O4    O     O_2   0.317740 0.562750 0.677070 -0.466448
O5    O     O_3   0.068290 0.555610 0.587550 -0.448821
O6    O     O_3   0.528280 0.392520 0.627490 -0.458182
O7    O     O_3   0.178739 0.709382 0.673350 -0.635229
O8    O     O_3   0.609300 0.386850 0.459730 -0.459165
O9    O     O_3   0.105720 0.342720 0.589770 -0.494078
O10   O     O_2   0.179327 0.177978 0.548372 -0.470122
O11   O     O_3   0.103011 0.217077 0.684404 -0.578804
O12   O     O_3   0.121420 0.444460 0.412460 -0.465880
O13   O     O_3   0.580410 0.613230 0.540280 -0.442832
O14   O     O_2   0.337420 0.273080 0.457680 -0.478523
O15   O     O_3   0.517268 0.227947 0.341945 -0.696079
O16   O     O_2   0.438368 0.472786 0.754695 -0.496534
O17   O     O_3   0.469236 0.304287 0.746626 -0.596230
O18   O     O_3   0.661430 0.607560 0.372520 -0.476605
O19   O     O_2   0.750734 0.569392 0.240163 -0.505812
O20   O     O_3   0.034263 0.289712 0.307751 -0.674708
O21   O     O_3   0.702107 0.737081 0.279967 -0.592170
O22   O     O_2   0.852280 0.726960 0.542370 -0.467252
O23   O     O_3   0.083990 0.657360 0.410240 -0.490383
O24   O     O_2   0.981722 0.817394 0.461157 -0.478196
P1    P     P_3+3 0.039440 0.410950 0.333260 0.964149
P2    P     P_3+3 0.676740 0.714970 0.563520 0.996161
P3    P     P_3+3 0.124735 0.777218 0.423629 0.968381
P4    P     P_3+3 0.150270 0.589130 0.666750 0.984986
P5    P     P_3+3 0.057781 0.228518 0.595263 0.991541
P6    P     P_3+3 0.629461 0.623297 0.284516 0.916823
P7    P     P_3+3 0.518773 0.270029 0.436374 0.932180
P8    P     P_3+3 0.553474 0.406733 0.722064 0.960470
N1    N     N_2   0.870103 0.165128 0.342482 -0.437778
H47   H     H_    0.754329 0.139396 0.353936 0.142710
C61   C     C_3   0.990554 0.177202 0.401781 -0.017868
H48   H     H_    0.960737 0.121243 0.431672 0.073587
H49   H     H_    0.997570 0.245924 0.437901 0.077714
H50   H     H_    0.110499 0.170891 0.381177 0.162244
C62   C     C_2   0.685014 0.117712 0.198641 0.459191
H51   H     H_    0.637499 0.075899 0.236042 0.028785
O25   O     O_2   0.608813 0.110177 0.140507 -0.579216
C63   C     C_2   0.970755 0.115998 0.190485 0.531236
H52   H     H_    0.043639 0.126352 0.145025 0.005892
O26   O     O_2   0.983641 0.051122 0.218769 -0.540276
N2    N     N_2   0.865310 0.750744 0.759799 -0.430332
H53   H     H_    0.931428 0.698972 0.744234 0.173982
C64   C     C_3   0.741892 0.724068 0.807522 -0.215990
H54   H     H_    0.800069 0.699160 0.851995 0.096169
H55   H     H_    0.648191 0.667187 0.777157 0.125623
H56   H     H_    0.683959 0.783046 0.833184 0.106200
N3    N     N_2   0.555904 0.312416 0.252992 -0.452234
H57   H     H_    0.582076 0.266636 0.208238 0.200806
C65   C     C_3   0.527423 0.395025 0.234255 -0.254673
H58   H     H_    0.404780 0.385452 0.206378 0.063246
H59   H     H_    0.617616 0.416129 0.196961 0.143635
H60   H     H_    0.543217 0.446057 0.285879 0.145900
C66   C     C_2   0.989539 0.235825 0.842135 0.499401
H61   H     H_    0.884079 0.267284 0.857758 -0.003972
O27   O     O_2   0.995808 0.158434 0.850933 -0.544362
C67   C     C_2   0.593291 0.189099 0.786396 0.477744
H62   H     H_    0.668848 0.135811 0.779176 -0.010941
O28   O     O_2   0.533622 0.210425 0.844805 -0.573245
C68   C     C_2   0.848764 0.050520 0.619492 0.491946
H63   H     H_    0.785069 0.049282 0.668707 -0.031363
O29   O     O_2   0.980393 0.024328 0.613724 -0.578493
C69   C     C_2   0.372532 0.057680 0.362470 0.471519
H64   H     H_    0.476629 0.070804 0.331299 0.006212
O30   O     O_2   0.238112 0.032925 0.330459 -0.558589
N4    N     N_2   0.379242 0.839617 0.694781 -0.441359
H65   H     H_    0.460721 0.821335 0.656970 0.176745
C70   C     C_3   0.273890 0.896346 0.669211 -0.156315
H66   H     H_    0.349388 0.951527 0.648263 0.101253
H67   H     H_    0.206043 0.930242 0.713882 0.124887
H68   H     H_    0.187618 0.855054 0.623971 0.130722

loop_
_geom_bond_atom_site_label_1
_geom_bond_atom_site_label_2
_ccdc_geom_bond_type
C61   H50   S    
C5    H21   S    
C68   H63   S    
C56   O20   S    
C66   H61   S    
O12   P1    S    
C20   P8    S    
C44   C57   A    
C34   H46   S    
C39   C40   A    
C17   C18   A    
C38   H37   S    
C65   H58   S    
C5    C6    S    
C37   C39   A    
C29   C30   A    
C51   C52   A    
C55   H40   S    
C68   O29   D    
C2    H1    S    
C8    H26   S    
C43   P2    S    
C35   C36   A    
C46   P5    S    
C26   C27   A    
C62   O25   D    
C22   C24   A    
O14   P7    D    
C6    H23   S    
O23   P3    S    
N1    C61   S    
C3    C4    S    
Ba2   O5    S    
C4    H16   S    
C64   H55   S    
O7    P4    S    
C59   O2    S    
C56   C58   S    
C29   H34   S    
C44   H43   S    
O15   P7    S    
C34   C45   S    
Ba1   Ba2   S    
C41   P1    S    
C69   H64   S    
Ba1   O1    S    
C13   H30   S    
Ba2   O8    S    
C42   C51   A    
O18   P6    S    
O21   P6    S    
C62   H51   S    
C43   C54   A    
C14   C15   A    
C3    N3    S    
O5    P4    S    
C48   C50   A    
C21   C22   A    
N3    C65   S    
C60   H11   S    
O19   P6    D    
C57   P7    S    
O13   P2    S    
N2    C64   S    
O10   P5    D    
C1    H13   S    
C7    C8    S    
C45   H4    S    
C2    H12   S    
O8    P7    S    
C10   C28   A    
C22   P4    S    
C42   P3    S    
C67   O28   D    
C53   C69   S    
C24   C29   A    
C66   O27   D    
C6    H22   S    
C27   C41   A    
C64   H56   S    
C23   H19   S    
C25   C32   A    
O22   P2    D    
Ba1   O5    S    
O4    P4    D    
Ba1   P1    S    
C1    H18   S    
C35   H36   S    
C65   H59   S    
Ba2   O9    S    
C23   H44   S    
C48   C49   A    
C69   O30   D    
Ba2   O14   S    
O17   P8    S    
C12   O3    S    
C44   C46   A    
C8    H25   S    
C64   H54   S    
C13   C14   A    
O1    P1    D    
O11   P5    S    
C30   C33   A    
C5    O11   S    
C52   H41   S    
C17   C20   A    
Ba1   O18   S    
C54   H42   S    
Ba1   O22   S    
C45   H2    S    
C47   C68   S    
Ba2   O12   S    
C16   C17   A    
C4    H15   S    
C26   C37   A    
N4    C70   S    
Ba2   P4    S    
C21   H31   S    
Ba1   O12   S    
C12   H27   S    
O20   P1    S    
C28   H33   S    
C7    H24   S    
N3    H57   S    
C9    C25   A    
C42   C55   A    
C43   C55   A    
C1    H8    S    
C31   C32   A    
C60   H10   S    
C58   C63   S    
C10   C11   A    
C8    H28   S    
C39   P6    S    
C67   H62   S    
C58   C62   S    
C47   C48   A    
O6    P8    S    
C11   C13   A    
C16   H32   S    
C63   O26   D    
O2    P2    S    
C49   C57   A    
C40   C41   A    
C1    C2    S    
C40   H39   S    
Ba1   P2    S    
C37   C38   A    
C65   H60   S    
C50   C51   A    
C23   H45   S    
Ba2   O13   S    
C59   H7    S    
C61   H49   S    
Ba1   O8    S    
C52   C53   A    
C9    C15   A    
C33   C35   A    
C32   C36   A    
O16   P8    D    
C7    C67   S    
O9    P5    S    
C34   N4    S    
Ba1   O23   S    
C59   N2    S    
C9    C10   A    
C12   H38   S    
C2    O21   S    
C3    O15   S    
C63   H52   S    
C30   C31   A    
C70   H68   S    
C3    H14   S    
N1    H47   S    
C36   C38   A    
Ba2   O6    S    
C56   N1    S    
O3    P3    S    
C4    H17   S    
C18   C24   A    
O24   P3    D    
C46   C47   A    
Ba2   O4    S    
C60   H9    S    
C49   C53   A    
C12   C23   S    
C59   C60   S    
Ba1   O13   S    
C6    C66   S    
C27   C28   A    
C70   H66   S    
C7    O17   S    
C50   C54   A    
C56   H5    S    
C5    H20   S    
C19   C31   A    
C18   C19   A    
C58   H6    S    
C14   C16   A    
N4    H65   S    
C25   C26   A    
C20   C21   A    
N2    H53   S    
C33   H35   S    
C34   O7    S    
C45   H3    S    
C11   H29   S    
C61   H48   S    
C70   H67   S    
C15   C19   A    
