data_mof_unit_59588.cif
_audit_creation_date              2012-12-11T15:15:46-0500
_audit_creation_method            fapswitch 2.2
_symmetry_space_group_name_H-M    P1
_symmetry_Int_Tables_number       1
_space_group_crystal_system       triclinic
_cell_length_a                    18.86381
_cell_length_b                    18.869817
_cell_length_c                    20.372117
_cell_angle_alpha                 106.95432
_cell_angle_beta                  106.545227
_cell_angle_gamma                 111.176454
_cell_volume                      5816.55777601

loop_
_atom_site_label
_atom_site_type_symbol
_atom_type_description
_atom_site_fract_x
_atom_site_fract_y
_atom_site_fract_z
_atom_type_partial_charge
C1    C     C_R   0.042484 0.090206 0.346716 -0.124923
C2    C     C_R   0.246980 0.071734 0.540115 -0.129872
C3    C     C_R   0.152157 0.222115 0.709424 -0.116253
C4    C     C_R   0.762666 0.925959 0.507011 -0.124915
C5    C     C_R   0.038538 0.790556 0.469622 -0.130877
C6    C     C_R   0.227387 0.273862 0.710928 0.043832
C7    C     C_R   0.022825 0.765845 0.524123 0.076060
C8    C     C_R   0.257547 0.000604 0.524580 0.076960
C9    C     C_R   0.933408 0.978553 0.711665 0.043686
C10   C     C_R   0.033911 0.695407 0.609686 -0.254371
C11   C     C_R   0.061107 0.723669 0.560282 0.116546
C12   C     C_R   0.759876 0.994697 0.552622 0.082842
C13   C     C_R   0.122363 0.707887 0.542700 -0.251737
C14   C     C_R   0.144664 0.651794 0.562520 0.140668
C15   C     C_R   0.108164 0.614532 0.603518 0.027307
C16   C     C_R   0.836509 0.802462 0.281238 -0.136370
C17   C     C_R   0.056570 0.640217 0.631007 0.141111
C18   C     C_R   0.195644 0.625706 0.535167 -0.197884
C19   C     C_R   0.201816 0.555887 0.540206 -0.201447
C20   C     C_R   0.157532 0.512415 0.573119 0.140298
C21   C     C_R   0.115186 0.545061 0.609344 0.028895
C22   C     C_R   0.071170 0.502223 0.643213 0.143418
C23   C     C_R   0.754256 0.777161 0.273602 0.084293
C24   C     C_R   0.028860 0.534792 0.678804 -0.201436
C25   C     C_R   0.021309 0.603533 0.672469 -0.198989
C26   C     C_R   0.146246 0.432060 0.562345 -0.250195
C27   C     C_R   0.091429 0.383837 0.585602 0.113633
C28   C     C_R   0.002142 0.236546 0.570225 -0.121544
C29   C     C_R   0.061408 0.422505 0.632702 -0.257239
C30   C     C_R   0.333542 0.919148 0.543242 -0.245091
C31   C     C_R   0.334905 0.997523 0.560891 0.116681
C32   C     C_R   0.411327 0.072820 0.610325 -0.254040
C33   C     C_R   0.487310 0.070926 0.631472 0.142659
C34   C     C_R   0.056946 0.291538 0.553008 0.078977
C35   C     C_R   0.486187 0.992572 0.603792 0.027582
C36   C     C_R   0.408958 0.916149 0.562858 0.138626
C37   C     C_R   0.564416 0.146561 0.672876 -0.200404
C38   C     C_R   0.639301 0.145194 0.678943 -0.205686
C39   C     C_R   0.637133 0.068244 0.643136 0.145792
C40   C     C_R   0.759949 0.802937 0.346834 -0.126392
C41   C     C_R   0.561297 0.991241 0.609328 0.028716
C42   C     C_R   0.558581 0.913640 0.572874 0.135849
C43   C     C_R   0.483047 0.837297 0.540024 -0.187415
C44   C     C_R   0.408361 0.838542 0.535285 -0.190425
C45   C     C_R   0.229484 0.229100 0.644940 -0.145195
C46   C     C_R   0.706535 0.067801 0.632392 -0.259974
C47   C     C_R   0.699251 0.991937 0.585147 0.111925
C48   C     C_R   0.628352 0.914463 0.561857 -0.236890
C49   C     C_R   0.281668 0.365561 0.759559 0.139680
C50   C     C_R   0.251780 0.413638 0.798526 -0.178085
C51   C     C_R   0.305618 0.499194 0.848373 -0.144396
C52   C     C_R   0.081190 0.244293 0.507355 -0.138157
C53   C     C_R   0.390069 0.537581 0.860000 0.203518
C54   C     C_R   0.417620 0.491647 0.816081 -0.172397
C55   C     C_R   0.364006 0.406061 0.766549 -0.175480
C56   C     C_R   0.967031 0.791788 0.539839 -0.129542
C57   C     C_R   0.605859 0.672842 0.064592 -0.223557
C58   C     C_R   0.676800 0.703949 0.131707 -0.174950
C59   C     C_R   0.606919 0.748808 0.204715 -0.317141
C60   C     C_R   0.535168 0.718064 0.137411 0.560576
C61   C     C_R   0.534165 0.678936 0.066372 -0.002156
C62   C     C_2   0.454673 0.618272 0.926744 -0.258228
C63   C     C_2   0.454917 0.631667 0.995246 -0.028970
C64   C     C_R   0.831797 0.066294 0.570058 -0.121994
C65   C     C_R   0.677779 0.741329 0.202428 0.078512
C66   C     C_R   0.951086 0.030478 0.204757 0.139102
C67   C     C_R   0.179773 0.931805 0.469952 -0.126381
C68   C     C_R   0.870094 0.965236 0.149453 -0.179874
C69   C     C_R   0.830441 0.970110 0.083160 -0.150809
C70   C     C_R   0.872218 0.039566 0.070388 0.220674
C71   C     C_R   0.950660 0.107256 0.128082 -0.175398
C72   C     C_R   0.989818 0.102858 0.194892 -0.170195
C73   C     C_R   0.836559 0.031998 0.844541 -0.153820
C74   C     C_R   0.872936 0.036479 0.794145 -0.180392
C75   C     C_R   0.863971 0.899811 0.773859 -0.176528
C76   C     C_R   0.977379 0.949693 0.281116 -0.122371
C77   C     C_R   0.827871 0.895452 0.824375 -0.178346
C78   C     C_R   0.982865 0.052247 0.709736 -0.117877
C79   C     C_R   0.817731 0.963258 0.862882 0.222558
C80   C     C_2   0.843151 0.038653 0.994565 -0.211679
C81   C     C_2   0.801586 0.965937 0.930007 -0.217568
C82   C     C_R   0.889963 0.971898 0.760840 0.139158
C83   C     C_R   0.992734 0.024170 0.273973 0.036416
C84   C     C_R   0.913187 0.912028 0.645487 -0.147319
H1    H     H_    0.064587 0.156866 0.362747 0.099999
H2    H     H_    0.148128 0.733693 0.508714 0.112974
H3    H     H_    0.225311 0.655018 0.504819 0.124990
H4    H     H_    0.723755 0.860162 0.491980 0.087514
H5    H     H_    0.235988 0.532334 0.513516 0.130913
H6    H     H_    0.173359 0.404714 0.529161 0.116359
H7    H     H_    0.022809 0.388023 0.654691 0.114339
H8    H     H_    0.996079 0.503178 0.706214 0.129514
H9    H     H_    0.982995 0.623990 0.695231 0.129837
H10   H     H_    0.274605 0.860288 0.509270 0.112474
H11   H     H_    0.413088 0.133564 0.627604 0.117528
H12   H     H_    0.939886 0.782643 0.578605 0.095114
H13   H     H_    0.566161 0.207032 0.695782 0.129340
H14   H     H_    0.697626 0.204669 0.706312 0.128731
H15   H     H_    0.762444 0.127819 0.654388 0.114095
H16   H     H_    0.854181 0.785881 0.235653 0.084881
H17   H     H_    0.623298 0.855048 0.528532 0.119261
H18   H     H_    0.480551 0.777149 0.513159 0.133908
H19   H     H_    0.349464 0.779323 0.504974 0.125066
H20   H     H_    0.187521 0.385206 0.791869 0.112143
H21   H     H_    0.729959 0.696638 0.127813 0.120415
H22   H     H_    0.607463 0.779315 0.258899 0.175291
H23   H     H_    0.167730 0.868921 0.438300 0.089270
H24   H     H_    0.398035 0.594551 0.998802 0.164527
H25   H     H_    0.482656 0.520250 0.824445 0.110505
H26   H     H_    0.606043 0.640197 0.011307 0.139902
H27   H     H_    0.388390 0.370824 0.736513 0.111555
H28   H     H_    0.979780 0.252742 0.612656 0.081613
H29   H     H_    0.512199 0.654726 0.923588 0.139128
H30   H     H_    0.282490 0.534231 0.880429 0.133258
H31   H     H_    0.837299 0.910332 0.157374 0.124681
H32   H     H_    0.888652 0.090966 0.782193 0.111466
H33   H     H_    0.875108 0.848561 0.747719 0.114401
H34   H     H_    0.999436 0.115912 0.746232 0.085961
H35   H     H_    0.774698 0.905804 0.932331 0.128373
H36   H     H_    0.983905 0.161678 0.119739 0.117244
H37   H     H_    0.826360 0.083732 0.871242 0.116562
H38   H     H_    0.051628 0.154590 0.237472 0.116112
H39   H     H_    0.708893 0.792798 0.363340 0.104459
H40   H     H_    0.874815 0.098252 0.992551 0.131096
H41   H     H_    0.768328 0.918447 0.041443 0.118618
H42   H     H_    0.813331 0.841600 0.837345 0.112960
H43   H     H_    0.132486 0.268568 0.492464 0.086596
H44   H     H_    0.856887 0.129965 0.612494 0.081259
H45   H     H_    0.863702 0.847479 0.622354 0.092007
H46   H     H_    0.945760 0.887663 0.234487 0.090907
H47   H     H_    0.270929 0.255669 0.621206 0.090324
H48   H     H_    0.354746 0.754051 0.079458 0.375547
H49   H     H_    0.293876 0.136623 0.578982 0.095380
H50   H     H_    0.123840 0.240803 0.745808 0.085212
H51   H     H_    0.070408 0.771626 0.437803 0.088109
H52   H     H_    0.989905 0.710402 0.626879 0.117573
N1    N     N_R   0.052580 0.056040 0.395500 -0.040818
N2    N     N_R   0.890210 0.849400 0.355780 -0.039579
N3    N     N_R   0.997110 0.161140 0.539580 -0.039082
N4    N     N_R   0.841950 0.845400 0.395490 -0.042705
N5    N     N_R   0.045360 0.165140 0.499870 -0.039160
N6    N     N_R   0.877490 0.041510 0.539580 -0.039915
N7    N     N_R   0.009820 0.969030 0.355780 -0.038932
N8    N     N_R   0.158050 0.154600 0.604510 -0.037201
N9    N     N_R   0.954640 0.834860 0.500130 -0.041833
N10   N     N_R   0.122510 0.958490 0.460420 -0.040765
N11   N     N_R   0.990180 0.030970 0.644220 -0.038956
N12   N     N_R   0.947420 0.943960 0.604500 -0.037299
N13   N     N_R   0.165270 0.045500 0.500140 -0.042210
N14   N     N_R   0.109790 0.150600 0.644220 -0.038889
N15   N     N_R   0.002890 0.838860 0.460420 -0.040263
N16   N     N_R   0.834730 0.954500 0.499860 -0.040733
Ni1   Ni    Ni4+2 0.104370 0.104380 0.500010 0.212595
Ni2   Ni    Ni4+2 0.895630 0.895620 0.499990 0.213318
Ni3   Ni    Ni4+2 0.006300 0.904810 0.408930 0.221581
Ni4   Ni    Ni4+2 0.993700 0.095190 0.591070 0.205864
O1    O     O_2   0.381773 0.645881 0.131761 -0.314233
O2    O     O_2   0.474491 0.796192 0.221127 -0.281631
O3    O     O_3   0.406681 0.755669 0.076243 -0.538604
S1    S     S_3+6 0.447733 0.729010 0.143873 -0.053224

loop_
_geom_bond_atom_site_label_1
_geom_bond_atom_site_label_2
_ccdc_geom_bond_type
N2    Ni3   S    
C66   C68   A    
C46   H15   S    
C25   H9    S    
C6    C45   A    
C27   C29   A    
C11   C13   A    
C41   C42   A    
C14   C18   A    
N11   N12   A    
C75   H33   S    
C38   H14   S    
C3    C6    A    
N5    Ni1   S    
C37   H13   S    
C39   C41   A    
C53   C54   A    
C28   H28   S    
C50   H20   S    
C26   C27   A    
C37   C38   A    
C64   N6    A    
C71   H36   S    
C1    C83   A    
C22   C29   A    
C10   H52   S    
C30   C31   A    
C12   C64   A    
C10   C17   A    
C23   C40   A    
C84   H45   S    
C56   N9    A    
C18   H3    S    
C15   C17   A    
C18   C19   A    
C73   C74   A    
N6    N16   A    
N8    Ni1   S    
C61   C63   S    
N13   Ni1   S    
N8    N14   A    
C66   C83   S    
C46   C47   A    
C76   H46   S    
C52   H43   S    
C66   C72   A    
N10   Ni3   S    
O3    S1    S    
C68   C69   A    
C64   H44   S    
C13   H2    S    
C45   N8    A    
C70   C71   A    
N15   Ni3   S    
C4    C12   A    
C9    C82   S    
C72   H38   S    
C2    N13   A    
C84   N12   A    
N1    N7    A    
C69   H41   S    
C59   C60   A    
N14   Ni4   S    
C21   C22   A    
O2    S1    D    
C28   N3    A    
N12   Ni2   S    
C7    C56   A    
C74   C82   A    
C12   C47   S    
C24   H8    S    
C76   C83   A    
C44   H19   S    
C50   C51   A    
C77   C79   A    
C27   C34   S    
C1    H1    S    
C23   C65   S    
C4    N16   A    
C16   N2    A    
C51   H30   S    
C70   C80   S    
C59   H22   S    
C24   C25   A    
C62   H29   S    
C5    C7    A    
C16   H16   S    
C9    C84   A    
C49   C55   A    
C33   C37   A    
C54   H25   S    
C60   C61   A    
C51   C53   A    
C35   C36   A    
C7    C11   S    
C43   C44   A    
C62   C63   D    
C19   H5    S    
N10   N13   A    
C53   C62   S    
C58   C65   A    
N7    Ni3   S    
C47   C48   A    
C74   H32   S    
C67   N10   A    
C2    H49   S    
C73   C79   A    
N1    Ni1   S    
C75   C82   A    
C42   C48   A    
N11   Ni4   S    
C75   C77   A    
N9    N15   A    
N2    N4    A    
C78   N11   A    
C39   C46   A    
N9    Ni2   S    
C78   H34   S    
N16   Ni2   S    
C45   H47   S    
C16   C23   A    
C73   H37   S    
C22   C24   A    
C36   C44   A    
C26   H6    S    
C42   C43   A    
C29   H7    S    
C1    N1    A    
C79   C81   S    
C80   H40   S    
C5    H51   S    
C40   H39   S    
C54   C55   A    
C3    N14   A    
C55   H27   S    
C8    C31   S    
C31   C32   A    
C2    C8    A    
C60   S1    S    
C80   C81   D    
H48   O3    S    
C57   H26   S    
C57   C61   A    
C4    H4    S    
O1    S1    D    
C81   H35   S    
C34   C52   A    
C52   N5    A    
C5    N15   A    
C30   C36   A    
C58   H21   S    
C17   C25   A    
C32   C33   A    
C3    H50   S    
C19   C20   A    
C43   H18   S    
C71   C72   A    
C30   H10   S    
C59   C65   A    
N3    N5    A    
C67   H23   S    
C57   C58   A    
C38   C39   A    
C20   C26   A    
N3    Ni4   S    
C48   H17   S    
C40   N4    A    
C33   C35   A    
C9    C78   A    
C6    C49   S    
C56   H12   S    
C69   C70   A    
C35   C41   A    
C10   C11   A    
C68   H31   S    
C28   C34   A    
C76   N7    A    
C15   C21   A    
C32   H11   S    
C20   C21   A    
C8    C67   A    
C49   C50   A    
C14   C15   A    
N6    Ni4   S    
C63   H24   S    
C13   C14   A    
C77   H42   S    
N4    Ni2   S    
