data_mof_unit_28812.cif
_audit_creation_date              2012-12-11T14:04:17-0500
_audit_creation_method            fapswitch 2.2
_symmetry_space_group_name_H-M    P1
_symmetry_Int_Tables_number       1
_space_group_crystal_system       triclinic
_cell_length_a                    19.123857
_cell_length_b                    11.11054
_cell_length_c                    18.90434
_cell_angle_alpha                 89.976197
_cell_angle_beta                  88.86079
_cell_angle_gamma                 89.850248
_cell_volume                      4015.91776771

loop_
_atom_site_label
_atom_site_type_symbol
_atom_type_description
_atom_site_fract_x
_atom_site_fract_y
_atom_site_fract_z
_atom_type_partial_charge
C1    C     C_R   0.225962 0.523590 0.639680 0.606080
C2    C     C_R   0.992505 0.668963 0.578353 0.012504
C3    C     C_R   0.493440 0.154422 0.429433 0.010060
C4    C     C_R   0.492501 0.168959 0.578356 0.012507
C5    C     C_R   0.025732 0.867543 0.422455 -0.083618
C6    C     C_R   0.008488 0.889345 0.567872 -0.074202
C7    C     C_R   0.525720 0.367545 0.422461 -0.083617
C8    C     C_R   0.508475 0.389343 0.567877 -0.074182
C9    C     C_R   0.031594 0.980091 0.453610 0.181388
C10   C     C_R   0.025305 0.990538 0.527249 0.180231
C11   C     C_R   0.531576 0.480095 0.453616 0.181371
C12   C     C_R   0.776255 0.531696 0.357607 0.600030
C13   C     C_R   0.525281 0.490544 0.527255 0.180239
C14   C     C_R   0.002377 0.774485 0.536970 -0.008057
C15   C     C_R   0.006829 0.765347 0.462505 -0.011149
C16   C     C_R   0.502367 0.274482 0.536974 -0.008062
C17   C     C_R   0.506819 0.265346 0.462509 -0.011154
C18   C     C_R   0.973412 0.561284 0.545211 0.048340
C19   C     C_R   0.984297 0.548624 0.471977 0.036541
C20   C     C_R   0.473410 0.061277 0.545214 0.048339
C21   C     C_R   0.484293 0.048620 0.471979 0.036529
C22   C     C_R   0.949313 0.461775 0.585426 -0.046074
C23   C     C_R   0.725963 0.023588 0.639680 0.606089
C24   C     C_R   0.987104 0.428988 0.444958 -0.052610
C25   C     C_R   0.449317 0.961762 0.585429 -0.046094
C26   C     C_R   0.487100 0.928984 0.444957 -0.052639
C27   C     C_R   0.947719 0.348095 0.556825 -0.103532
C28   C     C_R   0.969718 0.330758 0.487423 -0.084891
C29   C     C_R   0.447732 0.848081 0.556827 -0.103502
C30   C     C_R   0.469723 0.830751 0.487423 -0.084885
C31   C     C_2   0.238548 0.897949 0.927651 -0.106927
C32   C     C_2   0.761344 0.898096 0.072494 -0.107672
C33   C     C_2   0.738548 0.397949 0.927651 -0.106926
C34   C     C_R   0.276255 0.031695 0.357608 0.600022
C35   C     C_2   0.261344 0.398096 0.072494 -0.107672
C36   C     C_2   0.249096 0.900656 0.083875 -0.044926
C37   C     C_2   0.751575 0.900607 0.916044 -0.045757
C38   C     C_2   0.749097 0.400657 0.083875 -0.044927
C39   C     C_2   0.251575 0.400607 0.916044 -0.045757
C40   C     C_R   0.226891 0.872698 0.648379 0.578820
C41   C     C_R   0.771742 0.876812 0.349925 0.584604
C42   C     C_R   0.726891 0.372697 0.648379 0.578818
C43   C     C_R   0.271742 0.376812 0.349925 0.584601
C44   C     C_2   0.188683 0.911324 0.049080 0.067721
C45   C     C_2   0.285753 0.973612 0.552892 0.066887
C46   C     C_2   0.811339 0.914219 0.951639 0.067226
C47   C     C_2   0.688683 0.411323 0.049080 0.067722
C48   C     C_2   0.311339 0.414219 0.951639 0.067226
C49   C     C_2   0.185136 0.881164 0.973949 -0.149637
C50   C     C_2   0.814871 0.881776 0.026322 -0.151148
C51   C     C_2   0.685136 0.381162 0.973949 -0.149637
C52   C     C_2   0.314870 0.381776 0.026322 -0.151149
C53   C     C_2   0.992175 0.663943 0.917656 -0.103249
C54   C     C_2   0.988285 0.654652 0.073287 -0.100804
C55   C     C_2   0.492175 0.163943 0.917656 -0.103249
C56   C     C_2   0.705457 0.983403 0.441166 0.074004
C57   C     C_2   0.488284 0.154652 0.073287 -0.100806
C58   C     C_2   0.961009 0.570697 0.030476 -0.156430
C59   C     C_2   0.975243 0.565877 0.954739 -0.161096
C60   C     C_2   0.461009 0.070697 0.030476 -0.156430
C61   C     C_2   0.475243 0.065877 0.954739 -0.161095
C62   C     C_R   0.027654 0.656279 0.647078 0.547069
C63   C     C_R   0.968920 0.652967 0.355521 0.551268
C64   C     C_R   0.527653 0.156278 0.647079 0.547073
C65   C     C_R   0.468915 0.152966 0.355524 0.551276
C66   C     C_R   0.238942 0.464905 0.850119 0.586990
C67   C     C_2   0.785749 0.473611 0.552890 0.066879
C68   C     C_R   0.761142 0.464703 0.149923 0.582504
C69   C     C_R   0.738942 0.964905 0.850119 0.586989
C70   C     C_R   0.261141 0.964703 0.149923 0.582505
C71   C     C_R   0.225694 0.870290 0.854111 0.561900
C72   C     C_R   0.774282 0.870266 0.145955 0.562952
C73   C     C_R   0.725694 0.370290 0.854111 0.561899
C74   C     C_R   0.274282 0.370266 0.145955 0.562952
C75   C     C_R   0.028557 0.652597 0.850132 0.556329
C76   C     C_R   0.967722 0.651250 0.147392 0.560166
C77   C     C_R   0.528557 0.152597 0.850132 0.556327
C78   C     C_2   0.205455 0.483402 0.441164 0.074008
C79   C     C_R   0.467721 0.151250 0.147392 0.560167
C80   C     C_2   0.241950 0.890340 0.575683 -0.053777
C81   C     C_2   0.754477 0.905566 0.421276 -0.025061
C82   C     C_2   0.741949 0.390338 0.575683 -0.053798
C83   C     C_2   0.254476 0.405568 0.421276 -0.025067
C84   C     C_2   0.272171 0.043729 0.434353 0.090091
C85   C     C_2   0.737982 0.013074 0.563259 0.082697
C86   C     C_2   0.772170 0.543728 0.434351 0.090092
C87   C     C_2   0.237978 0.513079 0.563258 0.082682
C88   C     C_2   0.302727 0.965774 0.476986 0.086962
C89   C     C_R   0.993446 0.654424 0.429431 0.010060
C90   C     C_2   0.687617 0.986896 0.517264 0.078273
C91   C     C_2   0.802723 0.465771 0.476985 0.086974
C92   C     C_2   0.187612 0.486895 0.517262 0.078281
Cr1   Cr    Cr6+3 0.113970 0.508630 0.747920 1.037517
Cr2   Cr    Cr6+3 0.887700 0.820070 0.250200 1.028609
Cr3   Cr    Cr6+3 0.612300 0.320070 0.749800 1.020746
Cr4   Cr    Cr6+3 0.387700 0.320070 0.250200 1.028609
Cr5   Cr    Cr6+3 0.886030 0.508630 0.252080 1.040318
Cr6   Cr    Cr6+3 0.613970 0.008630 0.747920 1.037515
Cr7   Cr    Cr6+3 0.386030 0.008630 0.252080 1.040317
Cr8   Cr    Cr6+3 0.269200 0.666740 0.749850 1.045405
Cr9   Cr    Cr6+3 0.730800 0.666740 0.250150 1.049853
Cr10  Cr    Cr6+3 0.769200 0.166740 0.749850 1.045408
Cr11  Cr    Cr6+3 0.230800 0.166740 0.250150 1.049845
Cr12  Cr    Cr6+3 0.112300 0.820070 0.749800 1.020742
H1    H     H_    0.134133 0.854060 0.955084 0.142949
H2    H     H_    0.709427 0.924507 0.056107 0.094322
H3    H     H_    0.790447 0.424151 0.943935 0.085659
H4    H     H_    0.209427 0.424507 0.056107 0.094322
H5    H     H_    0.929242 0.497797 0.051942 0.152316
H6    H     H_    0.975561 0.477406 0.930251 0.155434
H7    H     H_    0.429242 0.997796 0.051942 0.152316
H8    H     H_    0.475561 0.977406 0.930251 0.155434
H9    H     H_    0.019557 0.728667 0.053310 0.075837
H10   H     H_    0.989124 0.752516 0.941417 0.083219
H11   H     H_    0.519556 0.228667 0.053310 0.075835
H12   H     H_    0.865970 0.854588 0.045116 0.147677
H13   H     H_    0.489124 0.252516 0.941417 0.083219
H14   H     H_    0.222551 0.820991 0.540444 0.095781
H15   H     H_    0.781639 0.852101 0.460327 0.141746
H16   H     H_    0.722550 0.320986 0.540445 0.095783
H17   H     H_    0.281638 0.352106 0.460328 0.141741
H18   H     H_    0.037684 0.861649 0.366452 0.150374
H19   H     H_    0.996842 0.904237 0.623304 0.153561
H20   H     H_    0.537679 0.361649 0.366461 0.150377
H21   H     H_    0.496830 0.404229 0.623310 0.153553
H22   H     H_    0.008920 0.406953 0.393485 0.171582
H23   H     H_    0.634133 0.354057 0.955084 0.142948
H24   H     H_    0.932527 0.471375 0.640188 0.152026
H25   H     H_    0.508915 0.906951 0.393484 0.171587
H26   H     H_    0.432533 0.971358 0.640191 0.152025
H27   H     H_    0.927905 0.274624 0.588571 0.140502
H28   H     H_    0.968890 0.241893 0.465260 0.202277
H29   H     H_    0.427931 0.774601 0.588574 0.140567
H30   H     H_    0.468897 0.741889 0.465259 0.202311
H31   H     H_    0.337600 0.795346 0.489432 0.244954
H32   H     H_    0.285411 0.811373 0.422766 0.263931
H33   H     H_    0.600572 0.897079 0.497736 0.256985
H34   H     H_    0.365970 0.354588 0.045116 0.147677
H35   H     H_    0.631397 0.865260 0.573794 0.276930
H36   H     H_    0.837592 0.295337 0.489430 0.244948
H37   H     H_    0.785407 0.311372 0.422762 0.263932
H38   H     H_    0.100580 0.397039 0.497737 0.256994
H39   H     H_    0.131396 0.365259 0.573801 0.276946
H40   H     H_    0.082768 0.067393 0.374490 0.266032
H41   H     H_    0.996360 0.091451 0.378376 0.222026
H42   H     H_    0.994947 0.116313 0.597505 0.218123
H43   H     H_    0.080955 0.093933 0.592343 0.263452
H44   H     H_    0.582754 0.567378 0.374490 0.266016
H45   H     H_    0.293822 0.855982 0.059013 0.063898
H46   H     H_    0.496348 0.591473 0.378388 0.222025
H47   H     H_    0.494967 0.616239 0.597594 0.218083
H48   H     H_    0.580991 0.593996 0.592265 0.263497
H49   H     H_    0.087620 0.891045 0.080279 0.216222
H50   H     H_    0.109609 0.032215 0.055751 0.235014
H51   H     H_    0.913327 0.903629 0.921937 0.217981
H52   H     H_    0.886552 0.041774 0.947820 0.233145
H53   H     H_    0.587623 0.391034 0.080286 0.216224
H54   H     H_    0.609603 0.532205 0.055748 0.235010
H55   H     H_    0.413327 0.403630 0.921938 0.217981
H56   H     H_    0.707698 0.852800 0.940170 0.073021
H57   H     H_    0.386552 0.541775 0.947820 0.233145
H58   H     H_    0.793823 0.355984 0.059012 0.063898
H59   H     H_    0.207698 0.352800 0.940170 0.073020
H60   H     H_    0.290448 0.924149 0.943935 0.085659
I1    I     I_    0.308049 0.128011 0.617704 -0.373806
I2    I     I_    0.658106 0.100527 0.367901 -0.399929
I3    I     I_    0.808044 0.628015 0.617699 -0.373827
I4    I     I_    0.158108 0.600528 0.367898 -0.399928
I5    I     I_    0.188606 0.154187 0.474770 -0.398007
I6    I     I_    0.843399 0.057138 0.527574 -0.459089
I7    I     I_    0.688602 0.654185 0.474764 -0.398096
I8    I     I_    0.343393 0.557152 0.527572 -0.459043
N1    N     N_3   0.327166 0.852995 0.447996 -0.590002
N2    N     N_3   0.872622 0.965801 0.918721 -0.574759
N3    N     N_3   0.626401 0.456513 0.083642 -0.576023
N4    N     N_3   0.372621 0.465802 0.918721 -0.574760
N5    N     N_3   0.621818 0.939122 0.541190 -0.575570
N6    N     N_3   0.827162 0.352991 0.447994 -0.589999
N7    N     N_3   0.121815 0.439106 0.541186 -0.575577
N8    N     N_3   0.040799 0.083622 0.409429 -0.589494
N9    N     N_3   0.036398 0.103145 0.561648 -0.582727
N10   N     N_3   0.540791 0.583624 0.409437 -0.589488
N11   N     N_3   0.536365 0.603157 0.561652 -0.582749
N12   N     N_3   0.126401 0.956517 0.083641 -0.576027
O1    O     O_R   0.043230 0.549300 0.667990 -0.510106
O2    O     O_R   0.832470 0.905110 0.169660 -0.509257
O3    O     O_R   0.667530 0.405110 0.830340 -0.507182
O4    O     O_R   0.332470 0.405110 0.169660 -0.509257
O5    O     O_R   0.054010 0.748440 0.822860 -0.503715
O6    O     O_R   0.945990 0.748440 0.177140 -0.500000
O7    O     O_R   0.554010 0.248440 0.822860 -0.503717
O8    O     O_R   0.445990 0.248440 0.177140 -0.499999
O9    O     O_3   0.165160 0.665150 0.749190 -0.294999
O10   O     O_3   0.834840 0.665150 0.250810 -0.307575
O11   O     O_3   0.665160 0.165150 0.749190 -0.294998
O12   O     O_R   0.956770 0.549300 0.332010 -0.523822
O13   O     O_3   0.334840 0.165150 0.250810 -0.307576
O14   O     O_R   0.178620 0.457600 0.674100 -0.479615
O15   O     O_R   0.821380 0.457600 0.325900 -0.468007
O16   O     O_R   0.678620 0.957600 0.674100 -0.479607
O17   O     O_R   0.321380 0.957600 0.325900 -0.468005
O18   O     O_R   0.284680 0.542100 0.669460 -0.482683
O19   O     O_R   0.715320 0.542100 0.330540 -0.508246
O20   O     O_R   0.784680 0.042100 0.669460 -0.482687
O21   O     O_R   0.215320 0.042100 0.330540 -0.508256
O22   O     O_R   0.262860 0.790390 0.676650 -0.518877
O23   O     O_R   0.543230 0.049300 0.667990 -0.510106
O24   O     O_R   0.737140 0.790390 0.323350 -0.498103
O25   O     O_R   0.762860 0.290390 0.676650 -0.518877
O26   O     O_R   0.237140 0.290390 0.323350 -0.498108
O27   O     O_R   0.167460 0.907030 0.670940 -0.500061
O28   O     O_R   0.832540 0.907030 0.329060 -0.492664
O29   O     O_R   0.667460 0.407030 0.670940 -0.500055
O30   O     O_R   0.332540 0.407030 0.329060 -0.492665
O31   O     O_R   0.053950 0.750220 0.675100 -0.520980
O32   O     O_R   0.946050 0.750220 0.324900 -0.508856
O33   O     O_R   0.553950 0.250220 0.675100 -0.520979
O34   O     O_R   0.456770 0.049300 0.332010 -0.523823
O35   O     O_R   0.446050 0.250220 0.324900 -0.508858
O36   O     O_R   0.043300 0.547370 0.827390 -0.514224
O37   O     O_R   0.956700 0.547370 0.172610 -0.506745
O38   O     O_R   0.543300 0.047370 0.827390 -0.514225
O39   O     O_R   0.456700 0.047370 0.172610 -0.506744
O40   O     O_R   0.178690 0.455820 0.821860 -0.506367
O41   O     O_R   0.821310 0.455820 0.178140 -0.516259
O42   O     O_R   0.678690 0.955820 0.821860 -0.506368
O43   O     O_R   0.321310 0.955820 0.178140 -0.516258
O44   O     O_R   0.284750 0.540170 0.828860 -0.461119
O45   O     O_R   0.262920 0.788600 0.824420 -0.496081
O46   O     O_R   0.715250 0.540170 0.171140 -0.463191
O47   O     O_R   0.784750 0.040170 0.828860 -0.461118
O48   O     O_R   0.215250 0.040170 0.171140 -0.463193
O49   O     O_R   0.737080 0.788600 0.175580 -0.492277
O50   O     O_R   0.762920 0.288600 0.824420 -0.496080
O51   O     O_R   0.237080 0.288600 0.175580 -0.492278
O52   O     O_R   0.167530 0.905110 0.830340 -0.507182

loop_
_geom_bond_atom_site_label_1
_geom_bond_atom_site_label_2
_ccdc_geom_bond_type
C44   C49   S    
C1    C87   S    
Cr5   O41   S    
C21   C26   A    
C54   H9    S    
C35   C74   S    
Cr2   O28   S    
C8    C13   A    
C37   C69   S    
Cr9   O24   S    
C2    C18   A    
C58   H5    S    
C43   C83   S    
C62   O31   A    
Cr4   O4    S    
C29   H29   S    
C1    O14   A    
C42   C82   S    
C82   H16   S    
C7    H20   S    
Cr10  O11   S    
C53   C59   D    
Cr3   O3    S    
C56   C81   D    
C32   C72   S    
C3    C65   S    
Cr8   O9    S    
C53   H10   S    
C7    C11   A    
C40   O27   A    
H52   N2    S    
H49   N12   S    
C64   O33   A    
C19   C24   A    
Cr1   O36   S    
C19   C89   A    
H31   N1    S    
C37   H56   S    
Cr8   O45   S    
C75   O5    A    
C48   C52   S    
C86   C91   D    
C69   O47   A    
C55   H13   S    
C65   O34   A    
C55   C77   S    
C36   H45   S    
C15   C89   A    
C20   C25   A    
C25   H26   S    
C34   O17   A    
C67   I3    S    
C91   N6    S    
C55   C61   D    
C59   H6    S    
Cr4   O30   S    
C72   O49   A    
C18   C19   A    
Cr11  O13   S    
C12   O19   A    
Cr8   O44   S    
C43   O26   A    
Cr5   O15   S    
Cr1   O9    S    
Cr10  O20   S    
C35   H4    S    
H32   N1    S    
C41   O28   A    
Cr8   O18   S    
C78   C83   D    
H40   N8    S    
C36   C70   S    
C16   C17   A    
C30   H30   S    
H50   N12   S    
C52   H34   S    
Cr12  O9    S    
C40   C80   S    
Cr9   O46   S    
H39   N7    S    
C63   O32   A    
C45   C80   D    
C9    C10   A    
C44   N12   S    
Cr3   O7    S    
H43   N9    S    
C56   C90   S    
C90   N5    S    
C8    C16   A    
Cr2   O10   S    
C87   C92   D    
C69   O42   A    
C42   O25   A    
C24   H22   S    
C33   H3    S    
C77   O38   A    
Cr7   O13   S    
C53   C75   S    
C11   N10   S    
C34   C84   S    
C6    H19   S    
C31   C49   D    
C1    O18   A    
Cr11  O26   S    
Cr2   O2    S    
C73   O3    A    
C68   O46   A    
C46   C50   S    
C74   O4    A    
C34   O21   A    
C25   C29   A    
Cr4   O13   S    
C64   O23   A    
C80   H14   S    
H37   N6    S    
C77   O7    A    
Cr11  O21   S    
C22   C27   A    
C45   C88   S    
C76   O6    A    
C70   O43   A    
C43   O30   A    
C57   H11   S    
C84   I5    S    
Cr9   O19   S    
C65   O35   A    
H57   N4    S    
Cr8   O22   S    
C68   O41   A    
C57   C60   D    
C49   H1    S    
C7    C17   A    
C58   C59   S    
C5    H18   S    
C23   O16   A    
C88   N1    S    
C86   I7    S    
C60   C61   S    
C28   H28   S    
C84   C88   D    
Cr5   O10   S    
C4    C16   A    
Cr2   O6    S    
C5    C9    A    
C29   C30   A    
H35   N5    S    
C92   N7    S    
C6    C14   A    
H54   N3    S    
H36   N6    S    
H38   N7    S    
Cr7   O34   S    
Cr12  O52   S    
C41   C81   S    
C63   C89   S    
C67   C91   S    
C71   O45   A    
Cr6   O16   S    
C71   O52   A    
C83   H17   S    
H48   N11   S    
C79   O39   A    
C26   H25   S    
C72   O2    A    
C73   O50   A    
C9    N8    S    
H53   N3    S    
C62   O1    A    
C54   C76   S    
H51   N2    S    
C33   C73   S    
C38   C68   S    
Cr10  O50   S    
C79   O8    A    
Cr9   O49   S    
Cr10  O47   S    
Cr3   O29   S    
C39   C66   S    
Cr6   O23   S    
C3    C21   A    
C27   H27   S    
C39   H59   S    
C27   C28   A    
Cr9   O10   S    
Cr5   O12   S    
C66   O40   A    
C54   C58   D    
Cr7   O39   S    
Cr11  O48   S    
C81   H15   S    
C31   H60   S    
C35   C52   D    
Cr3   O11   S    
H42   N9    S    
C18   C22   A    
Cr2   O32   S    
C87   I8    S    
C32   C50   D    
C24   C28   A    
Cr12  O31   S    
H46   N10   S    
C66   O44   A    
C6    C10   A    
C47   C51   S    
C85   C90   D    
Cr10  O25   S    
H47   N11   S    
C12   C86   S    
C76   O37   A    
C33   C51   D    
Cr4   O35   S    
C13   N11   S    
C4    C64   S    
C78   I4    S    
C85   I6    S    
C38   C47   D    
C23   O20   A    
H55   N4    S    
C78   C92   S    
Cr4   O8    S    
C41   O24   A    
Cr1   O14   S    
C37   C46   D    
C51   H23   S    
C60   H7    S    
C11   C13   A    
C75   O36   A    
Cr12  O5    S    
Cr6   O38   S    
H41   N8    S    
C31   C71   S    
Cr3   O33   S    
C12   O15   A    
Cr5   O37   S    
Cr6   O11   S    
C3    C17   A    
Cr1   O40   S    
C50   H12   S    
C32   H2    S    
C40   O22   A    
C2    C14   A    
C57   C79   S    
C70   O48   A    
C5    C15   A    
C36   C44   D    
C47   N3    S    
C4    C20   A    
C46   N2    S    
C8    H21   S    
C38   H58   S    
H33   N5    S    
C20   C21   A    
C67   C82   D    
H44   N10   S    
C23   C85   S    
C56   I2    S    
C22   H24   S    
C42   O29   A    
C10   N9    S    
C14   C15   A    
C39   C48   D    
Cr11  O51   S    
Cr12  O27   S    
C48   N4    S    
C74   O51   A    
Cr7   O43   S    
C61   H8    S    
C45   I1    S    
Cr7   O17   S    
C2    C62   S    
C63   O12   A    
Cr6   O42   S    
C26   C30   A    
Cr1   O1    S    
