data_mof_unit_30226.cif
_audit_creation_date              2013-03-05T16:25:01-0500
_audit_creation_method            fapswitch 2.2
_symmetry_space_group_name_H-M    P1
_symmetry_Int_Tables_number       1
_space_group_crystal_system       triclinic
_cell_length_a                    15.152272
_cell_length_b                    13.860333
_cell_length_c                    9.082028
_cell_angle_alpha                 89.996252
_cell_angle_beta                  90.170904
_cell_angle_gamma                 89.792939
_cell_volume                      1907.34602897

loop_
_atom_site_label
_atom_site_type_symbol
_atom_site_description
_atom_site_fract_x
_atom_site_fract_y
_atom_site_fract_z
_atom_type_partial_charge
O1    O     O_R   0.371460 0.581430 0.500010 -0.553023
O2    O     O_R   0.628540 0.418570 0.499990 -0.562996
O3    O     O_R   0.628540 0.581430 0.499990 -0.542887
O4    O     O_R   0.371460 0.418570 0.500010 -0.556259
C1    C     C_R   0.329674 0.500229 0.500942 0.847365
C2    C     C_R   0.670170 0.499787 0.500544 0.861344
O5    O     O_R   0.500000 0.581420 0.288390 -0.592307
O6    O     O_R   0.500000 0.418580 0.711610 -0.583264
O7    O     O_R   0.500000 0.581420 0.711610 -0.597523
O8    O     O_R   0.500000 0.418580 0.288390 -0.577681
C3    C     C_R   0.567602 0.107703 0.569867 -0.295684
C4    C     C_R   0.458673 0.892267 0.386852 -0.299623
C5    C     C_R   0.432204 0.108191 0.430874 -0.282403
C6    C     C_R   0.541243 0.891865 0.613488 -0.281290
C7    C     C_R   0.499985 0.500005 0.220509 0.852043
C8    C     C_R   0.500054 0.500001 0.779478 0.819336
Cu1   Cu    Cu3+1 0.500000 0.596430 0.500000 0.967709
Cu2   Cu    Cu3+1 0.500000 0.403570 0.500000 0.971429
H1    H     H_    0.617786 0.248316 0.625225 0.121564
H2    H     H_    0.426129 0.751695 0.302116 0.145925
H3    H     H_    0.381632 0.249109 0.376078 0.136190
H4    H     H_    0.573724 0.750976 0.698042 0.134646
N1    N     N_R   0.500000 0.258690 0.500000 -0.172535
N2    N     N_R   0.500000 0.741310 0.500000 -0.176725
C9    C     C_R   0.499944 0.054696 0.500288 0.133235
C10   C     C_R   0.499956 0.945315 0.500212 0.132242
C11   C     C_1   0.500029 0.500016 0.065486 -0.180669
C12   C     C_1   0.500055 0.500011 0.934476 -0.195711
C13   C     C_R   0.092683 0.581784 0.461668 -0.257570
C14   C     C_R   0.906676 0.423093 0.445165 -0.262974
C15   C     C_R   0.904469 0.575292 0.576190 -0.254659
C16   C     C_R   0.094875 0.419871 0.561584 -0.256588
C17   C     C_R   0.184875 0.583489 0.459983 0.428539
C18   C     C_R   0.814313 0.421243 0.442940 0.428586
C19   C     C_R   0.812531 0.574994 0.575617 0.432903
C20   C     C_R   0.186830 0.419927 0.561556 0.424542
C21   C     C_R   0.232685 0.500958 0.506362 -0.247095
C22   C     C_R   0.766901 0.499073 0.505185 -0.243208
C23   C     C_R   0.047867 0.500556 0.512495 0.016044
C24   C     C_R   0.951474 0.499431 0.511985 0.017193
C25   C     C_R   0.565860 0.209177 0.569682 0.087451
C26   C     C_R   0.458913 0.790799 0.389447 0.085540
C27   C     C_R   0.433882 0.209649 0.431009 0.120430
C28   C     C_R   0.541075 0.790400 0.610650 0.114258
H5    H     H_    0.622518 0.071618 0.622909 0.129848
H6    H     H_    0.427156 0.928323 0.295026 0.132739
H7    H     H_    0.377237 0.072484 0.378081 0.129425
H8    H     H_    0.572673 0.927614 0.705439 0.130044
H9    H     H_    0.055901 0.643059 0.419454 0.161246
H10   H     H_    0.943782 0.366555 0.390783 0.157417
H11   H     H_    0.939145 0.634440 0.628414 0.159779
H12   H     H_    0.060165 0.356894 0.601586 0.159620
O9    O     O_3   0.227944 0.661731 0.398836 -0.564801
C29   C     C_3   0.221229 0.741034 0.495647 -0.283980
H13   H     H_    0.262317 0.800594 0.452171 0.181913
H14   H     H_    0.246713 0.722802 0.607461 0.161797
H15   H     H_    0.152248 0.768222 0.502419 0.146537
O10   O     O_3   0.769864 0.349570 0.366516 -0.555836
C30   C     C_3   0.787951 0.258739 0.430407 -0.291514
H16   H     H_    0.738704 0.206307 0.388718 0.190311
H17   H     H_    0.782157 0.260273 0.552699 0.138395
H18   H     H_    0.854130 0.231929 0.397297 0.152982
O11   O     O_3   0.767768 0.651216 0.639622 -0.558951
C31   C     C_3   0.755940 0.630384 0.790230 -0.307868
H19   H     H_    0.716386 0.563620 0.805929 0.143907
H20   H     H_    0.718893 0.690775 0.841444 0.181347
H21   H     H_    0.820418 0.624043 0.848567 0.160048
O12   O     O_3   0.231202 0.338598 0.610242 -0.562185
C32   C     C_3   0.243277 0.346352 0.763783 -0.281346
H22   H     H_    0.282529 0.411421 0.793027 0.144730
H23   H     H_    0.280770 0.282289 0.802603 0.189673
H24   H     H_    0.178884 0.347247 0.822453 0.148887

loop_
_geom_bond_atom_site_label_1
_geom_bond_atom_site_label_2
_geom_bond_distance
_ccdc_geom_bond_type
C8    C12   1.407702 S    
C32   H24   1.113141 S    
H2    C26   1.081318 S    
C2    C22   1.466171 S    
O3    Cu1   1.957990 S    
C1    C21   1.470572 S    
O2    Cu2   1.959484 S    
N2    C26   1.363566 A    
O1    Cu1   1.959487 S    
C32   H23   1.109324 S    
N1    C25   1.363294 A    
C15   H11   1.083881 S    
O3    C2    1.293546 A    
O4    Cu2   1.957993 S    
C31   H19   1.113708 S    
C13   C23   1.396081 A    
O5    C7    1.285898 A    
Cu1   Cu2   2.673105 S    
C14   H10   1.082906 S    
C14   C24   1.396913 A    
C30   H16   1.109311 S    
O6    C8    1.285917 A    
C31   H20   1.109196 S    
C13   H9    1.083586 S    
O9    C29   1.411187 S    
C6    C10   1.411131 A    
C5    C9    1.411132 A    
O2    C2    1.292376 A    
H4    C28   1.081163 S    
O8    Cu2   1.933063 S    
Cu2   N1    2.008084 S    
O1    C1    1.293367 A    
O4    C1    1.294927 A    
C16   C20   1.393326 A    
C4    H6    1.081278 S    
C20   C21   1.415303 A    
C9    C10   1.516059 S    
O7    C8    1.285815 A    
C17   C21   1.415237 A    
C3    C25   1.406609 A    
C15   C19   1.393077 A    
O8    C7    1.285946 A    
C17   O9    1.384745 S    
C32   H22   1.113828 S    
N2    C28   1.363676 A    
C29   H14   1.114053 S    
C30   H17   1.114580 S    
Cu1   N2    2.008084 S    
C3    H5    1.081282 S    
C14   C18   1.399916 A    
O11   C31   1.410040 S    
C23   C24   1.460712 S    
C31   H21   1.113213 S    
C13   C17   1.397344 A    
C5    C27   1.406562 A    
C19   C22   1.413229 A    
N1    C27   1.363650 A    
C15   C24   1.396423 A    
C6    C28   1.406588 A    
C16   C23   1.396081 A    
O7    Cu1   1.933061 S    
C11   C12   1.189835 T    
C18   O10   1.387219 S    
C6    H8    1.081252 S    
C3    C9    1.411279 A    
C29   H13   1.109112 S    
C16   H12   1.083935 S    
C30   H18   1.110475 S    
C4    C26   1.406562 A    
O5    Cu1   1.933090 S    
O10   C30   1.411814 S    
H3    C27   1.081336 S    
C5    H7    1.081275 S    
C19   O11   1.382505 S    
C29   H15   1.111669 S    
O6    Cu2   1.933088 S    
H1    C25   1.080989 S    
C4    C10   1.411176 A    
O12   C32   1.410033 S    
C7    C11   1.407928 S    
C20   O12   1.382367 S    
C18   C22   1.412896 A    
