data_mof_unit_18552.cif
_audit_creation_date              2012-12-10T18:47:49-0500
_audit_creation_method            fapswitch 2.2
_symmetry_space_group_name_H-M    P1
_symmetry_Int_Tables_number       1
_space_group_crystal_system       triclinic
_cell_length_a                    10.172706
_cell_length_b                    10.611034
_cell_length_c                    15.628198
_cell_angle_alpha                 92.174987
_cell_angle_beta                  72.616083
_cell_angle_gamma                 90.641613
_cell_volume                      1608.74075303

loop_
_atom_site_label
_atom_site_type_symbol
_atom_type_description
_atom_site_fract_x
_atom_site_fract_y
_atom_site_fract_z
_atom_type_partial_charge
C1    C     C_R   0.500207 0.738924 0.501083 0.837251
C2    C     C_R   0.388097 0.937479 0.558857 -0.195420
C3    C     C_R   0.499530 0.128401 0.501317 0.010989
C4    C     C_R   0.501104 0.871976 0.502628 0.002060
C5    C     C_R   0.948432 0.406432 0.454620 0.211863
C6    C     C_R   0.055257 0.598918 0.537473 0.181801
C7    C     C_R   0.087668 0.402334 0.460998 0.193351
C8    C     C_R   0.912520 0.598931 0.537394 0.177002
C9    C     C_R   0.415489 0.497493 0.673153 0.860545
C10   C     C_R   0.583481 0.512361 0.328135 0.857590
C11   C     C_R   0.369493 0.503939 0.770647 -0.121601
C12   C     C_R   0.499462 0.261202 0.500300 0.841689
C13   C     C_R   0.620878 0.560011 0.237758 -0.120905
C14   C     C_R   0.184184 0.553543 0.901141 0.007331
C15   C     C_R   0.772389 0.669016 0.112808 0.006732
C16   C     C_R   0.230949 0.488861 0.818680 -0.077830
C17   C     C_R   0.737743 0.636664 0.203282 -0.081158
C18   C     C_R   0.460914 0.542602 0.817087 -0.246793
C19   C     C_R   0.523419 0.549372 0.190803 -0.231052
C20   C     C_R   0.417070 0.551562 0.910984 0.044350
C21   C     C_R   0.553034 0.595064 0.104766 0.043200
C22   C     C_R   0.273986 0.560641 0.954019 0.041812
C23   C     C_R   0.316540 0.609044 0.096250 -0.069471
C24   C     C_R   0.689762 0.623107 0.060928 0.048037
C25   C     C_R   0.510517 0.560092 0.961811 -0.008978
C26   C     C_R   0.458709 0.588440 0.055297 -0.024242
C27   C     C_3   0.044583 0.461710 0.139816 -0.772375
C28   C     C_3   0.882907 0.391248 0.983552 -0.711723
C29   C     C_1   0.817660 0.685521 0.260081 0.180009
C30   C     C_1   0.137723 0.416582 0.781994 0.169372
C31   C     C_1   0.114289 0.669553 0.896408 0.176856
C32   C     C_1   0.861877 0.775175 0.082145 0.171467
C33   C     C_1   0.264162 0.662507 0.187018 0.156511
C34   C     C_R   0.653097 0.531845 0.925328 -0.076013
C35   C     C_1   0.703608 0.445557 0.848115 0.136800
C36   C     C_3   0.997296 0.260108 0.318328 -0.811696
C37   C     C_3   0.086493 0.700087 0.672395 -0.690702
C38   C     C_3   0.134332 0.185122 0.482097 -0.712819
C39   C     C_3   0.761443 0.718029 0.664879 -0.701906
C40   C     C_R   0.224296 0.585352 0.046674 0.143237
C41   C     C_R   0.743566 0.568317 0.974720 0.142163
C42   C     C_R   0.614903 0.933850 0.447628 -0.182678
C43   C     C_R   0.388230 0.066916 0.559120 -0.199422
C44   C     C_R   0.613764 0.063022 0.446403 -0.190128
H1    H     H_    0.427818 0.499178 0.218966 0.170878
H2    H     H_    0.084718 0.377606 0.095540 0.244149
H3    H     H_    0.922692 0.518982 0.882281 0.230319
H4    H     H_    0.991658 0.361922 0.969846 0.242992
H5    H     H_    0.831502 0.321196 0.949724 0.237461
H6    H     H_    0.831340 0.390089 0.056891 0.240784
H7    H     H_    0.812196 0.334384 0.390126 0.288785
H8    H     H_    0.946278 0.253355 0.264520 0.226065
H9    H     H_    0.026627 0.163049 0.329332 0.270771
H10   H     H_    0.090871 0.318558 0.293615 0.247054
H11   H     H_    0.090204 0.790368 0.554964 0.203176
H12   H     H_    0.564277 0.566727 0.779876 0.173592
H13   H     H_    0.187258 0.707967 0.685878 0.243009
H14   H     H_    0.035043 0.611749 0.701128 0.236299
H15   H     H_    0.022380 0.781363 0.707320 0.212198
H16   H     H_    0.270866 0.308771 0.393315 0.263392
H17   H     H_    0.205691 0.106377 0.451149 0.233581
H18   H     H_    0.027630 0.153289 0.488417 0.245494
H19   H     H_    0.141355 0.209177 0.550285 0.248990
H20   H     H_    0.871254 0.790996 0.541317 0.208614
H21   H     H_    0.798165 0.803144 0.694404 0.211056
H22   H     H_    0.649176 0.728916 0.676184 0.243924
H23   H     H_    0.702423 0.882481 0.404668 0.164152
H24   H     H_    0.780618 0.634039 0.699809 0.227864
H25   H     H_    0.303361 0.118819 0.604841 0.149485
H26   H     H_    0.700520 0.111646 0.402251 0.154221
H27   H     H_    0.301831 0.888917 0.603184 0.155653
H28   H     H_    0.046030 0.654836 0.131302 0.242539
H29   H     H_    0.087396 0.464046 0.197095 0.237839
H30   H     H_    0.931353 0.453361 0.166801 0.244744
N1    N     N_R   0.142780 0.500030 0.500020 -0.141569
N2    N     N_1   0.743789 0.376603 0.786788 -0.184505
N3    N     N_2   0.903045 0.312824 0.400834 -0.288728
N4    N     N_2   0.107629 0.703326 0.576626 -0.260552
N5    N     N_2   0.168651 0.293826 0.426480 -0.292288
N6    N     N_2   0.829881 0.707676 0.569457 -0.250873
N7    N     N_R   0.857220 0.499970 0.499980 -0.150796
N8    N     N_2   0.081270 0.576318 0.090934 -0.280381
N9    N     N_2   0.877349 0.516255 0.950229 -0.287202
N10   N     N_1   0.882426 0.723612 0.305019 -0.207495
N11   N     N_1   0.064507 0.357726 0.752027 -0.204354
N12   N     N_1   0.061039 0.762492 0.889012 -0.206950
N13   N     N_1   0.931351 0.862496 0.060448 -0.193175
N14   N     N_1   0.222354 0.705093 0.259314 -0.193270
O1    O     O_R   0.385370 0.683250 0.500010 -0.590215
O2    O     O_R   0.614630 0.316750 0.499990 -0.632647
O3    O     O_R   0.614700 0.683220 0.500000 -0.591928
O4    O     O_R   0.385300 0.316780 0.500000 -0.625603
O5    O     O_R   0.319830 0.500020 0.632250 -0.597912
O6    O     O_R   0.680170 0.499980 0.367750 -0.635377
O7    O     O_R   0.549160 0.499990 0.632240 -0.599062
O8    O     O_R   0.450840 0.500010 0.367760 -0.630475
Zn1   Zn    Zn3+2 0.346870 0.500020 0.500000 0.962842
Zn2   Zn    Zn3+2 0.653130 0.499980 0.500000 0.968329

loop_
_geom_bond_atom_site_label_1
_geom_bond_atom_site_label_2
_ccdc_geom_bond_type
C21   C26   A    
H16   N5    S    
O5    Zn1   S    
C17   C29   S    
C39   H24   S    
C14   C31   S    
O7    Zn2   S    
C15   C32   S    
C11   C18   A    
C3    C43   A    
C12   O2    A    
C19   C21   A    
C33   N14   T    
C36   N3    S    
N7    Zn2   S    
C6    N4    S    
C38   N5    S    
O6    Zn2   S    
C16   C30   S    
C23   C40   A    
C41   N9    S    
N1    Zn1   S    
C34   C35   S    
C28   H5    S    
C23   C26   A    
C36   H9    S    
H20   N6    S    
C28   H6    S    
C23   C33   S    
C44   H26   S    
C3    C12   S    
H3    N9    S    
C27   H30   S    
C9    O7    A    
C37   H14   S    
C36   H8    S    
C18   H12   S    
C25   C34   A    
C38   H17   S    
C1    O3    A    
C31   N12   T    
C28   N9    S    
C24   C41   A    
C39   H21   S    
C34   C41   A    
C42   C44   A    
O4    Zn1   S    
C3    C44   A    
C35   N2    T    
C13   C19   A    
C8    N7    A    
C40   N8    S    
C6    N1    A    
C29   N10   T    
C5    C7    A    
H11   N4    S    
C6    C8    A    
C25   C26   A    
C32   N13   T    
O1    Zn1   S    
C2    C4    A    
H7    N3    S    
C5    N7    A    
C11   C16   A    
C10   O8    A    
C2    C43   A    
C22   C40   A    
O8    Zn1   S    
C30   N11   T    
C9    C11   S    
C37   H15   S    
C27   H2    S    
C15   C24   A    
C20   C22   A    
C42   H23   S    
C39   H22   S    
C14   C16   A    
C5    N3    S    
C2    H27   S    
C9    O5    A    
C7    N5    S    
C38   H19   S    
C15   C17   A    
C28   H4    S    
C1    O1    A    
C12   O4    A    
C27   N8    S    
C10   C13   S    
C7    N1    A    
C19   H1    S    
C37   N4    S    
C13   C17   A    
C1    C4    S    
C39   N6    S    
C14   C22   A    
C4    C42   A    
C18   C20   A    
O3    Zn2   S    
C37   H13   S    
C36   H10   S    
C43   H25   S    
C20   C25   A    
C21   C24   A    
C8    N6    S    
C10   O6    A    
C27   H29   S    
O2    Zn2   S    
H28   N8    S    
C38   H18   S    
