data_mof_unit_5227.cif
_audit_creation_date              2013-03-05T15:50:09-0500
_audit_creation_method            fapswitch 2.2
_symmetry_space_group_name_H-M    P1
_symmetry_Int_Tables_number       1
_space_group_crystal_system       triclinic
_cell_length_a                    18.494778
_cell_length_b                    25.796487
_cell_length_c                    18.204196
_cell_angle_alpha                 89.766885
_cell_angle_beta                  90.069824
_cell_angle_gamma                 90.205418
_cell_volume                      8685.09337652

loop_
_atom_site_label
_atom_site_type_symbol
_atom_site_description
_atom_site_fract_x
_atom_site_fract_y
_atom_site_fract_z
_atom_type_partial_charge
Zn1   Zn    Zn3+2 0.249990 0.293780 0.913250 1.028793
Zn2   Zn    Zn3+2 0.249990 0.706220 0.086750 1.106122
Zn3   Zn    Zn3+2 0.249990 0.706220 0.913250 1.053237
Zn4   Zn    Zn3+2 0.249990 0.293780 0.086750 1.100107
Zn5   Zn    Zn3+2 0.749990 0.793780 0.413250 1.067263
Zn6   Zn    Zn3+2 0.749990 0.206220 0.586750 1.074878
Zn7   Zn    Zn3+2 0.749990 0.206220 0.413250 1.028446
Zn8   Zn    Zn3+2 0.749990 0.793780 0.586750 1.086993
Zn9   Zn    Zn3+2 0.336760 0.206240 0.000000 1.035168
Zn10  Zn    Zn3+2 0.336760 0.793760 0.000000 1.039915
Zn11  Zn    Zn3+2 0.836760 0.706240 0.500000 1.068207
Zn12  Zn    Zn3+2 0.836760 0.293760 0.500000 1.044839
Zn13  Zn    Zn3+2 0.163250 0.206230 0.000000 1.089649
Zn14  Zn    Zn3+2 0.163250 0.793770 0.000000 1.098076
Zn15  Zn    Zn3+2 0.663250 0.706230 0.500000 1.089503
Zn16  Zn    Zn3+2 0.663250 0.293770 0.500000 1.076314
O1    O     O_3   0.249990 0.250010 0.000000 -0.523189
O2    O     O_3   0.249990 0.749990 0.000000 -0.528169
O3    O     O_3   0.749990 0.750010 0.500000 -0.526717
O4    O     O_3   0.749990 0.249990 0.500000 -0.523799
O5    O     O_R   0.335430 0.280650 0.146160 -0.612214
O6    O     O_R   0.335430 0.719350 0.853840 -0.636394
O7    O     O_R   0.335430 0.719350 0.146160 -0.619254
O8    O     O_R   0.335430 0.280650 0.853840 -0.637290
O9    O     O_R   0.835430 0.780650 0.646160 -0.648146
O10   O     O_R   0.835430 0.219350 0.353840 -0.604955
O11   O     O_R   0.835430 0.219350 0.646160 -0.589301
O12   O     O_R   0.835430 0.780650 0.353840 -0.639306
O13   O     O_R   0.164550 0.280640 0.853840 -0.626732
O14   O     O_R   0.164550 0.719360 0.146160 -0.592773
O15   O     O_R   0.164550 0.719360 0.853840 -0.583521
O16   O     O_R   0.164550 0.280640 0.146160 -0.604188
O17   O     O_R   0.664550 0.780640 0.353840 -0.610167
O18   O     O_R   0.664550 0.219360 0.646160 -0.594438
O19   O     O_R   0.664550 0.219360 0.353840 -0.615509
O20   O     O_R   0.664550 0.780640 0.646160 -0.586087
O21   O     O_R   0.396160 0.219380 0.914560 -0.634916
O22   O     O_R   0.396160 0.780620 0.085440 -0.618790
O23   O     O_R   0.396160 0.780620 0.914560 -0.633226
O24   O     O_R   0.396160 0.219380 0.085440 -0.628186
O25   O     O_R   0.896160 0.719380 0.414560 -0.633233
O26   O     O_R   0.896160 0.280620 0.585440 -0.641061
O27   O     O_R   0.896160 0.280620 0.414560 -0.644167
O28   O     O_R   0.896160 0.719380 0.585440 -0.571925
O29   O     O_R   0.103840 0.219370 0.085450 -0.622056
O30   O     O_R   0.103840 0.780630 0.914550 -0.629345
O31   O     O_R   0.103840 0.780630 0.085450 -0.600132
O32   O     O_R   0.103840 0.219370 0.914550 -0.605474
O33   O     O_R   0.603840 0.719370 0.585450 -0.604935
O34   O     O_R   0.603840 0.280630 0.414550 -0.646967
O35   O     O_R   0.603840 0.280630 0.585450 -0.591370
O36   O     O_R   0.603840 0.719370 0.414550 -0.645372
O37   O     O_R   0.310730 0.133160 0.000000 -0.604866
O38   O     O_R   0.310730 0.866840 0.000000 -0.614842
O39   O     O_R   0.810730 0.633160 0.500000 -0.590225
O40   O     O_R   0.810730 0.366840 0.500000 -0.607039
O41   O     O_R   0.249970 0.366860 0.060720 -0.635439
O42   O     O_R   0.249970 0.633140 0.939280 -0.607888
O43   O     O_R   0.249970 0.633140 0.060720 -0.623695
O44   O     O_R   0.249970 0.366860 0.939280 -0.621824
O45   O     O_R   0.749970 0.866860 0.560720 -0.615225
O46   O     O_R   0.749970 0.133140 0.439280 -0.641146
O47   O     O_R   0.749970 0.133140 0.560720 -0.646832
O48   O     O_R   0.749970 0.866860 0.439280 -0.600607
O49   O     O_R   0.189290 0.133150 0.000000 -0.625623
O50   O     O_R   0.189290 0.866850 0.000000 -0.604833
O51   O     O_R   0.689290 0.633150 0.500000 -0.613949
O52   O     O_R   0.689290 0.366850 0.500000 -0.595618
C1    C     C_R   0.390847 0.250997 0.140018 0.835658
C2    C     C_R   0.389302 0.750242 0.859671 0.752468
C3    C     C_R   0.393462 0.746115 0.136620 0.829463
C4    C     C_R   0.389057 0.249979 0.859435 0.758313
C5    C     C_R   0.888474 0.749373 0.641142 0.805783
C6    C     C_R   0.890141 0.249287 0.360204 0.790794
C7    C     C_R   0.889219 0.250800 0.640734 0.848955
C8    C     C_R   0.889296 0.750264 0.359695 0.755071
C9    C     C_R   0.110070 0.250186 0.860314 0.857338
C10   C     C_R   0.109040 0.747891 0.139469 0.883686
C11   C     C_R   0.110031 0.749563 0.860259 0.834022
C12   C     C_R   0.113055 0.247652 0.143319 0.888077
C13   C     C_R   0.606648 0.753658 0.362980 0.881805
C14   C     C_R   0.612543 0.251367 0.642483 0.860469
C15   C     C_R   0.615049 0.253799 0.355567 0.814444
C16   C     C_R   0.610526 0.749473 0.640386 0.875442
C17   C     C_R   0.250077 0.109508 0.001863 0.844821
C18   C     C_R   0.250195 0.890551 0.000895 0.855624
C19   C     C_R   0.750239 0.609390 0.501265 0.855139
C20   C     C_R   0.749791 0.390482 0.500108 0.849297
C21   C     C_R   0.249977 0.391432 0.999803 0.820706
C22   C     C_R   0.249939 0.608566 0.000000 0.813881
C23   C     C_R   0.750136 0.891462 0.500023 0.842422
C24   C     C_R   0.750204 0.108600 0.500257 0.763852
C25   C     C_3   0.185504 0.469808 0.045209 -0.356291
C26   C     C_3   0.244328 0.529921 0.919872 -0.343344
C27   C     C_3   0.184685 0.529679 0.044178 -0.343643
C28   C     C_3   0.242920 0.470433 0.919789 -0.361858
C29   C     C_3   0.760867 0.970054 0.579865 -0.347002
C30   C     C_3   0.677593 0.030088 0.470403 -0.397915
C31   C     C_3   0.760755 0.029600 0.580096 -0.350071
C32   C     C_3   0.677505 0.970193 0.470456 -0.311359
H1    H     H_    0.189806 0.455946 0.103036 0.221175
H2    H     H_    0.291227 0.543796 0.886800 0.205974
H3    H     H_    0.186681 0.544265 0.101612 0.234114
H4    H     H_    0.288147 0.456003 0.885210 0.204491
H5    H     H_    0.812927 0.955826 0.603002 0.223539
H6    H     H_    0.668820 0.044567 0.413405 0.212638
H7    H     H_    0.812742 0.043993 0.603404 0.221686
H8    H     H_    0.668315 0.956249 0.413657 0.250845
H9    H     H_    0.133559 0.454859 0.022763 0.216098
H10   H     H_    0.194349 0.544509 0.892954 0.238218
H11   H     H_    0.133232 0.543565 0.019284 0.208862
H12   H     H_    0.191463 0.456664 0.894603 0.219351
H13   H     H_    0.716699 0.955646 0.616188 0.219894
H14   H     H_    0.631987 0.044385 0.504540 0.193286
H15   H     H_    0.716451 0.043417 0.616367 0.199655
H16   H     H_    0.631923 0.955649 0.504670 0.224700
H17   H     H_    0.328969 0.454741 0.089095 0.235086
H18   H     H_    0.368285 0.545459 0.004169 0.211240
H19   H     H_    0.325362 0.543319 0.092479 0.233848
H20   H     H_    0.368177 0.456705 0.999330 0.200827
H21   H     H_    0.865512 0.956068 0.472818 0.226559
H22   H     H_    0.806286 0.044868 0.395200 0.227189
H23   H     H_    0.865309 0.044918 0.473603 0.235024
H24   H     H_    0.806494 0.956647 0.394583 0.231930
C33   C     C_3   0.321424 0.470104 0.032602 -0.358144
C34   C     C_3   0.320647 0.530018 0.034566 -0.350423
C35   C     C_3   0.812659 0.970519 0.452078 -0.330795
C36   C     C_3   0.812609 0.030372 0.452467 -0.308414
C37   C     C_3   0.249905 0.449131 0.999359 0.103104
C38   C     C_3   0.249898 0.550861 0.999705 0.085253
C39   C     C_3   0.750289 0.949218 0.500507 0.058435
C40   C     C_3   0.750278 0.050953 0.500885 0.094991
C41   C     C_R   0.017714 0.341382 0.839891 0.286801
C42   C     C_R   0.136027 0.717783 0.298076 0.274184
C43   C     C_R   0.995789 0.668823 0.860167 0.313944
C44   C     C_R   0.105664 0.327391 0.265951 0.279289
C45   C     C_R   0.597465 0.834880 0.240559 0.309019
C46   C     C_R   0.639322 0.288190 0.795774 0.288827
C47   C     C_R   0.625944 0.188507 0.216804 0.301181
C48   C     C_R   0.495380 0.828904 0.636922 0.283726
C49   C     C_R   0.990734 0.388874 0.815072 -0.240396
C50   C     C_R   0.159160 0.732998 0.368007 -0.242157
C51   C     C_R   0.932054 0.640513 0.870902 -0.187301
C52   C     C_R   0.081221 0.376854 0.285652 -0.265569
C53   C     C_R   0.619431 0.852883 0.171162 -0.215616
C54   C     C_R   0.643948 0.322095 0.855642 -0.213808
C55   C     C_R   0.611105 0.139665 0.186767 -0.269538
C56   C     C_R   0.434846 0.860769 0.631262 -0.213347
C57   C     C_R   0.593972 0.829575 0.106950 0.329040
C58   C     C_R   0.582924 0.334432 0.897021 0.316139
C59   C     C_R   0.540171 0.125268 0.169612 0.289924
C60   C     C_R   0.377293 0.855641 0.679805 0.280505
C61   C     C_R   0.951634 0.392131 0.749800 0.302155
C62   C     C_R   0.112380 0.758945 0.415254 0.323933
C63   C     C_R   0.870148 0.651202 0.829916 0.330516
C64   C     C_R   0.008306 0.385166 0.302056 0.307532
C65   C     C_R   0.540637 0.791213 0.112812 -0.143579
C66   C     C_R   0.517302 0.310255 0.879937 -0.230418
C67   C     C_R   0.485646 0.162673 0.175085 -0.168336
C68   C     C_R   0.383206 0.821282 0.738906 -0.241284
C69   C     C_R   0.933973 0.346424 0.712711 -0.171857
C70   C     C_R   0.040140 0.765324 0.393625 -0.196239
C71   C     C_R   0.874771 0.687071 0.772321 -0.125602
C72   C     C_R   0.961978 0.342123 0.306055 -0.193853
C73   C     C_R   0.515418 0.774110 0.182018 -0.000801
C74   C     C_R   0.510427 0.277677 0.817979 -0.004301
C75   C     C_R   0.500493 0.213277 0.200765 -0.031967
C76   C     C_R   0.442870 0.787617 0.745875 0.012809
C77   C     C_R   0.963237 0.297935 0.734137 0.000338
C78   C     C_R   0.017059 0.751108 0.322250 -0.007953
C79   C     C_R   0.938992 0.715014 0.758295 -0.006548
C80   C     C_R   0.986939 0.291922 0.288229 -0.019575
C81   C     C_R   0.011278 0.296402 0.794556 -0.040084
C82   C     C_R   0.068728 0.736176 0.270410 -0.024754
C83   C     C_R   0.998119 0.709977 0.807154 -0.015959
C84   C     C_R   0.054055 0.287087 0.253809 -0.040216
C85   C     C_R   0.552978 0.789681 0.245693 -0.012435
C86   C     C_R   0.570053 0.271041 0.770548 -0.031225
C87   C     C_R   0.567225 0.221703 0.235111 -0.029103
C88   C     C_R   0.498839 0.789470 0.692623 -0.041399
C89   C     C_R   0.455112 0.740582 0.188601 -0.116063
C90   C     C_R   0.444913 0.251624 0.803049 -0.036827
C91   C     C_R   0.451804 0.255619 0.192763 -0.076577
C92   C     C_R   0.444661 0.750032 0.802625 -0.016524
C93   C     C_R   0.946139 0.251228 0.696445 -0.051393
C94   C     C_R   0.943649 0.750151 0.302001 -0.043553
C95   C     C_R   0.942997 0.750501 0.699193 -0.049941
C96   C     C_R   0.948313 0.246333 0.306069 -0.050615
C97   C     C_R   0.447467 0.710110 0.252825 0.021834
C98   C     C_R   0.434098 0.225477 0.735928 0.038110
C99   C     C_R   0.468724 0.303931 0.228040 0.045805
C100  C     C_R   0.494245 0.708828 0.800401 0.047256
C101  C     C_R   0.985362 0.205252 0.710317 0.034770
C102  C     C_R   0.923060 0.744297 0.227438 0.037955
C103  C     C_R   0.994808 0.790503 0.699682 0.041132
C104  C     C_R   0.970953 0.197690 0.277525 0.047545
C105  C     C_R   0.039781 0.205402 0.764410 0.029438
C106  C     C_R   0.976986 0.744057 0.172679 0.029090
C107  C     C_R   0.048093 0.791210 0.754942 0.023533
C108  C     C_R   0.024414 0.196906 0.222132 0.042855
C109  C     C_R   0.485954 0.723995 0.316332 0.011918
C110  C     C_R   0.489911 0.225144 0.683299 0.029280
C111  C     C_R   0.526906 0.305761 0.278795 0.042739
C112  C     C_R   0.545568 0.707109 0.743482 0.014439
C113  C     C_R   0.052189 0.250713 0.806316 -0.080174
C114  C     C_R   0.050893 0.741466 0.194297 -0.091487
C115  C     C_R   0.053258 0.748730 0.804704 -0.067714
C116  C     C_R   0.064769 0.243070 0.207858 -0.085103
C117  C     C_R   0.544977 0.759201 0.310731 -0.076812
C118  C     C_R   0.557387 0.248605 0.700064 -0.084484
C119  C     C_R   0.570959 0.261547 0.288226 -0.076653
C120  C     C_R   0.552498 0.749965 0.694558 -0.096470
C121  C     C_R   0.405382 0.664321 0.254532 -0.182997
C122  C     C_R   0.368260 0.199827 0.720157 -0.293139
C123  C     C_R   0.431043 0.350783 0.213652 -0.215892
C124  C     C_R   0.490746 0.667641 0.851876 -0.270848
C125  C     C_R   0.974180 0.159773 0.668274 -0.276449
C126  C     C_R   0.849959 0.737746 0.206411 -0.266441
C127  C     C_R   0.991851 0.831427 0.648072 -0.211077
C128  C     C_R   0.942464 0.149826 0.303062 -0.238251
C129  C     C_R   0.390950 0.638153 0.320767 0.270275
C130  C     C_R   0.356845 0.174651 0.653089 0.251835
C131  C     C_R   0.445007 0.396267 0.253032 0.269447
C132  C     C_R   0.530429 0.622209 0.842203 0.274111
C133  C     C_R   0.015489 0.115083 0.679654 0.262473
C134  C     C_R   0.828950 0.736986 0.132563 0.265636
C135  C     C_R   0.037339 0.874466 0.653341 0.293578
C136  C     C_R   0.958130 0.103162 0.268024 0.296444
C137  C     C_R   0.070930 0.115930 0.732378 0.296011
C138  C     C_R   0.881841 0.743764 0.077713 0.260520
C139  C     C_R   0.086592 0.877689 0.712212 0.294430
C140  C     C_R   0.005008 0.102804 0.207523 0.240274
C141  C     C_R   0.414877 0.660692 0.387035 0.225401
C142  C     C_R   0.411693 0.175628 0.599433 0.263701
C143  C     C_R   0.500791 0.397060 0.305345 0.254219
C144  C     C_R   0.577543 0.618571 0.781898 0.328072
C145  C     C_R   0.082357 0.160407 0.774150 -0.224332
C146  C     C_R   0.955140 0.743651 0.098036 -0.233298
C147  C     C_R   0.093544 0.835308 0.760386 -0.219905
C148  C     C_R   0.039140 0.149132 0.186879 -0.210925
C149  C     C_R   0.463048 0.702689 0.384056 -0.210914
C150  C     C_R   0.477679 0.199974 0.615440 -0.274338
C151  C     C_R   0.543308 0.352870 0.314755 -0.254428
C152  C     C_R   0.586791 0.661420 0.735139 -0.210977
H25   H     H_    0.999236 0.423319 0.847822 0.220445
H26   H     H_    0.211776 0.720913 0.387687 0.227404
H27   H     H_    0.930677 0.610839 0.913151 0.209408
H28   H     H_    0.119696 0.408251 0.291901 0.237956
H29   H     H_    0.655233 0.886056 0.167207 0.232148
H30   H     H_    0.696496 0.335987 0.873166 0.220593
H31   H     H_    0.655053 0.113348 0.175193 0.235069
H32   H     H_    0.431859 0.888479 0.586486 0.219443
H33   H     H_    0.520813 0.773308 0.063054 0.195386
H34   H     H_    0.471144 0.317918 0.914641 0.165559
H35   H     H_    0.431687 0.151568 0.160437 0.250106
H36   H     H_    0.338687 0.819279 0.777328 0.155602
H37   H     H_    0.898662 0.350108 0.666035 0.226225
H38   H     H_    0.002367 0.781934 0.432232 0.173819
H39   H     H_    0.826763 0.695031 0.740598 0.204792
H40   H     H_    0.906502 0.348050 0.322682 0.184246
H41   H     H_    0.386933 0.647065 0.203808 0.206907
H42   H     H_    0.325249 0.198337 0.760380 0.166946
H43   H     H_    0.392799 0.354665 0.169530 0.197638
H44   H     H_    0.453508 0.668799 0.897636 0.165168
H45   H     H_    0.933625 0.158333 0.625599 0.177469
H46   H     H_    0.808278 0.731517 0.246998 0.190344
H47   H     H_    0.953373 0.830941 0.603228 0.155582
H48   H     H_    0.908433 0.147316 0.351049 0.178201
H49   H     H_    0.127209 0.159596 0.812269 0.165316
H50   H     H_    0.994262 0.742898 0.054317 0.221906
H51   H     H_    0.133877 0.838045 0.803270 0.172492
H52   H     H_    0.079896 0.145558 0.145458 0.232779
H53   H     H_    0.479997 0.720018 0.435306 0.230558
H54   H     H_    0.519141 0.199273 0.573621 0.172175
H55   H     H_    0.590606 0.356591 0.349080 0.199410
H56   H     H_    0.624882 0.657606 0.690695 0.212799
H57   H     H_    0.179936 0.046360 0.249729 0.214507
H58   H     H_    0.170445 0.952943 0.247014 0.215318
H59   H     H_    0.789651 0.541829 0.755225 0.221378
H60   H     H_    0.750293 0.451456 0.757076 0.200524
C153  C     C_R   0.292647 0.054789 0.875537 -0.097480
C154  C     C_R   0.295702 0.947240 0.875837 -0.098605
C155  C     C_R   0.741756 0.554459 0.366990 -0.127070
C156  C     C_R   0.744694 0.446675 0.366189 -0.052507
C157  C     C_R   0.314961 0.028435 0.813131 -0.034529
C158  C     C_R   0.317064 0.974767 0.813546 -0.019142
C159  C     C_R   0.739001 0.527836 0.300600 -0.067526
C160  C     C_R   0.740800 0.474026 0.300181 -0.031896
C161  C     C_R   0.273571 0.973327 0.940659 0.074756
C162  C     C_R   0.272696 0.027632 0.940648 0.084324
C163  C     C_R   0.746781 0.473006 0.434484 0.108262
C164  C     C_R   0.746145 0.527390 0.434885 0.086392
C165  C     C_R   0.251532 0.946203 0.004521 -0.096935
C166  C     C_R   0.251853 0.053844 0.005054 -0.074629
C167  C     C_R   0.748013 0.446041 0.502018 -0.090562
C168  C     C_R   0.751967 0.553580 0.502596 -0.101332
C169  C     C_R   0.232492 0.972111 0.070844 -0.066137
C170  C     C_R   0.234919 0.027205 0.071581 -0.039273
C171  C     C_R   0.748791 0.472043 0.570562 -0.049666
C172  C     C_R   0.759362 0.526394 0.570446 -0.057497
C173  C     C_R   0.211735 0.945335 0.137086 0.332740
C174  C     C_R   0.220572 0.053681 0.139279 0.328429
C175  C     C_R   0.740965 0.445747 0.639597 0.331118
C176  C     C_R   0.776759 0.551090 0.638514 0.353175
C177  C     C_R   0.187651 0.973150 0.197721 -0.131832
C178  C     C_R   0.192596 0.026439 0.199105 -0.159232
C179  C     C_R   0.754833 0.471674 0.704998 -0.112900
C180  C     C_R   0.775766 0.523077 0.704070 -0.052537
H61   H     H_    0.291331 0.096624 0.871724 0.114903
H62   H     H_    0.296902 0.905421 0.872183 0.120009
H63   H     H_    0.741059 0.596370 0.364300 0.108219
H64   H     H_    0.745334 0.404792 0.362993 0.091415
H65   H     H_    0.330561 0.049777 0.764284 0.173515
H66   H     H_    0.335118 0.954441 0.765297 0.173074
H67   H     H_    0.735852 0.549078 0.249294 0.165380
H68   H     H_    0.738871 0.453357 0.248580 0.159690
N1    N     N_R   0.999617 0.068912 0.638573 0.245509
O53   O     O_R   0.006672 0.023522 0.669081 -0.283391
O54   O     O_R   0.970410 0.072068 0.573646 -0.381975
N2    N     N_R   0.754557 0.726606 0.114376 0.236060
O55   O     O_R   0.738682 0.696899 0.058989 -0.282061
O56   O     O_R   0.703416 0.739089 0.159961 -0.420159
N3    N     N_R   0.030659 0.914939 0.599612 0.260134
O57   O     O_R   0.966788 0.932589 0.583287 -0.383482
O58   O     O_R   0.083486 0.923391 0.553948 -0.221678
N4    N     N_R   0.925642 0.056455 0.294679 0.216271
O59   O     O_R   0.875249 0.033541 0.256766 -0.315336
O60   O     O_R   0.950407 0.034692 0.354096 -0.357497
N5    N     N_R   0.353675 0.588902 0.319513 0.271843
O61   O     O_R   0.361764 0.555785 0.372936 -0.222169
O62   O     O_R   0.319809 0.573811 0.260576 -0.290649
N6    N     N_R   0.290453 0.146750 0.641596 0.237654
O63   O     O_R   0.291197 0.101169 0.611245 -0.265282
O64   O     O_R   0.230509 0.163596 0.670058 -0.384970
N7    N     N_R   0.404417 0.442132 0.236335 0.236354
O65   O     O_R   0.334671 0.439391 0.227791 -0.323109
O66   O     O_R   0.437479 0.485923 0.224037 -0.318294
N8    N     N_R   0.518028 0.579079 0.890875 0.238310
O67   O     O_R   0.508152 0.532767 0.864535 -0.308152
O68   O     O_R   0.505309 0.587153 0.960178 -0.377416
N9    N     N_R   0.219513 0.890555 0.147423 0.179631
O69   O     O_R   0.164879 0.863777 0.172004 -0.389643
O70   O     O_R   0.284135 0.871287 0.153984 -0.388444
N10   N     N_R   0.244241 0.105781 0.152831 0.176867
O71   O     O_R   0.312656 0.116184 0.146652 -0.381203
O72   O     O_R   0.204891 0.136493 0.192561 -0.423936
N11   N     N_R   0.713811 0.394024 0.645527 0.179755
O73   O     O_R   0.644968 0.386438 0.655580 -0.348512
O74   O     O_R   0.758485 0.355912 0.655625 -0.425694
N12   N     N_R   0.801591 0.603322 0.642476 0.175243
O75   O     O_R   0.870698 0.612703 0.644479 -0.354131
O76   O     O_R   0.755957 0.640342 0.655550 -0.470949
N13   N     N_R   0.119704 0.073356 0.740357 0.249572
O77   O     O_R   0.139186 0.057882 0.805504 -0.354757
O78   O     O_R   0.154475 0.056589 0.683217 -0.208481
N14   N     N_R   0.862074 0.752823 0.002110 0.241506
O79   O     O_R   0.801919 0.776404 0.986235 -0.259620
O80   O     O_R   0.909689 0.747266 0.950272 -0.405899
N15   N     N_R   0.126545 0.924427 0.726872 0.258332
O81   O     O_R   0.142339 0.936971 0.794189 -0.348413
O82   O     O_R   0.153213 0.952053 0.673535 -0.178926
N16   N     N_R   0.021184 0.055736 0.168381 0.222681
O83   O     O_R   0.017035 0.010701 0.200573 -0.298180
O84   O     O_R   0.043736 0.057877 0.100720 -0.360161
N17   N     N_R   0.389726 0.642503 0.457228 0.250570
O85   O     O_R   0.321591 0.631590 0.466580 -0.277500
O86   O     O_R   0.431788 0.644949 0.514495 -0.325978
N18   N     N_R   0.400511 0.153814 0.527702 0.241852
O87   O     O_R   0.338822 0.159628 0.494261 -0.264215
O88   O     O_R   0.454691 0.134621 0.491386 -0.378454
N19   N     N_R   0.514120 0.442017 0.349980 0.241610
O89   O     O_R   0.578409 0.451097 0.376062 -0.392910
O90   O     O_R   0.460299 0.469403 0.374100 -0.237872
N20   N     N_R   0.615672 0.571592 0.766565 0.240819
O91   O     O_R   0.648147 0.546150 0.818836 -0.276551
O92   O     O_R   0.618583 0.554392 0.699567 -0.374807
N21   N     N_R   0.044953 0.338993 0.913700 0.195322
O93   O     O_R   0.016800 0.306095 0.959990 -0.373026
O94   O     O_R   0.085307 0.376354 0.938742 -0.449802
N22   N     N_R   0.170842 0.673639 0.266392 0.254756
O95   O     O_R   0.132605 0.636963 0.236219 -0.324314
O96   O     O_R   0.240290 0.667897 0.272780 -0.359643
N23   N     N_R   0.057353 0.653439 0.902238 0.182178
O97   O     O_R   0.104110 0.622452 0.872469 -0.381898
O98   O     O_R   0.056289 0.658197 0.973350 -0.448742
N24   N     N_R   0.181557 0.316215 0.273982 0.244874
O99   O     O_R   0.202546 0.270051 0.293561 -0.319120
O100  O     O_R   0.229593 0.352971 0.267937 -0.320013
N25   N     N_R   0.612933 0.866682 0.303450 0.227699
O101  O     O_R   0.567646 0.868813 0.358024 -0.356652
O102  O     O_R   0.668507 0.897758 0.302950 -0.383698
N26   N     N_R   0.704753 0.262935 0.773877 0.220547
O103  O     O_R   0.708926 0.212881 0.782026 -0.335687
O104  O     O_R   0.764722 0.289343 0.770621 -0.359220
N27   N     N_R   0.699794 0.206633 0.218417 0.243439
O105  O     O_R   0.714135 0.255994 0.214052 -0.387543
O106  O     O_R   0.753153 0.173860 0.217895 -0.346471
N28   N     N_R   0.550730 0.836898 0.583400 0.184537
O107  O     O_R   0.596265 0.874816 0.592683 -0.412134
O108  O     O_R   0.542915 0.817163 0.518210 -0.397388
N29   N     N_R   0.619765 0.846329 0.036056 0.248292
O109  O     O_R   0.670542 0.881209 0.030796 -0.298251
O110  O     O_R   0.593742 0.826174 0.976105 -0.334805
N30   N     N_R   0.588523 0.368808 0.958997 0.242072
O111  O     O_R   0.649572 0.391517 0.974580 -0.316355
O112  O     O_R   0.532381 0.378446 0.999725 -0.389948
N31   N     N_R   0.524328 0.074083 0.142428 0.237891
O113  O     O_R   0.574747 0.039092 0.139208 -0.328171
O114  O     O_R   0.459220 0.061738 0.121455 -0.325167
N32   N     N_R   0.311191 0.883211 0.667204 0.223570
O115  O     O_R   0.307947 0.920583 0.619063 -0.293642
O116  O     O_R   0.252136 0.867904 0.699331 -0.384464
N33   N     N_R   0.929122 0.441655 0.721465 0.216252
O117  O     O_R   0.933254 0.483002 0.762030 -0.372650
O118  O     O_R   0.911640 0.446678 0.652534 -0.377274
N34   N     N_R   0.136520 0.774608 0.487007 0.247535
O119  O     O_R   0.203547 0.768277 0.506911 -0.311334
O120  O     O_R   0.092154 0.796553 0.532488 -0.383275
N35   N     N_R   0.802556 0.626301 0.847316 0.230819
O121  O     O_R   0.799848 0.588683 0.895116 -0.321304
O122  O     O_R   0.742411 0.643553 0.819529 -0.350402
N36   N     N_R   0.982938 0.436196 0.320521 0.235814
O123  O     O_R   0.025633 0.476238 0.314944 -0.316110
O124  O     O_R   0.916711 0.443243 0.342265 -0.391545

loop_
_geom_bond_atom_site_label_1
_geom_bond_atom_site_label_2
_geom_bond_distance
_ccdc_geom_bond_type
C13   C117  1.491145 S    
C106  C114  1.423680 A    
C163  C164  1.403067 A    
C83   C115  1.426109 A    
C138  N14   1.441945 S    
O26   C7    1.270731 A    
C166  C170  1.424642 A    
O30   C11   1.280450 A    
C30   H14   1.113119 S    
C169  C170  1.421895 A    
C23   C39   1.489951 S    
C154  H62   1.081411 S    
C21   C37   1.488418 S    
C170  C174  1.436877 A    
C146  H50   1.076544 S    
Zn12  O26   1.932658 S    
C122  C130  1.400668 A    
N29   O110  1.301766 A    
C54   C58   1.396103 A    
C105  C145  1.415368 A    
C50   H26   1.083009 S    
N4    O59   1.300831 A    
C64   N36   1.440292 S    
C29   H5    1.113314 S    
N33   O118  1.301512 A    
C99   C111  1.418240 A    
O11   C7    1.285082 A    
N18   O87   1.301386 A    
N13   O78   1.299966 A    
O34   C15   1.297153 A    
C174  N10   1.434228 S    
C44   N24   1.441085 S    
C56   H32   1.083453 S    
N3    O57   1.301141 A    
C29   C39   1.555326 S    
N26   O104  1.300815 A    
Zn1   O44   1.945718 S    
C25   H1    1.113234 S    
N7    O66   1.301333 A    
H20   C33   1.113180 S    
C167  C171  1.419078 A    
C76   C88   1.419592 A    
C46   C86   1.429688 A    
C161  C165  1.414132 A    
Zn5   O48   1.945718 S    
C61   C69   1.398553 A    
Zn6   O47   1.945716 S    
N24   O100  1.301436 A    
C124  C132  1.396905 A    
Zn7   O46   1.941976 S    
C9    C113  1.452538 S    
O16   C12   1.276047 A    
C173  C177  1.393417 A    
Zn16  O4    1.965207 S    
C55   H31   1.082357 S    
C112  C120  1.422342 A    
Zn1   O13   1.943335 S    
C100  C112  1.407017 A    
N6    O63   1.301331 A    
C26   C28   1.534724 S    
C143  C151  1.397023 A    
Zn4   O16   1.943944 S    
H24   C35   1.113101 S    
C28   H4    1.113523 S    
N25   O101  1.301678 A    
C137  C145  1.394371 A    
N23   O97   1.300046 A    
Zn6   O4    1.937601 S    
C78   C82   1.399984 A    
C130  C142  1.409156 A    
C42   C82   1.424349 A    
C60   N32   1.434326 S    
C155  C164  1.419504 A    
C174  C178  1.392913 A    
C30   H6    1.113248 S    
Zn10  O22   1.932658 S    
N34   O119  1.301751 A    
C84   C116  1.427602 A    
N17   O85   1.301461 A    
O25   C8    1.281536 A    
Zn13  O29   1.937280 S    
Zn10  O2    1.958894 S    
C11   C115  1.457117 S    
C158  H66   1.078693 S    
C126  H46   1.079585 S    
C46   N26   1.434113 S    
O29   C12   1.294620 A    
C68   C76   1.411940 A    
C131  N7    1.434805 S    
N12   O75   1.300475 A    
Zn16  O34   1.933750 S    
C35   C39   1.550414 S    
C47   C87   1.426071 A    
N7    O65   1.300787 A    
H19   C34   1.113235 S    
C33   C37   1.550526 S    
C130  N6    1.436592 S    
C70   H38   1.082298 S    
N19   O90   1.300532 A    
C121  H41   1.081070 S    
N15   O81   1.301328 A    
C82   C114  1.430003 A    
C141  N17   1.436766 S    
O37   C17   1.275453 A    
C90   C98   1.411775 A    
O48   C23   1.277200 A    
C41   C81   1.431135 A    
C126  C134  1.399106 A    
N2    O56   1.301239 A    
N22   O95   1.302080 A    
C135  C139  1.408196 A    
C44   C84   1.426576 A    
C73   C85   1.409729 A    
C3    C89   1.487709 S    
C55   C59   1.397520 A    
N35   O121  1.301638 A    
C74   C90   1.410160 A    
Zn16  O35   1.933684 S    
C103  C127  1.411506 A    
N29   O109  1.301599 A    
Zn15  O33   1.937280 S    
C101  C125  1.417782 A    
C26   C38   1.555665 S    
Zn7   O10   1.943902 S    
C176  N12   1.424028 S    
O33   C16   1.274281 A    
C53   H29   1.082352 S    
C24   C40   1.487085 S    
O40   C20   1.283415 A    
N16   O83   1.301098 A    
C110  C150  1.415476 A    
C71   H39   1.078483 S    
C86   C118  1.428485 A    
C137  N13   1.430557 S    
C159  H67   1.082546 S    
C88   C120  1.425334 A    
N20   O91   1.301267 A    
C48   C88   1.434927 A    
C67   C75   1.414241 A    
Zn5   O17   1.943335 S    
C27   C38   1.550086 S    
C49   H25   1.082941 S    
C129  N5    1.443573 S    
C99   C123  1.420582 A    
C133  N1    1.438136 S    
C25   C27   1.544615 S    
C165  C169  1.427476 A    
N5    O62   1.301916 A    
C111  C119  1.413833 A    
C121  C129  1.404871 A    
C109  C117  1.420995 A    
C27   H3    1.113157 S    
C103  C107  1.407515 A    
N9    O70   1.301205 A    
C61   N33   1.438547 S    
C32   H8    1.108848 S    
Zn8   O3    1.945075 S    
C132  N8    1.437404 S    
C164  C168  1.411847 A    
N30   O111  1.301675 A    
C65   C73   1.412391 A    
O38   C18   1.277851 A    
C98   C110  1.409264 A    
C63   C71   1.398041 A    
C134  C138  1.408604 A    
O5    C1    1.286361 A    
N3    O58   1.300804 A    
C59   C67   1.402110 A    
O32   C9    1.270141 A    
C52   C64   1.399034 A    
C173  N9    1.432572 S    
C66   H34   1.081909 S    
C51   C63   1.393601 A    
Zn15  O51   1.947423 S    
N14   O80   1.300219 A    
C161  C162  1.401034 A    
Zn11  O28   1.933496 S    
C50   C62   1.395344 A    
C26   H2    1.113645 S    
N32   O115  1.301694 A    
C97   C121  1.412513 A    
C142  C150  1.401364 A    
H58   C177  1.083465 S    
C2    C92   1.459241 S    
C12   C116  1.480718 S    
C1    C91   1.484761 S    
Zn7   O4    1.945076 S    
N8    O68   1.301380 A    
N36   O123  1.301629 A    
N28   O108  1.300903 A    
C72   C80   1.415467 A    
C151  H55   1.078626 S    
O8    C4    1.274686 A    
Zn9   O1    1.965515 S    
C129  C141  1.411292 A    
C162  C166  1.410627 A    
C94   C102  1.417816 A    
C56   C60   1.389873 A    
N10   O72   1.300202 A    
C107  C147  1.415754 A    
O50   C18   1.279848 A    
C145  H49   1.081061 S    
Zn1   O1    1.937602 S    
C19   C168  1.440294 S    
Zn13  O1    1.958585 S    
Zn2   O14   1.947451 S    
C20   C167  1.434291 S    
C63   N35   1.438489 S    
C72   H40   1.081643 S    
C49   C61   1.392639 A    
C102  C106  1.411020 A    
C171  C175  1.432920 A    
C46   C54   1.402504 A    
O9    C5    1.276035 A    
N31   O114  1.301643 A    
O39   C19   1.274033 A    
O36   C13   1.288190 A    
N21   O94   1.300495 A    
C176  C180  1.392723 A    
O13   C9    1.280692 A    
N10   O71   1.297445 A    
O7    C3    1.285701 A    
C108  C116  1.426285 A    
C30   C40   1.549248 S    
Zn2   O7    1.943292 S    
C152  H56   1.078469 S    
C169  C173  1.439129 A    
C28   C37   1.552548 S    
Zn3   O6    1.943902 S    
N4    O60   1.300223 A    
O18   C14   1.271413 A    
O31   C10   1.297370 A    
H17   C33   1.109463 S    
O6    C2    1.278199 A    
C80   C84   1.397371 A    
C125  C133  1.399864 A    
C14   C118  1.464882 S    
C136  N4    1.427945 S    
C75   C87   1.399536 A    
C62   N34   1.438875 S    
N33   O117  1.301719 A    
C135  N3    1.433272 S    
C105  C113  1.416260 A    
C32   H16   1.111983 S    
C67   H35   1.070989 S    
N18   O88   1.301594 A    
N13   O77   1.300672 A    
Zn14  O30   1.933750 S    
Zn15  O3    1.958585 S    
Zn11  O3    1.965515 S    
O41   C21   1.275069 A    
C31   C40   1.553679 S    
C127  H47   1.082416 S    
C45   C53   1.404207 A    
N35   O122  1.300638 A    
C153  H61   1.081519 S    
H21   C35   1.112473 S    
C31   H15   1.113448 S    
C155  H63   1.082183 S    
C34   C38   1.550562 S    
N19   O89   1.300599 A    
C128  C136  1.396078 A    
Zn8   O20   1.943944 S    
C149  H53   1.081754 S    
N1    O54   1.301314 A    
H57   C178  1.083259 S    
C106  C146  1.417205 A    
C43   N23   1.427989 S    
C89   C97   1.413122 A    
C92   C100  1.407058 A    
C74   C86   1.412728 A    
C71   C79   1.410194 A    
C153  C162  1.422773 A    
H60   C179  1.083373 S    
C142  N18   1.438426 S    
Zn8   O9    1.943733 S    
C175  N11   1.427700 S    
C25   C37   1.552572 S    
O15   C11   1.282216 A    
C112  C152  1.414798 A    
C62   C70   1.402470 A    
C6    C96   1.462300 S    
C153  C157  1.390162 A    
C155  C159  1.393299 A    
C179  C180  1.380100 A    
C41   N21   1.435562 S    
C156  C160  1.392904 A    
C124  H44   1.082085 S    
C107  C115  1.422341 A    
N11   O73   1.300547 A    
C59   N31   1.440954 S    
O44   C21   1.273339 A    
C18   C165  1.437523 S    
C26   H10   1.111762 S    
Zn9   O24   1.933496 S    
C133  C137  1.403816 A    
Zn6   O18   1.947451 S    
C91   C99   1.437629 A    
Zn10  O23   1.937029 S    
N34   O120  1.299236 A    
C171  C172  1.414939 A    
C108  C148  1.419209 A    
C157  C158  1.385121 A    
C123  H43   1.074222 S    
C42   C50   1.399728 A    
C159  C160  1.388685 A    
C70   C78   1.416442 A    
C78   C94   1.406581 A    
Zn15  O36   1.932912 S    
N12   O76   1.299656 A    
O42   C22   1.272000 A    
Zn4   O1    1.945075 S    
C30   C32   1.545069 S    
C33   C34   1.546259 S    
Zn9   O37   1.944035 S    
C35   C36   1.544038 S    
O12   C8    1.273955 A    
C136  C140  1.402591 A    
Zn11  O39   1.944035 S    
C66   C74   1.414629 A    
N22   O96   1.298489 A    
O19   C15   1.278487 A    
C58   C66   1.397815 A    
Zn2   O43   1.945716 S    
O51   C19   1.285168 A    
C122  H42   1.082312 S    
N6    O64   1.301195 A    
N26   O103  1.301671 A    
C45   N25   1.439027 S    
N27   O105  1.301861 A    
C16   C120  1.458508 S    
Zn5   O3    1.937602 S    
C79   C95   1.411660 A    
C31   H7    1.113591 S    
C41   C49   1.397646 A    
C68   H36   1.081961 S    
N24   O99   1.302093 A    
C132  C144  1.406078 A    
C44   C52   1.403329 A    
C148  H52   1.071307 S    
H59   C180  1.081351 S    
N16   O84   1.301787 A    
C51   H27   1.083177 S    
H22   C36   1.112288 S    
O28   C5    1.286314 A    
N20   O92   1.300771 A    
C77   C93   1.423373 A    
C22   C38   1.488621 S    
Zn3   O42   1.941976 S    
C168  C172  1.424556 A    
C134  N2    1.439223 S    
C177  C178  1.377704 A    
O21   C4    1.281142 A    
N25   O102  1.301228 A    
C81   C113  1.418248 A    
C127  C135  1.394147 A    
C57   C65   1.398606 A    
C53   C57   1.397132 A    
C172  C176  1.431358 A    
C60   C68   1.395611 A    
Zn2   O2    1.937601 S    
N5    O61   1.300693 A    
Zn14  O2    1.965207 S    
C163  C167  1.410272 A    
C104  C108  1.413365 A    
C48   C56   1.394750 A    
C10   C114  1.476542 S    
C156  H64   1.082323 S    
C32   C39   1.550841 S    
C102  C126  1.414418 A    
Zn13  O49   1.947423 S    
N9    O69   1.300764 A    
C28   H12   1.113511 S    
C47   C55   1.401605 A    
C54   H30   1.082781 S    
N30   O112  1.301873 A    
Zn12  O27   1.937029 S    
N17   O86   1.301598 A    
C111  C151  1.414458 A    
C87   C119  1.415462 A    
C109  C149  1.412649 A    
Zn3   O2    1.945076 S    
C139  C147  1.404918 A    
C104  C128  1.417590 A    
C85   C117  1.426154 A    
N14   O79   1.301540 A    
C75   C91   1.425003 A    
C156  C163  1.419556 A    
C76   C92   1.414373 A    
O46   C24   1.275627 A    
O47   C24   1.271998 A    
N31   O113  1.301670 A    
Zn16  O52   1.944077 S    
N32   O116  1.299034 A    
C42   N22   1.433732 S    
Zn8   O45   1.941979 S    
O27   C6    1.284684 A    
C157  H65   1.082853 S    
N36   O124  1.301293 A    
Zn12  O4    1.958894 S    
C7    C93   1.460918 S    
C110  C118  1.418451 A    
C36   C40   1.548669 S    
C4    C90   1.457561 S    
C29   C31   1.536109 S    
C58   N30   1.441234 S    
O24   C1    1.292053 A    
C150  H54   1.081464 S    
C175  C179  1.391062 A    
C97   C109  1.403942 A    
C79   C83   1.414745 A    
C57   N29   1.440627 S    
O43   C22   1.276456 A    
C43   C83   1.432379 A    
Zn4   O41   1.941979 S    
Zn3   O15   1.943777 S    
N23   O98   1.301007 A    
C65   H33   1.081490 S    
N11   O74   1.298842 A    
Zn5   O12   1.947406 S    
C154  C161  1.422146 A    
Zn6   O11   1.943292 S    
Zn9   O21   1.933433 S    
Zn14  O50   1.944077 S    
N15   O82   1.298809 A    
C98   C122  1.413457 A    
O35   C14   1.291421 A    
C96   C104  1.424593 A    
N21   O93   1.301343 A    
Zn12  O40   1.947380 S    
C131  C143  1.403338 A    
Zn1   O8    1.947406 S    
C141  C149  1.401108 A    
C48   N28   1.427947 S    
C154  C158  1.392391 A    
C52   H28   1.082463 S    
O52   C20   1.272326 A    
C138  C146  1.404806 A    
C160  H68   1.082504 S    
C29   H13   1.113460 S    
C128  H48   1.078906 S    
C144  N20   1.432914 S    
C8    C94   1.454719 S    
C69   H37   1.075136 S    
O22   C3    1.286795 A    
C77   C81   1.413591 A    
C95   C103  1.405743 A    
Zn7   O19   1.943777 S    
O20   C16   1.284699 A    
C93   C101  1.414194 A    
C123  C131  1.400542 A    
Zn13  O32   1.932912 S    
O49   C17   1.281289 A    
Zn14  O31   1.933684 S    
C125  H45   1.079863 S    
C147  H51   1.081447 S    
C73   C89   1.413874 A    
N2    O55   1.301548 A    
C144  C152  1.402478 A    
C69   C77   1.417774 A    
C27   H11   1.113239 S    
Zn4   O5    1.943733 S    
N27   O106  1.301853 A    
C143  N19   1.439132 S    
H23   C36   1.111957 S    
C80   C96   1.410785 A    
C101  C105  1.407224 A    
C17   C166  1.437365 S    
C140  N16   1.442801 S    
C43   C51   1.397935 A    
O10   C6    1.276137 A    
O23   C2    1.278260 A    
Zn11  O25   1.933433 S    
C139  N15   1.437583 S    
N1    O53   1.300792 A    
Zn10  O38   1.947380 S    
C5    C95   1.460091 S    
O14   C10   1.270788 A    
C45   C85   1.427460 A    
C64   C72   1.401803 A    
N8    O67   1.301328 A    
C25   H9    1.111882 S    
C140  C148  1.399819 A    
C47   N27   1.442380 S    
N28   O107  1.299873 A    
H18   C34   1.112658 S    
O17   C13   1.285722 A    
C100  C124  1.415167 A    
C15   C119  1.484722 S    
O45   C23   1.271987 A    
