data_mof_unit_18539.cif
_audit_creation_date              2013-03-05T15:53:27-0500
_audit_creation_method            fapswitch 2.2
_symmetry_space_group_name_H-M    P1
_symmetry_Int_Tables_number       1
_space_group_crystal_system       triclinic
_cell_length_a                    14.096856
_cell_length_b                    10.624148
_cell_length_c                    10.010863
_cell_angle_alpha                 88.04832
_cell_angle_beta                  89.21817
_cell_angle_gamma                 90.643294
_cell_volume                      1498.18597351

loop_
_atom_site_label
_atom_site_type_symbol
_atom_site_description
_atom_site_fract_x
_atom_site_fract_y
_atom_site_fract_z
_atom_type_partial_charge
O1    O     O_R   0.500000 0.316780 0.614690 -0.578871
O2    O     O_R   0.499990 0.316750 0.385360 -0.566901
C1    C     C_R   0.514439 0.261871 0.502773 0.921746
O3    O     O_R   0.373720 0.500010 0.614690 -0.581719
O4    O     O_R   0.373710 0.499990 0.385360 -0.610874
C2    C     C_R   0.329562 0.498565 0.500797 0.932337
Zn1   Zn    Zn3+2 0.500010 0.500020 0.653130 1.076348
Zn2   Zn    Zn3+2 0.499990 0.499980 0.346870 1.103429
O5    O     O_R   0.500010 0.683250 0.614640 -0.588565
O6    O     O_R   0.500000 0.683220 0.385310 -0.542815
O7    O     O_R   0.626290 0.500010 0.614640 -0.559639
O8    O     O_R   0.626280 0.499990 0.385310 -0.569569
C3    C     C_R   0.498607 0.740696 0.497705 0.967289
C4    C     C_R   0.670457 0.500066 0.499279 0.900212
C5    C     C_1   0.227981 0.497037 0.502328 -0.061685
C6    C     C_1   0.142605 0.496566 0.502445 0.098622
C7    C     C_1   0.042671 0.496773 0.501480 0.115879
C8    C     C_1   0.957303 0.497356 0.500176 0.107364
C9    C     C_1   0.857364 0.498312 0.498702 0.100449
C10   C     C_1   0.771993 0.499172 0.498197 -0.018401
C11   C     C_R   0.517257 0.095726 0.759892 0.262970
C12   C     C_R   0.456334 0.040985 0.859496 0.181452
C13   C     C_R   0.389194 0.948900 0.822256 0.170019
C14   C     C_R   0.396979 0.896267 0.694815 0.205397
C15   C     C_R   0.468175 0.941709 0.603887 -0.088574
C16   C     C_R   0.509671 0.057426 0.626593 -0.092084
C17   C     C_R   0.539396 0.129596 0.512505 -0.183823
C18   C     C_R   0.573324 0.068914 0.399459 0.223717
C19   C     C_R   0.562370 0.938647 0.395607 0.276278
C20   C     C_R   0.503219 0.876255 0.493289 -0.176001
C21   C     C_R   0.333579 0.560774 0.120280 0.284293
C22   C     C_R   0.247185 0.534129 0.059640 -0.255302
H1    H     H_    0.182086 0.573379 0.097956 0.239399
C23   C     C_R   0.244429 0.459459 0.947697 0.240139
C24   C     C_R   0.330423 0.427284 0.883771 0.250909
C25   C     C_R   0.417620 0.473689 0.933922 0.018205
C26   C     C_R   0.416793 0.504843 0.071064 -0.025730
N1    N     N_R   0.499190 0.498800 0.142780 -0.122877
C27   C     C_R   0.582014 0.515906 0.066898 0.306364
C28   C     C_R   0.580236 0.524809 0.924617 0.316792
N2    N     N_R   0.499160 0.498720 0.857170 -0.149106
Br1   Br    Br    0.648013 0.159242 0.263592 -0.258348
N3    N     N_R   0.153960 0.424492 0.895252 0.232944
O9    O     O_R   0.130799 0.306316 0.885667 -0.263379
O10   O     O_R   0.088437 0.509001 0.881025 -0.308950
Br2   Br    Br    0.325800 0.283654 0.772833 -0.379644
N4    N     N_R   0.663002 0.568195 0.852334 0.241666
O11   O     O_R   0.666636 0.682850 0.802454 -0.326798
O12   O     O_R   0.737732 0.497667 0.846132 -0.295617
Br3   Br    Br    0.625796 0.195916 0.808979 -0.285703
N5    N     N_R   0.458710 0.083168 0.994810 0.276824
O13   O     O_R   0.474849 0.200932 0.018859 -0.343556
O14   O     O_R   0.438686 0.005788 0.094853 -0.252534
N6    N     N_R   0.311447 0.913826 0.910591 0.287850
O15   O     O_R   0.286331 0.796352 0.928823 -0.321350
O16   O     O_R   0.262754 0.000085 0.969076 -0.233026
Br4   Br    Br    0.295225 0.792599 0.631058 -0.344291
N7    N     N_R   0.617903 0.869619 0.302405 0.247111
O17   O     O_R   0.685827 0.797917 0.345925 -0.355140
O18   O     O_R   0.606573 0.886143 0.174338 -0.240261
Br5   Br    Br    0.703520 0.554829 0.141390 -0.225385
N8    N     N_R   0.339739 0.671017 0.198804 0.258076
O19   O     O_R   0.266772 0.706241 0.268699 -0.348379
O20   O     O_R   0.407609 0.752341 0.172569 -0.289183

loop_
_geom_bond_atom_site_label_1
_geom_bond_atom_site_label_2
_geom_bond_distance
_ccdc_geom_bond_type
O4    Zn2   1.816231 S    
N5    O14   1.299820 A    
C11   C16   1.413375 A    
C28   N2    1.365899 A    
C19   C20   1.418485 A    
C23   C24   1.413839 A    
C28   N4    1.428123 S    
C21   C22   1.398581 A    
Zn2   O8    1.826532 S    
C22   H1    1.083074 S    
C1    C17   1.452879 S    
O2    C1    1.313598 A    
C25   N2    1.391931 A    
N4    O12   1.301616 A    
C11   C12   1.412792 A    
C14   C15   1.415348 A    
Zn1   O7    1.816231 S    
N3    O10   1.301174 A    
C21   N8    1.435122 S    
C16   C17   1.409969 A    
N8    O19   1.301724 A    
Zn2   N1    2.043767 S    
O3    Zn1   1.826533 S    
C18   Br1   1.931024 S    
C18   C19   1.392737 A    
C15   C16   1.382674 A    
C26   N1    1.374786 A    
O8    C4    1.307280 A    
C7    C8    1.203751 T    
C11   Br3   1.932644 S    
Zn1   N2    2.042063 S    
N3    O9    1.300766 A    
C12   N5    1.441936 S    
O4    C2    1.304599 A    
C27   Br5   1.923775 S    
O7    C4    1.304487 A    
N6    O16   1.301355 A    
C2    C5    1.431749 S    
C5    C6    1.203476 T    
C23   N3    1.435636 S    
C13   C14   1.413699 A    
N7    O18   1.300343 A    
N5    O13   1.300270 A    
N4    O11   1.300860 A    
C4    C10   1.431369 S    
C3    C20   1.440091 S    
C15   C20   1.413745 A    
N1    C27   1.391013 A    
C19   N7    1.435549 S    
C13   N6    1.436649 S    
O3    C2    1.306921 A    
C8    C9    1.409249 S    
C14   Br4   1.927527 S    
C27   C28   1.424855 A    
Zn1   O5    1.971515 S    
O5    C3    1.302102 A    
N6    O15   1.299659 A    
C25   C26   1.423075 A    
N8    O20   1.299991 A    
O1    C1    1.295361 A    
N7    O17   1.300806 A    
O1    Zn1   1.997252 S    
C24   Br2   1.918680 S    
O6    C3    1.298354 A    
Zn2   O6    1.997252 S    
O2    Zn2   1.971516 S    
C12   C13   1.416180 A    
C9    C10   1.203678 T    
C21   C26   1.411291 A    
C6    C7    1.408955 S    
C17   C18   1.402471 A    
C24   C25   1.423432 A    
C22   C23   1.395603 A    
