data_mof_unit_33915.cif
_audit_creation_date              2012-12-11T15:53:39-0500
_audit_creation_method            fapswitch 2.2
_symmetry_space_group_name_H-M    P1
_symmetry_Int_Tables_number       1
_space_group_crystal_system       triclinic
_cell_length_a                    6.965373
_cell_length_b                    14.537508
_cell_length_c                    16.016232
_cell_angle_alpha                 90.310806
_cell_angle_beta                  90.13494
_cell_angle_gamma                 89.688372
_cell_volume                      1621.73805523

loop_
_atom_site_label
_atom_site_type_symbol
_atom_type_description
_atom_site_fract_x
_atom_site_fract_y
_atom_site_fract_z
_atom_type_partial_charge
O1    O     O_R   0.361600 0.167310 0.164620 -0.537253
O2    O     O_R   0.638400 0.832690 0.835380 -0.542145
O3    O     O_R   0.691080 0.157570 0.338750 -0.511323
O4    O     O_R   0.308920 0.842430 0.661250 -0.511728
O5    O     O_R   0.861410 0.336420 0.339360 -0.543939
O6    O     O_R   0.138590 0.663580 0.660640 -0.544100
C1    C     C_R   0.522992 0.134071 0.366367 0.784011
C2    C     C_R   0.477038 0.865945 0.633658 0.786932
O7    O     O_R   0.691320 0.156280 0.165240 -0.551584
O8    O     O_R   0.308680 0.843720 0.834760 -0.551505
O9    O     O_R   0.861640 0.335130 0.164600 -0.553568
O10   O     O_R   0.138360 0.664870 0.835400 -0.534639
C3    C     C_R   0.523357 0.132543 0.137240 0.736424
C4    C     C_R   0.476499 0.864503 0.865096 0.740743
O11   O     O_R   0.361370 0.168600 0.339370 -0.539012
O12   O     O_R   0.638630 0.831400 0.660630 -0.541248
O13   O     O_3   0.527990 0.310540 0.251980 -0.382913
O14   O     O_3   0.472010 0.689460 0.748020 -0.364591
V1    V     V_3+5 0.802830 0.240980 0.251990 1.518672
V2    V     V_3+5 0.197170 0.759020 0.748010 1.554556
O15   O     O_R   0.191360 0.346160 0.165220 -0.527031
O16   O     O_R   0.808640 0.653840 0.834780 -0.519648
C5    C     C_R   0.021941 0.368166 0.136312 0.782293
C6    C     C_R   0.977687 0.632791 0.864310 0.786282
O17   O     O_R   0.191130 0.347440 0.338740 -0.525266
O18   O     O_R   0.808870 0.652560 0.661260 -0.526120
C7    C     C_R   0.021949 0.369662 0.367252 0.817304
C8    C     C_R   0.977966 0.630297 0.632752 0.802522
V3    V     V_3+5 0.302840 0.262750 0.251990 1.539460
V4    V     V_3+5 0.697160 0.737250 0.748010 1.578720
O19   O     O_3   0.027820 0.193180 0.251990 -0.368262
O20   O     O_3   0.972180 0.806820 0.748010 -0.371985
C9    C     C_3   0.820703 0.479340 0.473240 -0.270917
C10   C     C_3   0.178796 0.520563 0.526677 -0.290320
C11   C     C_3   0.899680 0.464144 0.562652 0.358567
C12   C     C_3   0.099569 0.535738 0.437267 0.370891
H1    H     H_    0.672999 0.463048 0.451722 0.205256
H2    H     H_    0.326517 0.536818 0.548191 0.204916
C13   C     C_3   0.989197 0.560796 0.562717 -0.282637
C14   C     C_3   0.010257 0.439094 0.437287 -0.273925
C15   C     C_3   0.912400 0.576200 0.473588 0.378078
C16   C     C_3   0.086948 0.423679 0.526405 0.367949
C17   C     C_R   0.861898 0.572134 0.002354 0.329356
C18   C     C_R   0.134920 0.428635 0.997655 0.284526
C19   C     C_R   0.872262 0.508796 0.068754 0.193035
C20   C     C_R   0.126073 0.493101 0.931915 0.184024
C21   C     C_R   0.010463 0.436541 0.067090 -0.265750
C22   C     C_R   0.987881 0.564762 0.933596 -0.240985
C23   C     C_R   0.664055 0.000318 0.449070 0.421009
C24   C     C_R   0.336364 0.999933 0.551214 0.423705
C25   C     C_R   0.648323 0.937251 0.514285 -0.122498
C26   C     C_R   0.351856 0.062865 0.485860 -0.124180
H3    H     H_    0.763889 0.888157 0.523715 0.210887
H4    H     H_    0.236361 0.112007 0.476479 0.213253
C27   C     C_R   0.485718 0.935491 0.565985 -0.212919
C28   C     C_R   0.514425 0.064589 0.434113 -0.212313
C29   C     C_R   0.680367 0.017179 0.036334 0.293107
C30   C     C_R   0.319963 0.963754 0.978934 0.304997
C31   C     C_R   0.662747 0.958113 0.967522 -0.148974
C32   C     C_R   0.337436 0.032277 0.040107 -0.151244
H5    H     H_    0.788826 0.929845 0.939690 0.164465
H6    H     H_    0.211112 0.060647 0.067746 0.165113
C33   C     C_R   0.484515 0.930898 0.936661 -0.156010
C34   C     C_R   0.515702 0.061053 0.069796 -0.164132
Cl1   Cl    Cl    0.762192 0.415406 0.644788 -0.575613
Cl2   Cl    Cl    0.233488 0.583923 0.353744 -0.551414
Cl3   Cl    Cl    0.794858 0.677868 0.437969 -0.526890
Cl4   Cl    Cl    0.204297 0.322043 0.562195 -0.547673
Cl5   Cl    Cl    0.699676 0.666115 0.010222 -0.674286
Cl6   Cl    Cl    0.292554 0.333042 0.988435 -0.677497
N1    N     N_2   0.750369 0.522377 0.139330 -0.457886
H7    H     H_    0.809579 0.504816 0.196153 0.262780
C35   C     C_3   0.555204 0.490483 0.128556 -0.296560
H8    H     H_    0.471573 0.504966 0.186128 0.206632
H9    H     H_    0.553733 0.415420 0.116033 0.202581
H10   H     H_    0.483622 0.526042 0.075806 0.216375
N2    N     N_2   0.256768 0.486230 0.863673 -0.506014
H11   H     H_    0.393438 0.464767 0.879339 0.307460
C36   C     C_3   0.181671 0.440124 0.790415 -0.309101
H12   H     H_    0.288526 0.443418 0.739176 0.222983
H13   H     H_    0.047864 0.474295 0.768795 0.178243
H14   H     H_    0.151816 0.366817 0.804418 0.245257
Cl7   Cl    Cl    0.871773 0.992034 0.386651 -0.613318
Cl8   Cl    Cl    0.129935 0.008841 0.614405 -0.571343
N3    N     N_2   0.863507 0.025716 0.073573 -0.526086
H15   H     H_    0.912485 0.092226 0.076946 0.268442
C37   C     C_3   0.889463 0.971707 0.148696 -0.373623
H16   H     H_    0.792275 0.995801 0.199103 0.209598
H17   H     H_    0.039752 0.977454 0.171131 0.191998
H18   H     H_    0.858391 0.898144 0.135775 0.215826
N4    N     N_2   0.137887 0.923439 0.967317 -0.520344
H19   H     H_    0.086046 0.928380 0.907346 0.270721
C38   C     C_3   0.117717 0.833921 0.005774 -0.435680
H20   H     H_    0.967439 0.810534 0.999816 0.216056
H21   H     H_    0.155025 0.837807 0.073155 0.215230
H22   H     H_    0.212483 0.782047 0.975611 0.196758

loop_
_geom_bond_atom_site_label_1
_geom_bond_atom_site_label_2
_ccdc_geom_bond_type
C37   H16   S    
C38   H20   S    
C19   N1    S    
O13   V3    S    
C35   H8    S    
C10   C16   S    
O4    C2    A    
V1    O19   S    
C24   Cl8   S    
C15   Cl3   S    
N2    H11   S    
O9    V1    S    
O3    C1    A    
C12   Cl2   S    
C29   C31   A    
C11   Cl1   S    
O12   V4    S    
C32   H6    S    
C19   C21   A    
C11   C16   S    
O7    C3    A    
C9    C11   S    
O5    C7    A    
O7    V1    S    
O6    C8    A    
O8    V2    S    
C23   C25   A    
C24   C26   A    
O3    V1    S    
O14   V4    S    
C30   N4    S    
C25   C27   A    
C18   C21   A    
C26   H4    S    
N2    C36   S    
C2    O12   A    
C16   Cl4   S    
C35   H9    S    
C12   C15   S    
C1    C28   S    
C2    C27   S    
C18   C20   A    
O11   V3    S    
N3    C37   S    
O17   V3    S    
C20   C22   A    
C31   H5    S    
C9    C14   S    
C5    C21   S    
C10   C13   S    
C6    C22   S    
C12   C14   S    
C13   C15   S    
O8    C4    A    
N4    H19   S    
C36   H13   S    
C1    O11   A    
C8    C13   S    
N3    H15   S    
O15   V3    S    
C9    H1    S    
C25   H3    S    
C11   C13   S    
N4    C38   S    
C7    C14   S    
C17   C22   A    
O10   V2    S    
O1    V3    S    
C18   Cl6   S    
C17   C19   A    
O18   V4    S    
C38   H22   S    
O15   C5    A    
C35   H10   S    
O16   C6    A    
O1    C3    A    
C23   C28   A    
C29   C34   A    
N1    C35   S    
V2    O20   S    
C30   C33   A    
O16   V4    S    
C10   H2    S    
O18   C8    A    
C14   C16   S    
C36   H14   S    
O5    V1    S    
O17   C7    A    
C20   N2    S    
O6    V2    S    
O10   C6    A    
C31   C33   A    
C24   C27   A    
O2    V4    S    
C32   C34   A    
C9    C15   S    
C23   Cl7   S    
C37   H17   S    
N1    H7    S    
V3    O19   S    
V4    O20   S    
C38   H21   S    
C3    C34   S    
C4    C33   S    
O9    C5    A    
O13   V1    S    
C10   C12   S    
C29   N3    S    
O14   V2    S    
O2    C4    A    
C36   H12   S    
O4    V2    S    
C17   Cl5   S    
C37   H18   S    
C30   C32   A    
C26   C28   A    
