data_mof_unit_38383.cif
_audit_creation_date              2012-12-10T17:23:13-0500
_audit_creation_method            fapswitch 2.2
_symmetry_space_group_name_H-M    P1
_symmetry_Int_Tables_number       1
_space_group_crystal_system       triclinic
_cell_length_a                    15.854245
_cell_length_b                    10.782405
_cell_length_c                    9.607959
_cell_angle_alpha                 89.960558
_cell_angle_beta                  90.473065
_cell_angle_gamma                 92.412094
_cell_volume                      1640.93942403

loop_
_atom_site_label
_atom_site_type_symbol
_atom_type_description
_atom_site_fract_x
_atom_site_fract_y
_atom_site_fract_z
_atom_type_partial_charge
C1    C     C_R   0.496725 0.262586 0.500053 0.786864
C2    C     C_3   0.082861 0.502451 0.497457 0.079518
C3    C     C_3   0.974742 0.615591 0.508318 0.414282
C4    C     C_3   0.916839 0.498304 0.502605 0.076874
C5    C     C_3   0.026221 0.563752 0.389387 0.419777
C6    C     C_3   0.968546 0.445289 0.382536 -0.292236
C7    C     C_1   0.174608 0.502725 0.496557 -0.006142
C8    C     C_1   0.825198 0.498502 0.503316 -0.005462
C9    C     C_R   0.366231 0.120854 0.654503 -0.182327
C10   C     C_R   0.306248 0.052196 0.730832 -0.151183
C11   C     C_R   0.306343 0.923262 0.730952 -0.145019
C12   C     C_R   0.339949 0.500202 0.499382 0.799988
C13   C     C_R   0.366461 0.862201 0.654810 -0.166043
C14   C     C_R   0.429419 0.929895 0.579433 0.099722
C15   C     C_R   0.429311 0.061125 0.579365 0.098641
C16   C     C_R   0.490640 0.128382 0.499974 -0.102190
C17   C     C_R   0.547767 0.067041 0.417617 -0.194062
C18   C     C_R   0.547861 0.939150 0.417601 -0.204006
C19   C     C_R   0.490820 0.870475 0.499938 -0.089645
C20   C     C_R   0.612498 0.664487 0.145038 -0.133982
C21   C     C_R   0.668058 0.743828 0.073506 -0.226010
C22   C     C_R   0.668234 0.743467 0.930127 -0.201278
C23   C     C_R   0.497079 0.737070 0.499980 0.765546
C24   C     C_R   0.612755 0.663896 0.857365 -0.124401
C25   C     C_R   0.555321 0.580687 0.925848 0.203442
C26   C     C_R   0.555246 0.580795 0.075363 0.211698
C27   C     C_R   0.447452 0.423147 0.073198 -0.051742
C28   C     C_R   0.447449 0.423214 0.925391 -0.052699
C29   C     C_R   0.659998 0.500003 0.500611 0.806306
C30   C     C_3   0.972282 0.435491 0.612190 -0.183744
C31   C     C_3   0.025722 0.383204 0.492445 -0.178741
C32   C     C_1   0.250200 0.501760 0.497699 -0.179381
C33   C     C_1   0.749663 0.499215 0.502241 -0.174156
C34   C     C_3   0.031016 0.554613 0.618185 -0.302047
Cu1   Cu    Cu3+1 0.499990 0.499990 0.640660 0.929869
Cu2   Cu    Cu3+1 0.500010 0.500010 0.359340 0.941162
H1    H     H_    0.048531 0.287467 0.486424 0.144636
H2    H     H_    0.258688 0.870208 0.788351 0.140708
H3    H     H_    0.361676 0.762002 0.653893 0.155690
H4    H     H_    0.594196 0.893533 0.355567 0.140850
H5    H     H_    0.404361 0.360072 0.127737 0.139442
H6    H     H_    0.617477 0.673171 0.254718 0.192161
H7    H     H_    0.711254 0.806261 0.130084 0.148630
H8    H     H_    0.711607 0.805558 0.874534 0.155739
H9    H     H_    0.617873 0.671930 0.747731 0.197633
H10   H     H_    0.404336 0.360190 0.869788 0.133397
H11   H     H_    0.948261 0.381986 0.703407 0.152497
H12   H     H_    0.941621 0.400597 0.287124 0.146960
H13   H     H_    0.058232 0.598703 0.713679 0.147443
H14   H     H_    0.594000 0.118688 0.355543 0.154057
H15   H     H_    0.361248 0.220462 0.653108 0.138798
H16   H     H_    0.258549 0.099222 0.788175 0.138038
N1    N     N_R   0.500800 0.501210 0.147910 -0.199327
N2    N     N_R   0.500830 0.501290 0.852040 -0.199445
O1    O     O_R   0.499990 0.319640 0.618810 -0.577583
O2    O     O_R   0.500000 0.319660 0.381240 -0.575590
O3    O     O_R   0.379070 0.499980 0.618770 -0.590212
O4    O     O_R   0.379080 0.500000 0.381190 -0.563502
O5    O     O_R   0.500000 0.680340 0.618760 -0.604088
O6    O     O_R   0.500010 0.680360 0.381190 -0.589597
O7    O     O_R   0.620920 0.500000 0.618810 -0.586966
O8    O     O_R   0.620930 0.500020 0.381230 -0.592978
O9    O     O_3   0.058455 0.631252 0.274110 -0.620516
C35   C     C_3   0.991806 0.676706 0.191986 0.065711
H17   H     H_    0.004491 0.777870 0.176447 0.153662
H18   H     H_    0.928127 0.666115 0.240443 0.149916
C36   C     C_3   0.989582 0.612884 0.049726 -0.352218
H19   H     H_    0.050150 0.633607 0.995276 0.221831
H20   H     H_    0.981997 0.510774 0.063930 0.217822
C37   C     C_3   0.916705 0.656871 0.959904 -0.928732
H21   H     H_    0.855334 0.633471 0.010578 0.267855
H22   H     H_    0.917171 0.610297 0.856954 0.270735
H23   H     H_    0.922975 0.758824 0.943655 0.250835
O10   O     O_3   0.941409 0.734698 0.515299 -0.629953
C38   C     C_3   0.006810 0.827759 0.523380 0.061400
H24   H     H_    0.992672 0.900092 0.445160 0.160136
H25   H     H_    0.070886 0.795131 0.498585 0.147507
C39   C     C_3   0.008206 0.886391 0.668326 -0.343339
H26   H     H_    0.943793 0.914980 0.695261 0.232225
H27   H     H_    0.028109 0.817139 0.746248 0.212080
C40   C     C_3   0.068997 0.999751 0.674902 -0.944576
H28   H     H_    0.133179 0.974210 0.643454 0.264263
H29   H     H_    0.072072 0.036457 0.782876 0.254445
H30   H     H_    0.046976 0.073667 0.604482 0.254330

loop_
_geom_bond_atom_site_label_1
_geom_bond_atom_site_label_2
_ccdc_geom_bond_type
Cu1   Cu2   S    
C9    H15   S    
C4    C8    S    
C10   H16   S    
C40   H28   S    
C23   O5    A    
C28   H10   S    
C6    H12   S    
C24   H9    S    
C1    O2    A    
Cu2   O4    S    
C5    C6    S    
C39   H27   S    
C15   C16   A    
C29   C33   S    
C5    O9    S    
Cu1   O5    S    
C18   C19   A    
C3    O10   S    
C18   H4    S    
Cu2   N1    S    
C21   H7    S    
C22   H8    S    
C2    C7    S    
C16   C17   A    
C37   H21   S    
C9    C10   A    
C12   O4    A    
C2    C34   S    
C6    C31   S    
C21   C22   A    
C12   C32   S    
Cu1   N2    S    
Cu2   O8    S    
C40   H29   S    
C23   O6    A    
C29   O7    A    
O10   C38   S    
C30   C34   S    
Cu1   O1    S    
C36   H19   S    
C35   C36   S    
C30   H11   S    
C25   N2    A    
C4    C6    S    
C28   N2    A    
C39   H26   S    
C3    C34   S    
C3    C5    S    
C25   C26   A    
C31   H1    S    
C2    C31   S    
C36   H20   S    
C35   H18   S    
C11   H2    S    
C19   C23   S    
C38   H24   S    
Cu2   O2    S    
C27   H5    S    
C37   H23   S    
C17   C18   A    
Cu1   O7    S    
C1    C16   S    
C24   C25   A    
C38   H25   S    
C12   O3    A    
C22   C24   A    
C2    C5    S    
C3    C4    S    
C26   N1    A    
C40   H30   S    
C29   O8    A    
C34   H13   S    
C7    C32   T    
C14   C19   A    
Cu2   O6    S    
C17   H14   S    
C20   H6    S    
C27   N1    A    
Cu1   O3    S    
C36   C37   S    
C35   H17   S    
C1    O1    A    
C11   C13   A    
C39   C40   S    
C30   C31   S    
C20   C26   A    
C8    C33   T    
C9    C15   A    
C38   C39   S    
C13   H3    S    
C10   C11   A    
O9    C35   S    
C20   C21   A    
C27   C28   A    
C14   C15   A    
C37   H22   S    
C13   C14   A    
C4    C30   S    
