data_mof_unit_58462.cif
_audit_creation_date              2012-12-10T17:16:37-0500
_audit_creation_method            fapswitch 2.2
_symmetry_space_group_name_H-M    P1
_symmetry_Int_Tables_number       1
_space_group_crystal_system       triclinic
_cell_length_a                    10.15341
_cell_length_b                    10.658141
_cell_length_c                    10.61479
_cell_angle_alpha                 90.206797
_cell_angle_beta                  93.900525
_cell_angle_gamma                 79.789252
_cell_volume                      1127.84215966

loop_
_atom_site_label
_atom_site_type_symbol
_atom_type_description
_atom_site_fract_x
_atom_site_fract_y
_atom_site_fract_z
_atom_type_partial_charge
C1    C     C_R   0.446232 0.517774 0.265990 0.893565
C2    C     C_R   0.554087 0.496960 0.733876 0.843943
C3    C     C_2   0.421588 0.546274 0.131218 -0.274992
C4    C     C_2   0.579430 0.513006 0.868106 -0.263190
C5    C     C_2   0.507877 0.603405 0.067475 0.010270
C6    C     C_2   0.498210 0.604786 0.929796 -0.024635
C7    C     C_2   0.073581 0.491592 0.487227 -0.051502
C8    C     C_2   0.925811 0.510662 0.510750 -0.062628
C9    C     C_R   0.508583 0.262201 0.525259 0.912209
C10   C     C_R   0.496862 0.743031 0.497677 0.859445
C11   C     C_R   0.763265 0.073662 0.507031 -0.157504
C12   C     C_R   0.272206 0.928388 0.611888 -0.207549
C13   C     C_R   0.855023 0.004016 0.429621 -0.010462
C14   C     C_R   0.187916 0.005637 0.691098 0.019657
C15   C     C_R   0.819902 0.899587 0.363801 -0.010439
C16   C     C_R   0.220383 0.121457 0.733015 0.014473
C17   C     C_R   0.697072 0.863279 0.382496 -0.153517
C18   C     C_R   0.334417 0.159997 0.692160 -0.183670
C19   C     C_R   0.607931 0.927545 0.468209 0.059740
C20   C     C_R   0.418561 0.083376 0.610392 0.077621
C21   C     C_R   0.633872 0.042955 0.515751 0.081920
C22   C     C_R   0.394929 0.961336 0.576310 0.081987
C23   C     C_R   0.493531 0.880919 0.506116 -0.190233
C24   C     C_R   0.526164 0.128284 0.561618 -0.228235
H1    H     H_    0.793064 0.152705 0.559383 0.165329
H2    H     H_    0.232571 0.847700 0.575746 0.180031
H3    H     H_    0.670211 0.786556 0.327023 0.161076
H4    H     H_    0.358771 0.249789 0.726140 0.153604
H5    H     H_    0.879800 0.384001 0.382126 0.170385
H6    H     H_    0.121034 0.613169 0.620512 0.164086
N1    N     N_2   0.157300 0.551390 0.551120 -0.220807
N2    N     N_2   0.842700 0.448610 0.448880 -0.226124
O1    O     O_R   0.568940 0.489660 0.307530 -0.631409
O2    O     O_R   0.431060 0.510340 0.692470 -0.638393
O3    O     O_R   0.348880 0.522640 0.340350 -0.579832
O4    O     O_R   0.651120 0.477360 0.659650 -0.591828
O5    O     O_R   0.610030 0.300280 0.483580 -0.610886
O6    O     O_R   0.389970 0.699720 0.516420 -0.636063
O7    O     O_R   0.389970 0.333270 0.516400 -0.599897
O8    O     O_R   0.610030 0.666730 0.483600 -0.622607
Zn1   Zn    Zn3+2 0.646940 0.477980 0.478080 0.944988
Zn2   Zn    Zn3+2 0.353060 0.522020 0.521920 0.950344
C25   C     C_1   0.135554 0.204213 0.814079 0.182019
N3    N     N_1   0.067238 0.270427 0.878784 -0.151457
C26   C     C_1   0.909012 0.826691 0.279014 0.212976
N4    N     N_1   0.980430 0.768091 0.211309 -0.142892
C27   C     C_1   0.979570 0.046942 0.411590 0.141520
N5    N     N_1   0.079001 0.081647 0.396150 -0.178849
C28   C     C_1   0.067519 0.964272 0.727291 0.183567
N6    N     N_1   0.971283 0.931087 0.756328 -0.157830
C29   C     C_2   0.406473 0.713471 0.864957 0.503334
H7    H     H_    0.413213 0.733170 0.766019 0.062988
O9    O     O_2   0.324439 0.784387 0.923248 -0.552671
C30   C     C_2   0.623866 0.657060 0.124427 0.391759
H8    H     H_    0.684746 0.615138 0.205854 0.093998
O10   O     O_2   0.657739 0.748196 0.074257 -0.547878
C31   C     C_1   0.682415 0.419834 0.933806 0.199730
N7    N     N_1   0.764456 0.345485 0.986378 -0.162950
C32   C     C_1   0.304516 0.508413 0.066856 0.258762
N8    N     N_1   0.210908 0.478505 0.015426 -0.158950
C33   C     C_1   0.875014 0.601051 0.605164 0.292042
N9    N     N_1   0.835230 0.673693 0.681040 -0.172902
C34   C     C_1   0.123537 0.404890 0.389586 0.306831
N10   N     N_1   0.162755 0.335440 0.310927 -0.171419

loop_
_geom_bond_atom_site_label_1
_geom_bond_atom_site_label_2
_ccdc_geom_bond_type
C4    C31   S    
C19   C23   A    
N2    Zn1   S    
C9    C24   S    
C7    C8    S    
N1    Zn2   S    
C10   C23   S    
O7    Zn2   S    
C2    C4    S    
C27   N5    T    
O2    Zn2   S    
C8    C33   S    
C10   O6    A    
O1    Zn1   S    
C2    O2    A    
C9    O5    A    
C31   N7    T    
C1    O1    A    
C32   N8    T    
C26   N4    T    
C20   C24   A    
C11   C13   A    
C16   C25   S    
C7    C34   S    
O4    Zn1   S    
C5    C6    S    
C8    N2    D    
C4    C6    D    
O8    Zn1   S    
C19   C21   A    
C12   H2    S    
C20   C22   A    
O6    Zn2   S    
H5    N2    S    
C18   C20   A    
C13   C15   A    
C25   N3    T    
O5    Zn1   S    
C33   N9    T    
C6    C29   S    
C30   O10   D    
C14   C28   S    
C7    N1    D    
C11   H1    S    
C29   H7    S    
C17   H3    S    
C12   C22   A    
C5    C30   S    
C9    O7    A    
C18   H4    S    
C1    O3    A    
C16   C18   A    
C28   N6    T    
C21   C24   A    
C2    O4    A    
C1    C3    S    
C15   C17   A    
O3    Zn2   S    
C15   C26   S    
C22   C23   A    
C17   C19   A    
C10   O8    A    
C3    C5    D    
C14   C16   A    
C30   H8    S    
C13   C27   S    
C11   C21   A    
H6    N1    S    
C34   N10   T    
C12   C14   A    
C29   O9    D    
C3    C32   S    
