data_mof_unit_18013.cif
_audit_creation_date              2012-12-11T15:20:40-0500
_audit_creation_method            fapswitch 2.2
_symmetry_space_group_name_H-M    P1
_symmetry_Int_Tables_number       1
_space_group_crystal_system       triclinic
_cell_length_a                    12.908171
_cell_length_b                    13.114496
_cell_length_c                    15.336597
_cell_angle_alpha                 116.282141
_cell_angle_beta                  63.13111
_cell_angle_gamma                 97.033534
_cell_volume                      2066.73278495

loop_
_atom_site_label
_atom_site_type_symbol
_atom_type_description
_atom_site_fract_x
_atom_site_fract_y
_atom_site_fract_z
_atom_type_partial_charge
C1    C     C_R   0.030342 0.832401 0.021924 -0.023973
C2    C     C_R   0.322703 0.522384 0.779868 -0.136864
C3    C     C_R   0.243204 0.480715 0.108089 -0.176945
C4    C     C_R   0.701225 0.402535 0.208830 -0.134149
C5    C     C_R   0.994720 0.297729 0.693419 -0.140302
C6    C     C_R   0.335544 0.542745 0.077832 0.158033
C7    C     C_R   0.941992 0.200835 0.691504 -0.018490
C8    C     C_R   0.332411 0.448304 0.676888 0.019696
C9    C     C_R   0.095355 0.149714 0.963171 0.021849
C10   C     C_R   0.054548 0.970852 0.417572 -0.194892
C11   C     C_R   0.049570 0.062856 0.508876 -0.186287
C12   C     C_R   0.708456 0.421781 0.301817 0.034963
C13   C     C_R   0.941067 0.112688 0.596261 0.138467
C14   C     C_R   0.836595 0.075274 0.592507 -0.174078
C15   C     C_R   0.841630 0.982878 0.499631 -0.141872
C16   C     C_R   0.738433 0.585715 0.957110 -0.091433
C17   C     C_R   0.950833 0.930482 0.414089 0.157461
C18   C     C_R   0.643519 0.421827 0.480810 -0.176840
C19   C     C_R   0.548442 0.429957 0.575856 -0.162840
C20   C     C_R   0.440532 0.400426 0.575561 0.146910
C21   C     C_R   0.435648 0.340840 0.475779 -0.166199
C22   C     C_R   0.530226 0.334249 0.381094 -0.166447
C23   C     C_R   0.635398 0.569400 0.032516 0.126773
C24   C     C_R   0.630432 0.385768 0.385766 0.127837
C25   C     C_2   0.427156 0.566466 0.111817 -0.203067
C26   C     C_2   0.520248 0.613464 0.064021 -0.188331
C27   C     C_2   0.917714 0.961638 0.000468 -0.236072
C28   C     C_R   0.947046 0.721790 0.316240 0.010881
C29   C     C_2   0.870199 0.053617 0.097521 -0.063918
C30   C     C_R   0.660368 0.486709 0.054149 -0.131604
C31   C     C_R   0.030602 0.819812 0.218171 -0.078692
C32   C     C_R   0.805005 0.480232 0.299992 -0.125366
C33   C     C_R   0.939990 0.745274 0.918145 -0.018654
C34   C     C_R   0.960380 0.830113 0.321079 0.008739
C35   C     C_R   0.960828 0.851606 0.981909 0.070826
C36   C     C_R   0.827303 0.122816 0.831419 0.089273
C37   C     C_R   0.736949 0.169297 0.937918 -0.141370
C38   C     C_R   0.661109 0.099293 0.979986 -0.113159
C39   C     C_R   0.674552 0.981709 0.915821 -0.096305
C40   C     C_R   0.763989 0.934377 0.809824 -0.135977
C41   C     C_R   0.840742 0.004016 0.767726 -0.159678
C42   C     C_2   0.847413 0.064061 0.204815 0.529185
C43   C     C_R   0.911894 0.693999 0.408147 0.120448
C44   C     C_R   0.993173 0.637257 0.412994 -0.194055
C45   C     C_R   0.323012 0.579650 0.011802 -0.130284
C46   C     C_R   0.958775 0.607635 0.498640 -0.090066
C47   C     C_R   0.843244 0.634049 0.579286 -0.125380
C48   C     C_R   0.762337 0.691652 0.575395 -0.164348
C49   C     C_R   0.796655 0.722607 0.490705 -0.117773
C50   C     C_2   0.923386 0.717445 0.821387 0.396357
C51   C     C_R   0.909730 0.197724 0.788997 0.014072
C52   C     C_R   0.220403 0.438944 0.685034 -0.088023
C53   C     C_R   0.102001 0.253483 0.041567 -0.124705
C54   C     C_R   0.008292 0.170352 0.941469 -0.102670
H1    H     H_    0.077935 0.895295 0.059206 0.086835
H2    H     H_    0.753042 0.115902 0.661224 0.131433
H3    H     H_    0.645894 0.345988 0.177053 0.076675
H4    H     H_    0.761905 0.951592 0.494759 0.121894
H5    H     H_    0.722588 0.454537 0.485515 0.126792
H6    H     H_    0.557624 0.469216 0.650267 0.108030
H7    H     H_    0.356182 0.309135 0.471034 0.103831
H8    H     H_    0.519565 0.298944 0.307539 0.103051
H9    H     H_    0.428972 0.521755 0.156057 0.127197
H10   H     H_    0.516703 0.662366 0.023880 0.117544
H11   H     H_    0.916251 0.966372 0.932411 0.128686
H12   H     H_    0.195142 0.390609 0.621107 0.088871
H13   H     H_    0.745575 0.641180 0.920551 0.109430
H14   H     H_    0.601244 0.450032 0.106687 0.093462
H15   H     H_    0.071372 0.887604 0.197031 0.101316
H16   H     H_    0.849022 0.487387 0.347229 0.117631
H17   H     H_    0.369615 0.642827 0.985439 0.079982
H18   H     H_    0.724300 0.259620 0.988311 0.112923
H19   H     H_    0.591897 0.136314 0.062308 0.097712
H20   H     H_    0.616077 0.927213 0.948273 0.097727
H21   H     H_    0.774768 0.843347 0.761059 0.126178
H22   H     H_    0.911618 0.964723 0.686496 0.136245
H23   H     H_    0.163051 0.269712 0.075334 0.102304
H24   H     H_    0.827498 0.148617 0.272016 -0.003647
H25   H     H_    0.082620 0.615665 0.350443 0.116173
H26   H     H_    0.021365 0.563384 0.502010 0.135438
H27   H     H_    0.816094 0.609720 0.644723 0.148952
H28   H     H_    0.672803 0.711599 0.637689 0.120009
H29   H     H_    0.732514 0.764773 0.487304 0.109246
H30   H     H_    0.901203 0.784562 0.808302 0.016611
H31   H     H_    0.986617 0.108483 0.879211 0.108705
H32   H     H_    0.392244 0.549907 0.803322 0.096118
H33   H     H_    0.219000 0.451844 0.170214 0.089123
H34   H     H_    0.017883 0.331504 0.634839 0.126313
H35   H     H_    0.138960 0.929091 0.350889 0.121046
H36   H     H_    0.130064 0.092802 0.513128 0.124577
N1    N     N_R   0.037310 0.720000 0.995790 -0.064960
N2    N     N_R   0.824890 0.517960 0.936420 -0.028180
N3    N     N_R   0.003210 0.648190 0.211380 -0.060243
N4    N     N_R   0.774330 0.457010 0.995840 -0.059534
N5    N     N_R   0.053760 0.709140 0.151960 -0.057496
N6    N     N_R   0.853860 0.498840 0.211410 -0.039930
N7    N     N_R   0.974240 0.667310 0.936390 -0.040741
N8    N     N_R   0.225670 0.542990 0.004160 -0.043929
N9    N     N_R   0.946240 0.290860 0.848040 -0.064889
N10   N     N_R   0.146140 0.501160 0.788590 -0.029850
N11   N     N_R   0.025760 0.332690 0.063610 -0.043093
N12   N     N_R   0.962690 0.280000 0.004210 -0.045861
N13   N     N_R   0.209210 0.553840 0.847990 -0.048201
N14   N     N_R   0.175110 0.482040 0.063580 -0.039183
N15   N     N_R   0.996790 0.351810 0.788620 -0.041716
N16   N     N_R   0.790790 0.446160 0.152010 -0.041073
Ni1   Ni    Ni4+2 0.130310 0.630310 0.999970 0.202720
Ni2   Ni    Ni4+2 0.869690 0.369690 0.000030 0.207847
Ni3   Ni    Ni4+2 0.985640 0.509470 0.863740 0.282265
Ni4   Ni    Ni4+2 0.014360 0.490530 0.136260 0.205370
O1    O     O_2   0.844970 0.980531 0.221005 -0.591107
O2    O     O_2   0.938592 0.618572 0.753122 -0.613293

loop_
_geom_bond_atom_site_label_1
_geom_bond_atom_site_label_2
_ccdc_geom_bond_type
C3    N14   A    
C14   H2    S    
N11   N12   A    
C6    C45   A    
C29   C42   S    
C45   H17   S    
C19   C20   A    
C43   C44   A    
C3    C6    A    
C50   H30   S    
C5    N15   A    
N9    Ni2   S    
N4    Ni2   S    
C8    C20   S    
N16   Ni2   S    
C18   C24   A    
C36   C37   A    
C45   N8    A    
C38   C39   A    
N8    N14   A    
N2    Ni3   S    
C39   H20   S    
C6    C25   S    
C27   C29   D    
C10   C17   A    
C18   C19   A    
C25   H9    S    
C23   C26   S    
C26   H10   S    
N15   Ni3   S    
C5    H34   S    
C10   H35   S    
C53   N11   A    
C4    H3    S    
N12   Ni2   S    
C4    C12   A    
C8    C52   A    
C21   H7    S    
N3    Ni4   S    
C28   C34   A    
N10   Ni3   S    
C1    N1    A    
C13   C14   A    
C12   C32   A    
C36   C41   A    
C50   O2    D    
C25   C26   D    
C44   C46   A    
C51   N9    A    
N9    N15   A    
C3    H33   S    
C23   C30   A    
N1    Ni1   S    
C39   C40   A    
C5    C7    A    
C43   C49   A    
C32   H16   S    
C27   C35   S    
C33   C50   S    
C4    N16   A    
C52   N10   A    
N10   N13   A    
N8    Ni1   S    
C28   N3    A    
C53   H23   S    
C42   O1    D    
C37   C38   A    
C27   H11   S    
C22   H8    S    
N7    Ni3   S    
C47   C48   A    
C7    C13   S    
N2    N4    A    
C31   C34   A    
C16   H13   S    
N1    N7    A    
C36   C51   S    
N5    Ni1   S    
C48   C49   A    
C32   N6    A    
C42   H24   S    
C16   C23   A    
C15   H4    S    
C22   C24   A    
C9    C53   A    
C17   C34   S    
C52   H12   S    
C1    C35   A    
C15   C17   A    
N6    N16   A    
C46   C47   A    
C40   C41   A    
C54   N12   A    
C44   H25   S    
C2    C8    A    
C54   H31   S    
C16   N2    A    
C19   H6    S    
C12   C24   S    
C28   C43   S    
C40   H21   S    
C49   H29   S    
N11   Ni4   S    
C7    C51   A    
C30   N4    A    
C41   H22   S    
N14   Ni4   S    
C11   C13   A    
C11   H36   S    
N6    Ni4   S    
C2    N13   A    
C31   N5    A    
C33   C35   A    
C48   H28   S    
C2    H32   S    
C33   N7    A    
C47   H27   S    
C1    H1    S    
C10   C11   A    
C18   H5    S    
C31   H15   S    
C20   C21   A    
N3    N5    A    
C37   H18   S    
C14   C15   A    
N13   Ni1   S    
C9    C54   A    
C46   H26   S    
C21   C22   A    
C30   H14   S    
C38   H19   S    
