data_mof_unit_56851.cif
_audit_creation_date              2012-12-10T20:34:56-0500
_audit_creation_method            fapswitch 2.2
_symmetry_space_group_name_H-M    P1
_symmetry_Int_Tables_number       1
_space_group_crystal_system       triclinic
_cell_length_a                    10.69635
_cell_length_b                    10.655121
_cell_length_c                    9.935498
_cell_angle_alpha                 89.120314
_cell_angle_beta                  88.969176
_cell_angle_gamma                 92.106804
_cell_volume                      1131.26378478

loop_
_atom_site_label
_atom_site_type_symbol
_atom_type_description
_atom_site_fract_x
_atom_site_fract_y
_atom_site_fract_z
_atom_type_partial_charge
C1    C     C_R   0.505399 0.260249 0.500156 0.857278
C2    C     C_3   0.879120 0.496179 0.499685 0.125951
C3    C     C_3   0.939763 0.630479 0.467923 -0.038768
C4    C     C_3   0.926757 0.396924 0.396392 0.031207
C5    C     C_R   0.575122 0.065104 0.605638 0.131283
C6    C     C_R   0.528866 0.129697 0.495414 -0.131509
C7    C     C_R   0.511913 0.066751 0.373532 -0.221479
C8    C     C_R   0.511312 0.937583 0.372886 -0.231098
C9    C     C_R   0.529071 0.872030 0.493790 -0.100489
C10   C     C_R   0.574295 0.936366 0.605174 0.075671
C11   C     C_3   0.540346 0.924971 0.751590 -0.493115
C12   C     C_R   0.258138 0.495570 0.501440 0.861758
C13   C     C_3   0.540467 0.067832 0.751707 -0.023875
C14   C     C_R   0.436425 0.407445 0.074052 0.127944
C15   C     C_R   0.570470 0.586080 0.065985 0.220300
C16   C     C_R   0.570192 0.584926 0.923348 -0.150566
C17   C     C_R   0.435477 0.407774 0.931611 0.156159
C18   C     C_3   0.296827 0.381778 0.931343 -0.044364
C19   C     C_3   0.299437 0.377794 0.085545 -0.052656
C20   C     C_R   0.505700 0.739961 0.498845 0.875272
C21   C     C_R   0.742281 0.500467 0.499588 0.871696
C22   C     C_3   0.067016 0.474396 0.648834 -0.417510
C23   C     C_3   0.924546 0.458972 0.643428 -0.455752
C24   C     C_3   0.081111 0.618603 0.445451 -0.472295
C25   C     C_3   0.070191 0.381634 0.414535 0.030379
C26   C     C_3   0.121865 0.491236 0.503480 0.099345
H1    H     H_    0.914786 0.437422 0.293701 0.144508
H2    H     H_    0.106333 0.624781 0.336118 0.188886
H3    H     H_    0.616210 0.883606 0.810960 0.203253
H4    H     H_    0.446660 0.104878 0.768399 0.172492
H5    H     H_    0.104294 0.391475 0.700311 0.199861
H6    H     H_    0.625373 0.654369 0.865221 0.154711
H7    H     H_    0.894193 0.360715 0.670114 0.192757
H8    H     H_    0.131233 0.698388 0.495146 0.161863
H9    H     H_    0.113538 0.392065 0.312592 0.142686
N1    N     N_R   0.499150 0.499140 0.142800 -0.124616
N2    N     N_R   0.499150 0.499180 0.857150 -0.140548
O1    O     O_R   0.500020 0.316790 0.614690 -0.614630
O2    O     O_R   0.500000 0.316760 0.385350 -0.623035
O3    O     O_R   0.314800 0.500000 0.614670 -0.622928
O4    O     O_R   0.314790 0.499960 0.385330 -0.632947
O5    O     O_R   0.500000 0.683240 0.614650 -0.617614
O6    O     O_R   0.499980 0.683210 0.385310 -0.630015
O7    O     O_R   0.685210 0.500040 0.614670 -0.634769
O8    O     O_R   0.685200 0.500000 0.385330 -0.628078
Zn1   Zn    Zn3+2 0.500010 0.500020 0.653130 0.923945
Zn2   Zn    Zn3+2 0.499990 0.499980 0.346870 0.923716
H10   H     H_    0.093097 0.557946 0.709755 0.176785
C27   C     C_3   0.884682 0.705298 0.351913 -0.961174
H11   H     H_    0.791451 0.737836 0.383167 0.244146
H12   H     H_    0.943941 0.791120 0.329111 0.255879
H13   H     H_    0.879598 0.648289 0.259756 0.256644
H14   H     H_    0.488085 0.115336 0.281639 0.174621
H15   H     H_    0.485296 0.890226 0.281354 0.171799
H16   H     H_    0.445779 0.880563 0.770256 0.189988
C28   C     C_3   0.642622 0.129475 0.837027 -0.871768
H17   H     H_    0.735686 0.091163 0.813649 0.238017
H18   H     H_    0.647489 0.232386 0.817254 0.259964
H19   H     H_    0.619758 0.112496 0.945386 0.238306
C29   C     C_3   0.647965 0.688572 0.126509 -0.892061
H20   H     H_    0.660512 0.670489 0.232893 0.304143
H21   H     H_    0.742330 0.694168 0.077800 0.208429
H22   H     H_    0.602927 0.779755 0.111486 0.223410
H23   H     H_    0.246527 0.463787 0.891989 0.143406
C30   C     C_3   0.257594 0.259823 0.861225 -0.877748
H24   H     H_    0.305466 0.177884 0.901961 0.242245
H25   H     H_    0.155248 0.242080 0.875202 0.231591
H26   H     H_    0.279648 0.268441 0.751898 0.251290
H27   H     H_    0.247511 0.455509 0.131087 0.144086
C31   C     C_3   0.272540 0.250566 0.156564 -0.858964
H28   H     H_    0.335190 0.177184 0.120059 0.233326
H29   H     H_    0.289160 0.260407 0.265431 0.262376
H30   H     H_    0.173505 0.219654 0.142258 0.239209
H31   H     H_    0.884628 0.519903 0.722209 0.183272
H32   H     H_    0.926322 0.689254 0.558668 0.173589
C32   C     C_3   0.107201 0.251151 0.469748 -0.918558
H33   H     H_    0.090918 0.177822 0.393331 0.245885
H34   H     H_    0.208145 0.250950 0.493490 0.217184
H35   H     H_    0.053519 0.223473 0.562665 0.257247
C33   C     C_3   0.849540 0.270689 0.396616 -0.902935
H36   H     H_    0.753320 0.283988 0.361410 0.257997
H37   H     H_    0.891258 0.204948 0.324443 0.243759
H38   H     H_    0.843236 0.225920 0.498088 0.244348

loop_
_geom_bond_atom_site_label_1
_geom_bond_atom_site_label_2
_ccdc_geom_bond_type
C22   H10   S    
C15   C29   S    
C32   H35   S    
C4    H1    S    
C4    C25   S    
C3    C27   S    
C7    C8    A    
C18   C30   S    
O3    Zn1   S    
C29   H22   S    
C32   H34   S    
C4    C33   S    
C14   N1    A    
C5    C6    A    
C15   C16   A    
C28   H17   S    
C23   H7    S    
N1    Zn2   S    
C29   H21   S    
C18   C19   S    
O5    Zn1   S    
C8    C9    A    
C30   H25   S    
C31   H28   S    
C3    H32   S    
C9    C10   A    
C5    C13   S    
C16   N2    A    
C13   C28   S    
C27   H13   S    
C14   C17   A    
C3    C24   S    
C2    C21   S    
C33   H38   S    
O7    Zn1   S    
C21   O8    A    
O8    Zn2   S    
C22   H5    S    
C1    C6    S    
C13   H4    S    
C32   H33   S    
C33   H37   S    
C8    H15   S    
C27   H12   S    
C25   C26   S    
C24   H8    S    
C12   C26   S    
C29   H20   S    
C12   O3    A    
C2    C4    S    
C12   O4    A    
C21   O7    A    
C9    C20   S    
C30   H26   S    
C31   H30   S    
C17   C18   S    
O4    Zn2   S    
C17   N2    A    
C1    O1    A    
C25   H9    S    
C30   H24   S    
C19   H27   S    
C7    H14   S    
C23   H31   S    
C15   N1    A    
C20   O6    A    
C11   H16   S    
O2    Zn2   S    
C14   C19   S    
C24   H2    S    
C24   C26   S    
C33   H36   S    
C20   O5    A    
C6    C7    A    
C16   H6    S    
C28   H19   S    
C25   C32   S    
C2    C3    S    
C5    C10   A    
C11   C13   S    
C18   H23   S    
C28   H18   S    
O1    Zn1   S    
C10   C11   S    
C1    O2    A    
C11   H3    S    
C27   H11   S    
C22   C26   S    
C2    C23   S    
C22   C23   S    
C19   C31   S    
C31   H29   S    
N2    Zn1   S    
O6    Zn2   S    
