data_mof_unit_38262.cif
_audit_creation_date              2013-03-05T15:50:06-0500
_audit_creation_method            fapswitch 2.2
_symmetry_space_group_name_H-M    P1
_symmetry_Int_Tables_number       1
_space_group_crystal_system       triclinic
_cell_length_a                    18.372671
_cell_length_b                    25.905918
_cell_length_c                    18.212895
_cell_angle_alpha                 89.839329
_cell_angle_beta                  90.187226
_cell_angle_gamma                 90.155268
_cell_volume                      8668.51406745

loop_
_atom_site_label
_atom_site_type_symbol
_atom_site_description
_atom_site_fract_x
_atom_site_fract_y
_atom_site_fract_z
_atom_type_partial_charge
Zn1   Zn    Zn3+2 0.249990 0.293780 0.913250 0.983229
Zn2   Zn    Zn3+2 0.249990 0.706220 0.086750 0.977540
Zn3   Zn    Zn3+2 0.249990 0.706220 0.913250 0.980569
Zn4   Zn    Zn3+2 0.249990 0.293780 0.086750 1.010387
Zn5   Zn    Zn3+2 0.749990 0.793780 0.413250 0.965912
Zn6   Zn    Zn3+2 0.749990 0.206220 0.586750 0.978447
Zn7   Zn    Zn3+2 0.749990 0.206220 0.413250 0.988700
Zn8   Zn    Zn3+2 0.749990 0.793780 0.586750 0.978107
Zn9   Zn    Zn3+2 0.336760 0.206240 0.000000 1.010345
Zn10  Zn    Zn3+2 0.336760 0.793760 0.000000 0.984118
Zn11  Zn    Zn3+2 0.836760 0.706240 0.500000 1.004400
Zn12  Zn    Zn3+2 0.836760 0.293760 0.500000 1.003616
Zn13  Zn    Zn3+2 0.163250 0.206230 0.000000 1.002973
Zn14  Zn    Zn3+2 0.163250 0.793770 0.000000 1.000124
Zn15  Zn    Zn3+2 0.663250 0.706230 0.500000 0.974924
Zn16  Zn    Zn3+2 0.663250 0.293770 0.500000 0.989224
O1    O     O_3   0.249990 0.250010 0.000000 -0.506470
O2    O     O_3   0.249990 0.749990 0.000000 -0.494206
O3    O     O_3   0.749990 0.750010 0.500000 -0.500042
O4    O     O_3   0.749990 0.249990 0.500000 -0.499497
O5    O     O_R   0.335430 0.280650 0.146160 -0.633636
O6    O     O_R   0.335430 0.719350 0.853840 -0.631127
O7    O     O_R   0.335430 0.719350 0.146160 -0.632898
O8    O     O_R   0.335430 0.280650 0.853840 -0.647091
O9    O     O_R   0.835430 0.780650 0.646160 -0.634910
O10   O     O_R   0.835430 0.219350 0.353840 -0.634287
O11   O     O_R   0.835430 0.219350 0.646160 -0.634595
O12   O     O_R   0.835430 0.780650 0.353840 -0.628739
O13   O     O_R   0.164550 0.280640 0.853840 -0.629754
O14   O     O_R   0.164550 0.719360 0.146160 -0.642953
O15   O     O_R   0.164550 0.719360 0.853840 -0.632565
O16   O     O_R   0.164550 0.280640 0.146160 -0.636506
O17   O     O_R   0.664550 0.780640 0.353840 -0.647238
O18   O     O_R   0.664550 0.219360 0.646160 -0.649715
O19   O     O_R   0.664550 0.219360 0.353840 -0.634916
O20   O     O_R   0.664550 0.780640 0.646160 -0.638673
O21   O     O_R   0.396160 0.219380 0.914560 -0.609317
O22   O     O_R   0.396160 0.780620 0.085440 -0.654467
O23   O     O_R   0.396160 0.780620 0.914560 -0.643695
O24   O     O_R   0.396160 0.219380 0.085440 -0.633277
O25   O     O_R   0.896160 0.719380 0.414560 -0.636336
O26   O     O_R   0.896160 0.280620 0.585440 -0.602315
O27   O     O_R   0.896160 0.280620 0.414560 -0.635457
O28   O     O_R   0.896160 0.719380 0.585440 -0.605604
O29   O     O_R   0.103840 0.219370 0.085450 -0.622165
O30   O     O_R   0.103840 0.780630 0.914550 -0.631122
O31   O     O_R   0.103840 0.780630 0.085450 -0.629126
O32   O     O_R   0.103840 0.219370 0.914550 -0.628690
O33   O     O_R   0.603840 0.719370 0.585450 -0.625735
O34   O     O_R   0.603840 0.280630 0.414550 -0.635648
O35   O     O_R   0.603840 0.280630 0.585450 -0.625388
O36   O     O_R   0.603840 0.719370 0.414550 -0.635995
O37   O     O_R   0.310730 0.133160 0.000000 -0.592590
O38   O     O_R   0.310730 0.866840 0.000000 -0.594910
O39   O     O_R   0.810730 0.633160 0.500000 -0.586078
O40   O     O_R   0.810730 0.366840 0.500000 -0.590223
O41   O     O_R   0.249970 0.366860 0.060720 -0.559192
O42   O     O_R   0.249970 0.633140 0.939280 -0.663498
O43   O     O_R   0.249970 0.633140 0.060720 -0.598203
O44   O     O_R   0.249970 0.366860 0.939280 -0.654287
O45   O     O_R   0.749970 0.866860 0.560720 -0.618461
O46   O     O_R   0.749970 0.133140 0.439280 -0.635058
O47   O     O_R   0.749970 0.133140 0.560720 -0.662103
O48   O     O_R   0.749970 0.866860 0.439280 -0.658801
O49   O     O_R   0.189290 0.133150 0.000000 -0.646379
O50   O     O_R   0.189290 0.866850 0.000000 -0.631269
O51   O     O_R   0.689290 0.633150 0.500000 -0.641620
O52   O     O_R   0.689290 0.366850 0.500000 -0.640386
C1    C     C_R   0.389761 0.250231 0.139801 0.777827
C2    C     C_R   0.388619 0.750524 0.859185 0.793972
C3    C     C_R   0.389955 0.749331 0.139566 0.798785
C4    C     C_R   0.388784 0.249807 0.859501 0.791500
C5    C     C_R   0.889490 0.749945 0.640059 0.785644
C6    C     C_R   0.889799 0.249883 0.360296 0.775950
C7    C     C_R   0.889601 0.249841 0.639974 0.785781
C8    C     C_R   0.889453 0.749952 0.359933 0.776183
C9    C     C_R   0.110055 0.250493 0.860296 0.819412
C10   C     C_R   0.110483 0.750098 0.140294 0.807308
C11   C     C_R   0.110715 0.750379 0.859822 0.810672
C12   C     C_R   0.110762 0.249301 0.140529 0.814918
C13   C     C_R   0.609777 0.751668 0.360075 0.778778
C14   C     C_R   0.611695 0.250735 0.641910 0.831505
C15   C     C_R   0.610327 0.249807 0.360222 0.807870
C16   C     C_R   0.612114 0.748799 0.642138 0.826019
C17   C     C_R   0.249244 0.109328 0.990742 0.884679
C18   C     C_R   0.250928 0.891467 0.006096 0.859083
C19   C     C_R   0.751129 0.608928 0.508610 0.814290
C20   C     C_R   0.751175 0.390937 0.508941 0.815918
C21   C     C_R   0.250335 0.391286 0.999508 0.879940
C22   C     C_R   0.249854 0.608759 0.999613 0.882568
C23   C     C_R   0.749621 0.891293 0.500299 0.873366
C24   C     C_R   0.749261 0.108699 0.500127 0.933213
C25   C     C_3   0.321398 0.469387 0.036553 0.317967
C26   C     C_3   0.177430 0.529402 0.031870 0.300038
C27   C     C_3   0.320085 0.529541 0.036391 0.289063
C28   C     C_3   0.181198 0.469509 0.037293 0.339686
C29   C     C_3   0.744206 0.970811 0.582010 0.385473
C30   C     C_3   0.695588 0.028841 0.442376 0.377385
C31   C     C_3   0.730056 0.029920 0.578767 0.337407
C32   C     C_3   0.685310 0.969830 0.455054 0.308709
H1    H     H_    0.368106 0.456599 0.001835 0.014324
H2    H     H_    0.131959 0.537616 0.992738 0.024101
H3    H     H_    0.365196 0.539531 0.998582 0.072307
H4    H     H_    0.133129 0.453633 0.006836 0.014271
H5    H     H_    0.798052 0.964640 0.609451 0.022859
H6    H     H_    0.720479 0.034773 0.387020 0.035867
H7    H     H_    0.766470 0.047936 0.620887 0.037914
H8    H     H_    0.684756 0.951599 0.399497 0.036677
C33   C     C_3   0.250083 0.469583 0.913640 -0.228327
C34   C     C_3   0.251062 0.531268 0.913138 -0.214627
C35   C     C_3   0.826062 0.969662 0.467812 -0.210325
C36   C     C_3   0.830463 0.030945 0.479388 -0.221777
C37   C     C_3   0.250826 0.449068 0.996995 -0.217768
C38   C     C_3   0.249542 0.551158 0.996808 -0.220834
C39   C     C_3   0.751384 0.949092 0.501230 -0.228390
C40   C     C_3   0.751387 0.050908 0.500224 -0.235977
H9    H     H_    0.181628 0.135479 0.663324 0.121302
H10   H     H_    0.887279 0.679457 0.037591 0.133711
H11   H     H_    0.923198 0.627120 0.927673 0.119373
H12   H     H_    0.926799 0.375662 0.076026 0.124976
H13   H     H_    0.592216 0.577783 0.256486 0.135955
H14   H     H_    0.383986 0.190039 0.532413 0.142031
H15   H     H_    0.674445 0.373942 0.171092 0.122257
H16   H     H_    0.396258 0.832365 0.540731 0.131056
C41   C     C_R   0.981289 0.319175 0.873525 0.041813
C42   C     C_R   0.141583 0.790790 0.290832 0.034621
C43   C     C_R   0.119189 0.823362 0.733585 0.031830
C44   C     C_R   0.115823 0.173857 0.264908 0.028798
C45   C     C_R   0.555150 0.850908 0.286429 -0.010959
C46   C     C_R   0.644014 0.270286 0.802559 0.010623
C47   C     C_R   0.482874 0.179513 0.373182 0.003647
C48   C     C_R   0.641002 0.719018 0.799747 0.018368
C49   C     C_R   0.915487 0.345506 0.881879 -0.164429
C50   C     C_R   0.154714 0.806237 0.363109 -0.170207
C51   C     C_R   0.122566 0.854211 0.670566 -0.180880
C52   C     C_R   0.118528 0.142375 0.327398 -0.165361
C53   C     C_R   0.510122 0.893908 0.276795 -0.232458
C54   C     C_R   0.653989 0.298213 0.867501 -0.174499
C55   C     C_R   0.419563 0.149631 0.378351 -0.203139
C56   C     C_R   0.647821 0.687960 0.862396 -0.172544
C57   C     C_R   0.441170 0.888372 0.247650 -0.129204
C58   C     C_R   0.594683 0.313371 0.908787 -0.156131
C59   C     C_R   0.365492 0.153221 0.325517 -0.154009
C60   C     C_R   0.586916 0.674501 0.902919 -0.164091
C61   C     C_R   0.859501 0.339153 0.831643 -0.194920
C62   C     C_R   0.100331 0.803414 0.415137 -0.160128
C63   C     C_R   0.069862 0.850424 0.616428 -0.158981
C64   C     C_R   0.066553 0.146577 0.381874 -0.152302
C65   C     C_R   0.419390 0.840692 0.221442 -0.148089
C66   C     C_R   0.525329 0.297681 0.888293 -0.129508
C67   C     C_R   0.374169 0.186199 0.266096 -0.134987
C68   C     C_R   0.519573 0.694768 0.883907 -0.134343
C69   C     C_R   0.868903 0.307340 0.771338 -0.169653
C70   C     C_R   0.031710 0.785817 0.395626 -0.129295
C71   C     C_R   0.012355 0.816124 0.624464 -0.136039
C72   C     C_R   0.010301 0.181767 0.374477 -0.124923
C73   C     C_R   0.463303 0.796288 0.230610 0.041665
C74   C     C_R   0.513614 0.270705 0.821768 0.064958
C75   C     C_R   0.437146 0.217202 0.258424 0.059127
C76   C     C_R   0.511033 0.724986 0.819551 0.064695
C77   C     C_R   0.934547 0.279905 0.760686 0.063194
C78   C     C_R   0.016464 0.768339 0.323426 0.062431
C79   C     C_R   0.006496 0.784135 0.687321 0.058707
C80   C     C_R   0.005386 0.214577 0.312353 0.064761
C81   C     C_R   0.990878 0.283649 0.813838 0.023991
C82   C     C_R   0.072172 0.769722 0.269649 0.026225
C83   C     C_R   0.061297 0.786293 0.742410 0.025798
C84   C     C_R   0.059745 0.212179 0.257094 0.022921
C85   C     C_R   0.527447 0.799739 0.272815 0.029751
C86   C     C_R   0.572369 0.262510 0.773435 0.026181
C87   C     C_R   0.492332 0.215068 0.313038 0.029137
C88   C     C_R   0.570627 0.731987 0.771783 0.021351
C89   C     C_R   0.445162 0.749193 0.196485 -0.158089
C90   C     C_R   0.444293 0.251611 0.803341 -0.135084
C91   C     C_R   0.445326 0.250071 0.196827 -0.140179
C92   C     C_R   0.444251 0.748665 0.802884 -0.145852
C93   C     C_R   0.944881 0.249719 0.697040 -0.130956
C94   C     C_R   0.946031 0.750634 0.304365 -0.141165
C95   C     C_R   0.946019 0.750808 0.696046 -0.134882
C96   C     C_R   0.946519 0.249261 0.304857 -0.134308
C97   C     C_R   0.483924 0.703386 0.211994 0.058296
C98   C     C_R   0.428506 0.233586 0.732152 0.083873
C99   C     C_R   0.506470 0.282539 0.189187 0.082056
C100  C     C_R   0.431311 0.771170 0.733426 0.064757
C101  C     C_R   0.008214 0.220064 0.687086 0.067361
C102  C     C_R   0.929819 0.732672 0.233135 0.075856
C103  C     C_R   0.938792 0.718880 0.758386 0.074249
C104  C     C_R   0.941019 0.282922 0.244314 0.077011
C105  C     C_R   0.062943 0.220967 0.741406 0.078222
C106  C     C_R   0.985007 0.732300 0.179560 0.070362
C107  C     C_R   0.994564 0.718386 0.811587 0.076701
C108  C     C_R   0.995742 0.282417 0.190331 0.073439
C109  C     C_R   0.539975 0.704585 0.265016 0.082787
C110  C     C_R   0.483946 0.233971 0.678753 0.063268
C111  C     C_R   0.560923 0.281994 0.243794 0.070636
C112  C     C_R   0.487437 0.771602 0.680676 0.077922
C113  C     C_R   0.053838 0.252223 0.804388 -0.150799
C114  C     C_R   0.055471 0.750937 0.197632 -0.161747
C115  C     C_R   0.055312 0.751622 0.803203 -0.153433
C116  C     C_R   0.055081 0.247840 0.197194 -0.159865
C117  C     C_R   0.558963 0.752213 0.298278 -0.166922
C118  C     C_R   0.555957 0.248168 0.699216 -0.174433
C119  C     C_R   0.553719 0.248442 0.304882 -0.157685
C120  C     C_R   0.556626 0.751353 0.699418 -0.162676
C121  C     C_R   0.468648 0.656352 0.175170 -0.148223
C122  C     C_R   0.357991 0.215867 0.712643 -0.145265
C123  C     C_R   0.514131 0.316163 0.128178 -0.159547
C124  C     C_R   0.362979 0.792788 0.715042 -0.145702
C125  C     C_R   0.017588 0.188614 0.624253 -0.130305
C126  C     C_R   0.859676 0.713620 0.214632 -0.145310
C127  C     C_R   0.876952 0.686877 0.768563 -0.169211
C128  C     C_R   0.881597 0.317355 0.236432 -0.142136
C129  C     C_R   0.506769 0.611461 0.192005 -0.138326
C130  C     C_R   0.342355 0.200397 0.641162 -0.152608
C131  C     C_R   0.573929 0.349069 0.122312 -0.165437
C132  C     C_R   0.350568 0.814452 0.646059 -0.130604
C133  C     C_R   0.079679 0.158484 0.616023 -0.114300
C134  C     C_R   0.844658 0.694998 0.144569 -0.142616
C135  C     C_R   0.871484 0.654290 0.829233 -0.165236
C136  C     C_R   0.876752 0.350467 0.176240 -0.136915
C137  C     C_R   0.133675 0.159221 0.669545 -0.148907
C138  C     C_R   0.898971 0.694273 0.091837 -0.143629
C139  C     C_R   0.927133 0.652875 0.880950 -0.147427
C140  C     C_R   0.930564 0.350005 0.122899 -0.150827
C141  C     C_R   0.561765 0.612515 0.244376 -0.163465
C142  C     C_R   0.396267 0.201885 0.588038 -0.129346
C143  C     C_R   0.627824 0.348526 0.175933 -0.131967
C144  C     C_R   0.405820 0.815214 0.594163 -0.141501
C145  C     C_R   0.126032 0.190324 0.731309 -0.127347
C146  C     C_R   0.968481 0.712284 0.108858 -0.158484
C147  C     C_R   0.987929 0.684609 0.872764 -0.133612
C148  C     C_R   0.989283 0.316404 0.129613 -0.168954
C149  C     C_R   0.578993 0.658489 0.279986 -0.137742
C150  C     C_R   0.466240 0.218236 0.606431 -0.136485
C151  C     C_R   0.621852 0.315362 0.235966 -0.141735
C152  C     C_R   0.473632 0.794209 0.610984 -0.132765
H17   H     H_    0.907903 0.372177 0.926983 0.126647
H18   H     H_    0.207326 0.821691 0.379151 0.137965
H19   H     H_    0.166126 0.882117 0.663552 0.135014
H20   H     H_    0.160889 0.113599 0.333646 0.132710
H21   H     H_    0.530527 0.932674 0.285907 0.129515
H22   H     H_    0.708122 0.304937 0.889380 0.140483
H23   H     H_    0.412094 0.122880 0.423634 0.141399
H24   H     H_    0.701089 0.677186 0.883081 0.133779
H25   H     H_    0.407389 0.921993 0.238580 0.166002
H26   H     H_    0.602980 0.334105 0.959559 0.136721
H27   H     H_    0.316720 0.129900 0.330224 0.140711
H28   H     H_    0.592680 0.651334 0.952154 0.139248
H29   H     H_    0.809225 0.360310 0.838189 0.141942
H30   H     H_    0.111114 0.815895 0.470708 0.144885
H31   H     H_    0.073053 0.874900 0.568291 0.153972
H32   H     H_    0.069117 0.121698 0.429654 0.136719
H33   H     H_    0.369300 0.839831 0.191069 0.176223
H34   H     H_    0.480901 0.307459 0.924563 0.111056
H35   H     H_    0.330697 0.187276 0.226209 0.140746
H36   H     H_    0.474169 0.686086 0.919661 0.121490
H37   H     H_    0.824458 0.305394 0.732329 0.138260
H38   H     H_    0.990869 0.786403 0.438198 0.133174
H39   H     H_    0.972253 0.815278 0.580839 0.122595
H40   H     H_    0.970573 0.182805 0.418197 0.115701
H41   H     H_    0.427866 0.653527 0.132504 0.165455
H42   H     H_    0.314131 0.214024 0.752040 0.125757
H43   H     H_    0.473840 0.317689 0.084758 0.105095
H44   H     H_    0.318408 0.792728 0.753463 0.143946
H45   H     H_    0.976858 0.186535 0.581277 0.112591
H46   H     H_    0.815776 0.712435 0.254024 0.127341
H47   H     H_    0.832879 0.685884 0.729034 0.133016
H48   H     H_    0.838291 0.319041 0.276494 0.110485
H49   H     H_    0.085764 0.134313 0.568082 0.129590
H50   H     H_    0.790781 0.680686 0.131354 0.132996
H51   H     H_    0.824203 0.629688 0.835687 0.131312
H52   H     H_    0.831019 0.376493 0.170956 0.122330
H53   H     H_    0.494171 0.575864 0.163594 0.156386
H54   H     H_    0.288151 0.187473 0.626806 0.135942
H55   H     H_    0.578355 0.375215 0.076103 0.118684
H56   H     H_    0.297889 0.830732 0.632892 0.133908
H57   H     H_    0.169867 0.189672 0.771130 0.110044
H58   H     H_    0.008866 0.709900 0.065944 0.117141
H59   H     H_    0.029430 0.682283 0.914941 0.101733
H60   H     H_    0.029308 0.317135 0.086574 0.133325
H61   H     H_    0.624824 0.657532 0.317283 0.138039
H62   H     H_    0.506041 0.218080 0.563353 0.152312
H63   H     H_    0.665386 0.316417 0.276107 0.109023
H64   H     H_    0.515143 0.796676 0.569123 0.122071
H65   H     H_    0.995731 0.034141 0.980376 0.153813
H66   H     H_    0.008024 0.963817 0.069808 0.156722
H67   H     H_    0.538346 0.546148 0.660850 0.162644
H68   H     H_    0.538307 0.452567 0.661160 0.162205
C153  C     C_R   0.369280 0.048363 0.921703 0.595071
C154  C     C_R   0.391665 0.957616 0.004473 0.596640
C155  C     C_R   0.894953 0.552579 0.537542 0.593372
C156  C     C_R   0.894272 0.446927 0.540253 0.594529
C157  C     C_R   0.437732 0.026029 0.924271 -0.278799
C158  C     C_R   0.449878 0.982923 0.967656 -0.372916
C159  C     C_R   0.958045 0.526003 0.519011 -0.323936
C160  C     C_R   0.957787 0.472832 0.520827 -0.317201
C161  C     C_R   0.319179 0.976581 0.993752 -0.074314
C162  C     C_R   0.311642 0.026539 0.963210 -0.121937
C163  C     C_R   0.825230 0.472446 0.534467 -0.121090
C164  C     C_R   0.825415 0.527248 0.533667 -0.117009
C165  C     C_R   0.254027 0.948868 0.013738 -0.144122
C166  C     C_R   0.246402 0.053335 0.973580 -0.161943
C167  C     C_R   0.756948 0.445748 0.535154 -0.153379
C168  C     C_R   0.757046 0.553919 0.534663 -0.152662
C169  C     C_R   0.187095 0.976187 0.019321 0.005102
C170  C     C_R   0.181712 0.025146 0.985986 0.011014
C171  C     C_R   0.696526 0.472163 0.565653 0.014145
C172  C     C_R   0.696579 0.527223 0.565458 0.013152
C173  C     C_R   0.124414 0.956818 0.056139 0.048864
C174  C     C_R   0.111616 0.043428 0.965545 0.055778
C175  C     C_R   0.641586 0.445879 0.606104 0.045639
C176  C     C_R   0.641622 0.553229 0.605729 0.044175
C177  C     C_R   0.056266 0.978960 0.043147 -0.185397
C178  C     C_R   0.049480 0.020034 0.994507 -0.191965
C179  C     C_R   0.580954 0.472672 0.631513 -0.194250
C180  C     C_R   0.580976 0.526208 0.631335 -0.194540
H69   H     H_    0.482544 0.043544 0.894704 0.182784
H70   H     H_    0.505731 0.970445 0.972537 0.165847
H71   H     H_    0.009785 0.546111 0.517432 0.197545
H72   H     H_    0.009252 0.452543 0.520464 0.197322
O53   O     O_3   0.359670 0.091828 0.878413 -0.590985
C181  C     C_3   0.326735 0.076868 0.811728 -0.373596
H73   H     H_    0.271279 0.060734 0.820711 0.163305
H74   H     H_    0.361134 0.048661 0.781679 0.175617
H75   H     H_    0.320807 0.111525 0.776365 0.190801
O54   O     O_3   0.404038 0.921062 0.059788 -0.604033
C182  C     C_3   0.471151 0.894999 0.052383 -0.223531
H76   H     H_    0.516854 0.919706 0.071660 0.140803
H77   H     H_    0.479758 0.881011 0.995314 0.158877
H78   H     H_    0.471222 0.860623 0.088138 0.213868
O55   O     O_3   0.905647 0.598193 0.575225 -0.559581
C183  C     C_3   0.902635 0.587987 0.651314 -0.291873
H79   H     H_    0.927249 0.550250 0.667316 0.139720
H80   H     H_    0.845401 0.589844 0.670644 0.155322
H81   H     H_    0.934968 0.617956 0.679797 0.209657
O56   O     O_3   0.903820 0.401431 0.578931 -0.560623
C184  C     C_3   0.894194 0.411149 0.654482 -0.290274
H82   H     H_    0.835571 0.408694 0.668921 0.156132
H83   H     H_    0.917181 0.448995 0.672397 0.137800
H84   H     H_    0.924045 0.381211 0.685652 0.207959
O57   O     O_3   0.327901 0.448374 0.108434 -0.536998
C185  C     C_3   0.401438 0.438752 0.126421 -0.254999
H85   H     H_    0.404575 0.426114 0.184578 0.194946
H86   H     H_    0.435407 0.474112 0.120401 0.160371
H87   H     H_    0.423453 0.407150 0.091956 0.136034
O58   O     O_3   0.163108 0.551658 0.101685 -0.578287
C186  C     C_3   0.098382 0.581001 0.101092 -0.275222
H88   H     H_    0.090987 0.598476 0.156088 0.196353
H89   H     H_    0.050333 0.556082 0.089614 0.136230
H90   H     H_    0.101413 0.612986 0.060313 0.134372
O59   O     O_3   0.345059 0.555268 0.101129 -0.644213
C187  C     C_3   0.303781 0.548007 0.165560 -0.019480
H91   H     H_    0.274365 0.584055 0.178937 0.193292
H92   H     H_    0.341963 0.540444 0.211623 0.124529
H93   H     H_    0.265079 0.515631 0.164251 0.260914
O60   O     O_3   0.181295 0.453211 0.111983 -0.525121
C188  C     C_3   0.112343 0.434333 0.133083 -0.180501
H94   H     H_    0.099750 0.397801 0.103910 0.146063
H95   H     H_    0.068903 0.463298 0.122826 0.134949
H96   H     H_    0.113426 0.425852 0.192795 0.186677
O61   O     O_3   0.686869 0.945865 0.621091 -0.503042
C189  C     C_3   0.708516 0.933269 0.693504 -0.221415
H97   H     H_    0.659837 0.920722 0.724757 0.182217
H98   H     H_    0.732982 0.966845 0.722474 0.105823
H99   H     H_    0.747867 0.900783 0.693415 0.188621
O62   O     O_3   0.627627 0.054700 0.446576 -0.511733
C190  C     C_3   0.592086 0.054211 0.377606 -0.231199
H100  H     H_    0.593797 0.015710 0.350786 0.114169
H101  H     H_    0.616500 0.083801 0.340805 0.165308
H102  H     H_    0.533958 0.063907 0.385751 0.185997
O63   O     O_3   0.655154 0.040689 0.592111 -0.475290
C191  C     C_3   0.644421 0.064481 0.660878 -0.165226
H103  H     H_    0.669890 0.103335 0.662727 0.174771
H104  H     H_    0.665362 0.040319 0.706572 0.125387
H105  H     H_    0.585123 0.069554 0.669395 0.177333
O64   O     O_3   0.619313 0.960904 0.494082 -0.470870
C192  C     C_3   0.576644 0.921871 0.461550 -0.211199
H106  H     H_    0.608277 0.886247 0.450653 0.124783
H107  H     H_    0.551250 0.936601 0.410568 0.136111
H108  H     H_    0.532174 0.911392 0.499888 0.181054
C193  C     C_1   0.129300 0.919995 0.115372 0.190550
N1    N     N_1   0.132253 0.890910 0.163481 -0.203981
C194  C     C_1   0.101627 0.080166 0.906583 0.186730
N2    N     N_1   0.093347 0.109263 0.859028 -0.199937
C195  C     C_1   0.656508 0.397251 0.641945 0.165229
N3    N     N_1   0.669737 0.359104 0.672195 -0.244197
C196  C     C_1   0.656596 0.601862 0.641159 0.169878
N4    N     N_1   0.670008 0.640077 0.670918 -0.242840
C197  C     C_1   0.313236 0.448075 0.872434 0.225174
N5    N     N_1   0.362164 0.431298 0.840561 -0.203298
C198  C     C_1   0.188452 0.552813 0.870293 0.227962
N6    N     N_1   0.140024 0.569604 0.837204 -0.203525
C199  C     C_1   0.316042 0.552275 0.873717 0.221366
N7    N     N_1   0.366307 0.568663 0.843242 -0.202130
C200  C     C_1   0.184901 0.448821 0.874239 0.235466
N8    N     N_1   0.134447 0.432751 0.843556 -0.194422
C201  C     C_1   0.888803 0.942703 0.502367 0.190463
N9    N     N_1   0.937590 0.921668 0.529275 -0.236441
C202  C     C_1   0.859102 0.057670 0.412972 0.203023
N10   N     N_1   0.881473 0.078456 0.361372 -0.180985
C203  C     C_1   0.882497 0.045921 0.538446 0.133337
N11   N     N_1   0.922961 0.057693 0.584337 -0.208078
C204  C     C_1   0.830309 0.955320 0.388829 0.200315
N12   N     N_1   0.833763 0.944202 0.327422 -0.174670
C205  C     C_1   0.038266 0.333843 0.924176 0.119430
N13   N     N_1   0.083911 0.346172 0.964427 -0.250416
C206  C     C_1   0.200064 0.800736 0.240568 0.172886
N14   N     N_1   0.246375 0.809051 0.199497 -0.229660
C207  C     C_1   0.174634 0.834026 0.788001 0.110181
N15   N     N_1   0.219059 0.843190 0.831303 -0.222486
C208  C     C_1   0.169523 0.162310 0.209630 0.115359
N16   N     N_1   0.212402 0.152336 0.165515 -0.219109
C209  C     C_1   0.631557 0.863774 0.286151 0.189917
N17   N     N_1   0.692607 0.874899 0.284701 -0.149185
C210  C     C_1   0.704495 0.237886 0.783617 0.175383
N18   N     N_1   0.753079 0.211017 0.771226 -0.152632
C211  C     C_1   0.536452 0.170216 0.429936 0.117407
N19   N     N_1   0.579321 0.162313 0.475298 -0.159207
C212  C     C_1   0.704840 0.748616 0.782067 0.160785
N20   N     N_1   0.756094 0.773349 0.770920 -0.160468

loop_
_geom_bond_atom_site_label_1
_geom_bond_atom_site_label_2
_geom_bond_distance
_ccdc_geom_bond_type
C181  H74   1.113497 S    
C188  H94   1.110119 S    
C35   C204  1.489059 S    
C69   H37   1.081786 S    
C184  H82   1.111143 S    
C47   C87   1.439866 A    
O26   C7    1.277741 A    
C170  C174  1.421498 A    
O30   C11   1.276470 A    
C66   H34   1.082774 S    
C181  H75   1.108887 S    
C111  C119  1.416251 A    
H13   C141  1.082609 S    
C191  H103  1.109407 S    
C162  C166  1.400351 A    
C192  H108  1.109164 S    
Zn12  O26   1.927771 S    
C73   C85   1.407689 A    
C199  N7    1.158047 T    
C74   C90   1.405023 A    
C34   C199  1.495608 S    
C58   H26   1.080859 S    
O54   C182  1.414415 S    
C98   C110  1.410604 A    
C112  C120  1.416817 A    
C63   C71   1.386541 A    
C154  O54   1.399156 S    
C26   C28   1.556174 S    
C29   H5    1.118596 S    
C122  C130  1.392064 A    
C59   C67   1.386259 A    
C126  H46   1.081532 S    
C50   H18   1.084757 S    
C32   C39   1.569692 S    
C110  C150  1.416508 A    
O11   C7    1.274040 A    
C28   O60   1.423195 S    
O34   C15   1.279290 A    
C133  C137  1.388698 A    
C50   C62   1.380941 A    
C21   C37   1.497458 S    
C64   H32   1.082429 S    
C80   C84   1.421782 A    
Zn1   O44   1.952950 S    
C25   H1    1.119056 S    
C31   C40   1.579140 S    
C68   H36   1.082674 S    
C173  C177  1.397817 A    
C185  H85   1.109140 S    
C128  C136  1.392855 A    
C151  H63   1.082197 S    
Zn5   O48   1.952950 S    
C69   C77   1.415731 A    
C56   H24   1.084489 S    
Zn6   O47   1.952948 S    
C102  C106  1.409558 A    
C155  C159  1.392774 A    
C82   C114  1.432303 A    
Zn7   O46   1.950369 S    
C30   O62   1.420946 S    
O16   C12   1.281278 A    
C62   C70   1.385081 A    
C165  C169  1.424547 A    
Zn16  O4    1.958524 S    
C63   H31   1.082170 S    
C187  H91   1.108352 S    
C43   C207  1.445567 S    
Zn1   O13   1.933617 S    
C132  H56   1.082702 S    
C43   C83   1.440160 A    
Zn3   O15   1.934047 S    
C24   C40   1.497740 S    
Zn4   O16   1.938284 S    
O41   C21   1.280402 A    
C36   C202  1.488918 S    
C103  C127  1.417027 A    
C188  H96   1.109013 S    
C28   H4    1.119340 S    
C31   O63   1.426648 S    
C193  N1    1.155248 T    
C101  C125  1.417856 A    
C49   C61   1.384209 A    
C47   C211  1.445229 S    
C25   O57   1.421195 S    
C194  N2    1.156526 T    
C46   C54   1.399514 A    
C184  H84   1.105611 S    
C31   H7    1.118414 S    
C91   C99   1.408563 A    
C174  C178  1.395411 A    
C105  C113  1.416561 A    
C92   C100  1.411161 A    
C44   C208  1.444382 S    
C175  C195  1.443710 S    
Zn16  O34   1.928520 S    
O56   C184  1.411316 S    
C185  H87   1.110933 S    
C100  C124  1.414880 A    
C157  H69   1.083150 S    
C32   O64   1.425539 S    
C159  H71   1.083156 S    
C174  C194  1.444506 S    
C166  C170  1.411765 A    
C160  H72   1.083121 S    
C191  H105  1.109159 S    
C147  H59   1.082236 S    
Zn10  O22   1.927771 S    
C125  C133  1.392729 A    
C148  H60   1.076643 S    
C141  C149  1.392915 A    
C205  N13   1.156963 T    
O25   C8    1.275770 A    
Zn13  O29   1.935308 S    
C104  C128  1.418352 A    
C34   C198  1.496262 S    
Zn10  O2    1.953818 S    
C130  H54   1.081294 S    
C145  H57   1.082165 S    
O29   C12   1.275433 A    
C135  H51   1.082525 S    
Zn15  O33   1.935308 S    
C7    C93   1.450807 S    
C86   C118  1.433773 A    
C94   C102  1.410101 A    
C176  C180  1.395129 A    
H15   C143  1.082643 S    
C42   C50   1.396968 A    
C107  C147  1.420153 A    
O53   C181  1.409961 S    
C156  C163  1.435430 A    
O37   C17   1.296647 A    
C10   C114  1.455937 S    
O48   C23   1.280531 A    
C207  N15   1.157715 T    
C2    C92   1.451174 S    
C77   C81   1.418132 A    
C110  C118  1.421095 A    
C149  H61   1.080445 S    
C175  C179  1.395057 A    
H10   C138  1.081602 S    
C204  N12   1.157664 T    
C99   C123  1.417088 A    
C42   C206  1.436154 S    
C97   C121  1.419405 A    
C35   C36   1.603906 S    
Zn16  O35   1.932730 S    
C90   C98   1.408354 A    
C203  N11   1.157762 T    
C153  O53   1.384169 S    
C22   C38   1.493198 S    
C155  O55   1.381449 S    
C132  C144  1.389351 A    
Zn7   O10   1.938242 S    
C146  H58   1.081445 S    
O33   C16   1.293479 A    
C61   H29   1.082442 S    
O40   C20   1.272350 A    
C189  H97   1.109164 S    
C65   H33   1.072404 S    
C202  N10   1.157835 T    
C187  H93   1.098358 S    
C55   C59   1.383922 A    
C66   C74   1.415960 A    
C210  N18   1.156620 T    
C23   C39   1.497741 S    
Zn5   O17   1.933617 S    
C57   H25   1.082841 S    
C190  H102  1.108310 S    
C55   H23   1.084561 S    
C34   C38   1.610353 S    
C70   H38   1.080912 S    
C33   C200  1.493813 S    
C108  C116  1.417859 A    
H12   C140  1.082618 S    
C49   H17   1.084471 S    
C136  H52   1.082606 S    
C127  H47   1.082042 S    
C27   H3    1.108889 S    
C32   H8    1.117857 S    
Zn8   O3    1.947326 S    
C156  C160  1.390829 A    
C183  H79   1.115841 S    
O38   C18   1.277304 A    
C74   C86   1.412001 A    
C71   C79   1.415588 A    
C135  C139  1.388368 A    
O5    C1    1.279207 A    
C98   C122  1.417766 A    
C67   C75   1.413765 A    
O32   C9    1.278776 A    
C41   C81   1.437902 A    
C157  C158  1.384352 A    
C71   H39   1.082047 S    
Zn15  O51   1.953976 S    
C45   C209  1.441967 S    
C45   C53   1.399666 A    
Zn11  O28   1.928268 S    
C155  C164  1.436298 A    
C26   H2    1.116855 S    
C52   C64   1.384013 A    
C169  C170  1.408183 A    
C51   C63   1.383200 A    
C79   C95   1.414364 A    
C29   C39   1.582662 S    
C36   C40   1.590903 S    
O8    C4    1.270074 A    
C154  C158  1.421888 A    
C70   C78   1.418766 A    
O50   C18   1.302742 A    
C101  C105  1.408496 A    
C127  C135  1.392410 A    
Zn1   O1    1.942160 S    
C142  C150  1.392616 A    
Zn13  O1    1.953516 S    
C104  C108  1.408651 A    
C53   H21   1.084039 S    
C60   C68   1.387839 A    
C201  N9    1.157096 T    
C186  H90   1.112606 S    
C16   C120  1.462775 S    
C121  H41   1.080196 S    
C169  C173  1.423988 A    
C191  H104  1.108473 S    
C17   C166  1.485461 S    
O9    C5    1.279472 A    
O39   C19   1.270665 A    
O36   C13   1.300741 A    
C78   C94   1.414269 A    
C176  C196  1.442535 S    
C47   C55   1.398770 A    
C121  C129  1.392118 A    
C168  C172  1.422942 A    
O13   C9    1.273671 A    
H65   C178  1.083856 S    
C138  C146  1.392761 A    
Zn1   O8    1.940798 S    
Zn2   O7    1.933574 S    
C83   C115  1.428086 A    
Zn3   O6    1.938242 S    
O18   C14   1.270068 A    
H68   C179  1.084312 S    
O6    C2    1.269730 A    
C172  C176  1.422193 A    
C46   C210  1.437885 S    
C158  H70   1.080039 S    
C209  N17   1.157701 T    
C152  H64   1.081788 S    
C183  H81   1.105661 S    
Zn14  O30   1.928520 S    
C36   C203  1.488304 S    
Zn15  O3    1.953516 S    
C154  C161  1.433328 A    
Zn11  O3    1.958826 S    
C134  H50   1.082672 S    
C75   C87   1.419107 A    
C43   C51   1.398183 A    
C8    C94   1.453192 S    
C44   C52   1.399142 A    
C185  H86   1.112410 S    
C95   C103  1.409256 A    
C27   C38   1.583887 S    
O63   C191  1.412094 S    
H14   C142  1.082287 S    
C93   C101  1.408558 A    
Zn8   O20   1.938284 S    
C88   C120  1.431679 A    
O62   C190  1.413909 S    
C96   C104  1.407432 A    
C78   C82   1.419253 A    
C27   O59   1.429732 S    
C212  N20   1.155737 T    
C150  H62   1.074287 S    
C187  H92   1.109187 S    
C99   C111  1.408445 A    
C4    C90   1.447330 S    
C97   C109  1.409788 A    
C80   C96   1.413980 A    
C181  H73   1.112646 S    
C48   C212  1.436487 S    
C89   C97   1.412979 A    
C179  C180  1.386901 A    
C188  H95   1.111939 S    
C1    C91   1.453947 S    
Zn8   O9    1.934003 S    
C111  C151  1.419791 A    
Zn7   O19   1.934047 S    
C109  C149  1.419782 A    
C184  H83   1.115693 S    
C139  C147  1.393253 A    
C11   C115  1.446939 S    
C171  C172  1.426364 A    
O7    C3    1.271710 A    
C15   C119  1.446352 S    
C156  O56   1.382690 S    
C159  C160  1.377738 A    
O19   C15   1.278137 A    
C13   C117  1.460015 S    
C112  C152  1.418785 A    
C100  C112  1.411659 A    
Zn9   O24   1.928268 S    
Zn6   O18   1.940843 S    
Zn10  O23   1.935057 S    
C105  C145  1.419405 A    
C163  C164  1.419738 A    
C81   C113  1.427440 A    
Zn13  O32   1.928024 S    
C123  C131  1.392960 A    
C190  H101  1.111434 S    
C25   C37   1.571499 S    
Zn15  O36   1.928024 S    
O15   C11   1.281180 A    
O42   C22   1.265895 A    
Zn4   O1    1.947326 S    
O17   C13   1.259000 A    
C30   C32   1.556538 S    
C102  C126  1.418663 A    
C54   C58   1.384267 A    
C28   C37   1.570860 S    
Zn9   O37   1.951420 S    
O12   C8    1.277884 A    
C186  H88   1.109243 S    
Zn11  O39   1.951420 S    
C106  C114  1.418510 A    
C14   C118  1.465832 S    
C195  N3    1.156107 T    
H16   C144  1.082662 S    
C108  C148  1.416488 A    
C53   C57   1.379224 A    
C84   C116  1.430078 A    
Zn2   O43   1.952948 S    
C56   C60   1.385715 A    
C107  C115  1.416162 A    
C42   C82   1.437785 A    
C126  C134  1.391983 A    
C200  N8    1.157886 T    
Zn5   O3    1.942160 S    
C48   C56   1.399805 A    
Zn6   O4    1.942159 S    
C124  H44   1.078879 S    
Zn2   O14   1.940843 S    
C29   O61   1.425697 S    
C58   C66   1.386762 A    
C182  H76   1.111049 S    
C33   C34   1.598049 S    
C177  C178  1.388259 A    
C109  C117  1.418297 A    
C189  H98   1.111721 S    
C46   C86   1.431510 A    
C59   H27   1.082849 S    
C171  C175  1.422546 A    
C87   C119  1.427125 A    
O28   C5    1.279576 A    
C153  C157  1.386372 A    
C85   C117  1.437046 A    
Zn3   O42   1.950369 S    
C131  H55   1.081949 S    
Zn7   O4    1.947327 S    
O21   C4    1.280830 A    
C137  C145  1.393228 A    
C208  N16   1.157314 T    
C64   C72   1.385954 A    
C106  C146  1.421111 A    
C65   C73   1.416026 A    
C164  C168  1.435448 A    
C73   C89   1.409455 A    
C189  H99   1.110995 S    
C68   C76   1.416201 A    
Zn2   O2    1.942159 S    
C161  C162  1.414229 A    
Zn14  O2    1.958524 S    
H9    C137  1.082278 S    
C190  H100  1.112384 S    
O55   C183  1.411289 S    
C211  N19   1.157793 T    
C26   C38   1.574882 S    
C57   C65   1.383127 A    
C198  N6    1.158094 T    
Zn13  O49   1.953976 S    
O44   C21   1.267881 A    
C122  H42   1.081617 S    
C163  C167  1.430976 A    
C62   H30   1.080895 S    
C153  C162  1.418473 A    
C45   C85   1.440505 A    
C183  H80   1.111213 S    
Zn12  O27   1.935057 S    
C140  C148  1.392900 A    
C12   C116  1.455869 S    
H66   C177  1.084023 S    
Zn3   O2    1.947327 S    
O46   C24   1.274865 A    
O47   C24   1.273860 A    
C206  N14   1.154174 T    
C30   H6    1.118465 S    
Zn16  O52   1.951462 S    
C131  C143  1.388550 A    
C54   H22   1.084039 S    
C33   C37   1.607102 S    
Zn8   O45   1.950371 S    
C61   C69   1.386532 A    
O27   C6    1.275773 A    
C124  C132  1.392963 A    
C75   C91   1.414674 A    
C19   C168  1.504820 S    
C76   C92   1.405159 A    
Zn12  O4    1.953818 S    
C20   C167  1.502678 S    
C130  C142  1.387301 A    
H11   C139  1.082362 S    
C29   C31   1.554809 S    
C134  C138  1.387411 A    
C76   C88   1.411669 A    
C192  H107  1.105265 S    
O24   C1    1.280051 A    
C35   C201  1.486501 S    
C129  C141  1.387508 A    
C167  C171  1.421089 A    
C9    C113  1.448708 S    
C33   C197  1.493816 S    
C3    C89   1.447981 S    
O43   C22   1.281214 A    
O14   C10   1.278813 A    
H67   C180  1.084316 S    
Zn4   O41   1.950371 S    
C79   C83   1.420203 A    
C186  H89   1.111853 S    
Zn5   O12   1.940798 S    
C30   C40   1.575111 S    
Zn6   O11   1.933574 S    
C18   C165  1.494833 S    
Zn9   O21   1.932480 S    
Zn14  O50   1.951462 S    
O35   C14   1.293520 A    
C192  H106  1.110638 S    
Zn12  O40   1.953933 S    
C173  C193  1.440797 S    
Zn9   O1    1.958826 S    
C129  H53   1.082800 S    
C60   H28   1.082682 S    
O52   C20   1.305428 A    
C136  C140  1.388458 A    
O64   C192  1.408603 S    
C41   C205  1.443865 S    
C67   H35   1.078274 S    
C41   C49   1.398667 A    
O22   C3    1.279670 A    
C161  C165  1.441358 A    
C103  C107  1.408017 A    
C128  H48   1.082353 S    
C182  H78   1.101742 S    
O49   C17   1.275961 A    
Zn14  O31   1.932730 S    
C143  C151  1.393065 A    
O61   C189  1.413817 S    
O51   C19   1.308176 A    
O31   C10   1.278103 A    
C52   H20   1.084651 S    
Zn4   O5    1.934003 S    
O59   C187  1.411162 S    
O58   C186  1.413117 S    
C197  N5    1.157994 T    
C182  H77   1.113630 S    
C123  H43   1.082163 S    
O20   C16   1.268648 A    
C133  H49   1.082153 S    
O60   C188  1.410850 S    
O10   C6    1.277805 A    
O23   C2    1.283395 A    
C51   H19   1.084649 S    
Zn11  O25   1.932480 S    
Zn10  O38   1.953933 S    
C144  C152  1.393731 A    
C48   C88   1.428694 A    
C5    C95   1.453278 S    
O45   C23   1.267947 A    
C26   O58   1.423227 S    
C6    C96   1.453536 S    
C72   C80   1.416032 A    
C25   C27   1.558604 S    
C44   C84   1.439162 A    
O57   C185  1.411862 S    
C35   C39   1.592661 S    
C125  H45   1.082458 S    
C77   C93   1.413709 A    
C196  N4    1.155592 T    
C72   H40   1.082384 S    
