data_mof_unit_13821.cif
_audit_creation_date              2012-12-10T20:55:07-0500
_audit_creation_method            fapswitch 2.2
_symmetry_space_group_name_H-M    P1
_symmetry_Int_Tables_number       1
_space_group_crystal_system       triclinic
_cell_length_a                    15.943563
_cell_length_b                    15.030477
_cell_length_c                    10.55264
_cell_angle_alpha                 89.91547
_cell_angle_beta                  90.058914
_cell_angle_gamma                 89.828899
_cell_volume                      2528.81248766

loop_
_atom_site_label
_atom_site_type_symbol
_atom_type_description
_atom_site_fract_x
_atom_site_fract_y
_atom_site_fract_z
_atom_type_partial_charge
C1    C     C_R   0.338860 0.499868 0.499728 0.959320
C2    C     C_R   0.562676 0.952883 0.567753 0.374404
C3    C     C_R   0.500193 0.904973 0.499977 -0.178751
C4    C     C_R   0.560687 0.047298 0.571247 -0.045537
C5    C     C_R   0.440153 0.047466 0.426084 -0.044708
C6    C     C_R   0.500406 0.095074 0.498518 -0.188732
C7    C     C_1   0.500144 0.807053 0.500110 0.075209
C8    C     C_1   0.500181 0.192983 0.499173 0.098600
C9    C     C_R   0.493376 0.500074 0.257753 0.940408
C10   C     C_R   0.478483 0.499958 0.734740 0.954986
C11   C     C_R   0.377829 0.635187 0.135655 0.396059
C12   C     C_R   0.661113 0.499779 0.500136 0.908427
C13   C     C_R   0.380341 0.646259 0.870739 0.393428
C14   C     C_R   0.348228 0.712997 0.074943 0.226410
C15   C     C_R   0.354702 0.720661 0.942013 0.218540
C16   C     C_R   0.420102 0.573156 0.932277 -0.126583
C17   C     C_R   0.423764 0.570319 0.066128 -0.109960
C18   C     C_R   0.469849 0.498750 0.124188 -0.111472
C19   C     C_R   0.450423 0.497870 0.865722 -0.117801
C20   C     C_R   0.486913 0.420606 0.054058 -0.084347
C21   C     C_R   0.461283 0.417334 0.929525 -0.062333
C22   C     C_R   0.956038 0.579895 0.486141 -0.058988
C23   C     C_R   0.955867 0.416583 0.484918 -0.056353
C24   C     C_R   0.044205 0.579377 0.486905 -0.056730
C25   C     C_R   0.912784 0.498257 0.486766 0.022660
C26   C     C_R   0.087295 0.497363 0.485876 0.025679
C27   C     C_R   0.541382 0.347477 0.101124 0.142521
C28   C     C_R   0.506999 0.266553 0.141647 -0.094062
C29   C     C_R   0.559473 0.197672 0.182678 -0.146455
C30   C     C_R   0.646134 0.209627 0.185497 -0.134562
C31   C     C_R   0.680830 0.290315 0.146102 -0.133901
C32   C     C_R   0.628678 0.359116 0.103886 -0.156654
C33   C     C_R   0.422088 0.335273 0.879107 0.151659
C34   C     C_R   0.043948 0.416096 0.480496 -0.054638
C35   C     C_R   0.469556 0.260061 0.845762 -0.100209
C36   C     C_R   0.429038 0.182853 0.804470 -0.146838
C37   C     C_R   0.341771 0.180571 0.794674 -0.142265
C38   C     C_R   0.294414 0.255197 0.827770 -0.160130
C39   C     C_R   0.334292 0.332359 0.869031 -0.156499
C40   C     C_R   0.091351 0.664538 0.483890 0.141703
C41   C     C_R   0.133576 0.694761 0.592376 -0.153551
C42   C     C_R   0.176766 0.775597 0.589523 -0.157327
C43   C     C_R   0.178650 0.826215 0.478350 -0.096787
C44   C     C_R   0.137307 0.796118 0.369777 -0.098212
C45   C     C_1   0.823697 0.498334 0.492775 -0.042061
C46   C     C_R   0.093589 0.715612 0.372430 -0.142684
C47   C     C_R   0.909074 0.665593 0.487513 0.144061
C48   C     C_R   0.860833 0.691389 0.382160 -0.149196
C49   C     C_R   0.816544 0.771841 0.383600 -0.143050
C50   C     C_R   0.820280 0.827074 0.489893 -0.103064
C51   C     C_R   0.868141 0.801811 0.595079 -0.123487
C52   C     C_R   0.912341 0.721292 0.594166 -0.141635
C53   C     C_R   0.910365 0.330334 0.487568 0.151249
C54   C     C_R   0.919160 0.273518 0.592712 -0.161738
C55   C     C_R   0.893307 0.184905 0.585187 -0.117411
C56   C     C_1   0.176391 0.497285 0.489648 -0.043182
C57   C     C_R   0.857308 0.152848 0.473580 -0.101765
C58   C     C_R   0.846808 0.209517 0.369686 -0.157034
C59   C     C_R   0.872462 0.298244 0.376738 -0.148950
C60   C     C_R   0.088424 0.329373 0.467240 0.143687
C61   C     C_R   0.126672 0.289584 0.573012 -0.156352
C62   C     C_R   0.149185 0.199492 0.569633 -0.158853
C63   C     C_R   0.133841 0.148859 0.461207 -0.085116
C64   C     C_R   0.098017 0.188675 0.354395 -0.118705
C65   C     C_R   0.076604 0.278872 0.356554 -0.161974
C66   C     C_R   0.380876 0.095314 0.338923 0.160652
C67   C     C_1   0.250843 0.498898 0.494501 -0.153322
C68   C     C_R   0.335528 0.170718 0.379020 -0.152093
C69   C     C_R   0.288450 0.220512 0.292404 -0.119406
C70   C     C_R   0.279886 0.191620 0.167453 -0.150761
C71   C     C_R   0.321241 0.114635 0.127632 -0.168109
C72   C     C_R   0.372614 0.067673 0.211889 -0.099029
C73   C     C_R   0.620016 0.095404 0.657237 0.167055
C74   C     C_R   0.666560 0.169037 0.614485 -0.149241
C75   C     C_R   0.712727 0.220335 0.699930 -0.122254
C76   C     C_R   0.717934 0.195371 0.827118 -0.144554
C77   C     C_R   0.675473 0.119979 0.869674 -0.164311
C78   C     C_1   0.749201 0.499059 0.496906 -0.185599
C79   C     C_R   0.626122 0.070792 0.785833 -0.106125
C80   C     C_R   0.437811 0.953059 0.431567 0.370964
H1    H     H_    0.439978 0.257065 0.140063 0.152903
H2    H     H_    0.296623 0.389453 0.895643 0.128393
H3    H     H_    0.315635 0.662575 0.291554 0.382453
H4    H     H_    0.328036 0.693184 0.715889 0.374762
H5    H     H_    0.267574 0.809655 0.094100 0.346440
H6    H     H_    0.343222 0.849189 0.935291 0.347558
H7    H     H_    0.132376 0.656113 0.679058 0.132558
H8    H     H_    0.208495 0.799229 0.673615 0.172769
H9    H     H_    0.211904 0.888874 0.476475 0.163476
H10   H     H_    0.138898 0.835330 0.283711 0.143297
H11   H     H_    0.061477 0.693030 0.287949 0.124136
H12   H     H_    0.533469 0.134714 0.211871 0.132116
H13   H     H_    0.857732 0.649253 0.299120 0.122165
H14   H     H_    0.779409 0.791429 0.302246 0.131314
H15   H     H_    0.786107 0.889416 0.490750 0.153086
H16   H     H_    0.870893 0.844578 0.677396 0.136949
H17   H     H_    0.948894 0.702199 0.676435 0.122821
H18   H     H_    0.949523 0.296832 0.678248 0.120202
H19   H     H_    0.901686 0.140959 0.665572 0.133991
H20   H     H_    0.837908 0.084034 0.467420 0.126350
H21   H     H_    0.821587 0.183785 0.282208 0.116599
H22   H     H_    0.867639 0.340339 0.293674 0.113159
H23   H     H_    0.686065 0.155654 0.216720 0.113117
H24   H     H_    0.134405 0.326848 0.659946 0.119991
H25   H     H_    0.176189 0.167839 0.652090 0.122856
H26   H     H_    0.150395 0.078970 0.459580 0.130350
H27   H     H_    0.086575 0.149603 0.270105 0.129716
H28   H     H_    0.046325 0.308198 0.274545 0.121071
H29   H     H_    0.337218 0.192013 0.476913 0.148781
H30   H     H_    0.257157 0.280701 0.323082 0.161818
H31   H     H_    0.241623 0.229160 0.101499 0.138258
H32   H     H_    0.315038 0.092290 0.030735 0.147568
H33   H     H_    0.407421 0.010820 0.176959 0.163391
H34   H     H_    0.748083 0.299303 0.146733 0.113691
H35   H     H_    0.665802 0.188126 0.515512 0.144678
H36   H     H_    0.745073 0.279188 0.667115 0.156867
H37   H     H_    0.754844 0.234446 0.892585 0.131033
H38   H     H_    0.679463 0.100452 0.968178 0.140137
H39   H     H_    0.590580 0.015084 0.822318 0.156215
H40   H     H_    0.373011 0.846184 0.386708 0.364914
H41   H     H_    0.626108 0.845589 0.616965 0.343283
H42   H     H_    0.656164 0.421197 0.072662 0.114012
H43   H     H_    0.537271 0.261098 0.852732 0.152184
H44   H     H_    0.464711 0.124239 0.780783 0.136925
H45   H     H_    0.310900 0.120474 0.763277 0.125440
H46   H     H_    0.226722 0.253030 0.823835 0.117519
N1    N     N_1   0.500000 0.270550 0.500000 -0.085273
N2    N     N_1   0.500000 0.729450 0.500000 -0.070130
O1    O     O_R   0.378020 0.573650 0.500040 -0.549670
O2    O     O_3   0.361434 0.640985 0.743181 -0.754473
O3    O     O_3   0.309214 0.777701 0.147088 -0.774474
O4    O     O_3   0.332481 0.797815 0.878895 -0.805831
O5    O     O_3   0.372733 0.910730 0.368907 -0.763735
O6    O     O_3   0.627400 0.910447 0.631819 -0.791241
O7    O     O_R   0.621980 0.573650 0.499960 -0.612490
O8    O     O_R   0.378020 0.426320 0.500100 -0.642103
O9    O     O_R   0.621980 0.426320 0.499900 -0.609332
O10   O     O_R   0.500000 0.573680 0.316780 -0.576242
O11   O     O_R   0.500000 0.573680 0.683220 -0.565196
O12   O     O_R   0.500000 0.426350 0.316830 -0.616658
O13   O     O_R   0.500000 0.426350 0.683170 -0.634130
O14   O     O_3   0.352923 0.615538 0.257683 -0.751758
Zn1   Zn    Zn3+2 0.500000 0.598370 0.500000 1.029217
Zn2   Zn    Zn3+2 0.500000 0.401630 0.500000 0.979973

loop_
_geom_bond_atom_site_label_1
_geom_bond_atom_site_label_2
_ccdc_geom_bond_type
C66   C68   A    
C40   C41   A    
C41   C42   A    
C35   C36   A    
C75   C76   A    
C53   C59   A    
C62   H25   S    
C53   C54   A    
C40   C46   A    
C9    O10   A    
C62   C63   A    
C36   C37   A    
C36   H44   S    
C24   C26   A    
C3    C7    S    
O10   Zn1   S    
C5    C6    A    
C9    O12   A    
C50   H15   S    
C21   C33   S    
C52   H17   S    
H40   O5    S    
C73   C74   A    
H4    O2    S    
C33   C35   A    
O11   Zn1   S    
C26   C34   A    
C66   C72   A    
C15   O4    S    
C47   C48   A    
C68   C69   A    
C12   O7    A    
C12   C78   S    
C30   H23   S    
C13   O2    S    
C70   C71   A    
C7    N2    T    
C1    O8    A    
C31   H34   S    
C51   H16   S    
N1    Zn2   S    
O7    Zn1   S    
C22   C47   S    
C28   H1    S    
C1    C67   S    
C34   C60   S    
C61   C62   A    
C3    C80   A    
C38   H46   S    
C44   C46   A    
C23   C53   S    
C37   H45   S    
C14   O3    S    
C77   C79   A    
C38   C39   A    
C41   H7    S    
C74   C75   A    
C51   C52   A    
C32   H42   S    
C61   H24   S    
C76   C77   A    
C4    C6    A    
C77   H38   S    
C48   H13   S    
O13   Zn2   S    
C11   C14   A    
C16   C17   A    
C6    C8    S    
C46   H11   S    
C50   C51   A    
C58   C59   A    
C57   H20   S    
C72   H33   S    
C22   C25   A    
C80   O5    S    
C79   H39   S    
C60   C61   A    
C5    C80   A    
C10   O13   A    
C2    C4    A    
C43   C44   A    
C37   C38   A    
C69   H30   S    
C8    N1    T    
C31   C32   A    
C10   C19   S    
C23   C34   A    
C71   H32   S    
C17   C18   A    
C73   C79   A    
C58   H21   S    
C33   C39   A    
C63   H26   S    
C4    C73   S    
C45   C78   T    
C26   C56   S    
C48   C49   A    
O9    Zn2   S    
C60   C65   A    
C13   C15   A    
C49   H14   S    
C22   C24   A    
C11   O14   S    
C42   H8    S    
C42   C43   A    
H41   O6    S    
C25   C45   S    
C44   H10   S    
C64   H27   S    
C54   C55   A    
C28   C29   A    
C65   H28   S    
C19   C21   A    
C27   C32   A    
C14   C15   A    
C59   H22   S    
O12   Zn2   S    
C39   H2    S    
C5    C66   S    
C11   C17   A    
H3    O14   S    
C2    O6    S    
C47   C52   A    
O1    Zn1   S    
C20   C27   S    
C56   C67   T    
C1    O1    A    
C76   H37   S    
C64   C65   A    
C55   C57   A    
C2    C3    A    
C71   C72   A    
O8    Zn2   S    
H5    O3    S    
H6    O4    S    
C57   C58   A    
C30   C31   A    
C16   C19   A    
C74   H35   S    
C35   H43   S    
C24   C40   S    
C18   C20   A    
C68   H29   S    
C43   H9    S    
C69   C70   A    
N2    Zn1   S    
C70   H31   S    
C29   C30   A    
C63   C64   A    
C9    C18   S    
C23   C25   A    
C20   C21   A    
C49   C50   A    
C10   O11   A    
C13   C16   A    
C55   H19   S    
C27   C28   A    
C12   O9    A    
C54   H18   S    
C75   H36   S    
C29   H12   S    
