data_mof_unit_41631.cif
_audit_creation_date              2012-12-10T20:03:06-0500
_audit_creation_method            fapswitch 2.2
_symmetry_space_group_name_H-M    P1
_symmetry_Int_Tables_number       1
_space_group_crystal_system       triclinic
_cell_length_a                    8.586229
_cell_length_b                    19.330309
_cell_length_c                    18.531688
_cell_angle_alpha                 89.288065
_cell_angle_beta                  98.171297
_cell_angle_gamma                 91.345213
_cell_volume                      3043.59268734

loop_
_atom_site_label
_atom_site_type_symbol
_atom_type_description
_atom_site_fract_x
_atom_site_fract_y
_atom_site_fract_z
_atom_type_partial_charge
C1    C     C_R   0.499425 0.365713 0.500354 0.860650
C2    C     C_R   0.500577 0.634287 0.499646 0.860621
C3    C     C_R   0.605914 0.964906 0.551265 -0.182526
C4    C     C_R   0.394145 0.035096 0.448737 -0.182531
C5    C     C_R   0.603011 0.036498 0.552155 -0.180444
C6    C     C_R   0.397048 0.963504 0.447848 -0.180429
C7    C     C_R   0.497163 0.071705 0.500875 0.105502
C8    C     C_R   0.502896 0.928297 0.499128 0.105510
C9    C     C_R   0.609051 0.540189 0.731629 0.017080
C10   C     C_R   0.391029 0.459759 0.268388 0.017031
C11   C     C_R   0.613061 0.542558 0.807893 -0.265858
C12   C     C_R   0.386998 0.457381 0.192124 -0.265906
C13   C     C_R   0.502652 0.503829 0.841910 0.065187
C14   C     C_R   0.497306 0.496153 0.158089 0.065129
C15   C     C_R   0.392253 0.463088 0.797523 -0.224117
C16   C     C_R   0.607613 0.536953 0.202455 -0.223989
C17   C     C_R   0.391618 0.461079 0.721567 0.129255
C18   C     C_R   0.608274 0.538971 0.278414 0.129223
C19   C     C_R   0.358815 0.500294 0.952443 -0.184616
C20   C     C_R   0.641136 0.499672 0.047561 -0.184623
C21   C     C_R   0.356987 0.496390 0.028094 -0.170139
C22   C     C_R   0.642965 0.503572 0.971909 -0.170141
C23   C     C_R   0.201169 0.499857 0.481083 0.980971
C24   C     C_R   0.798831 0.500148 0.518916 0.980953
C25   C     C_R   0.498113 0.496220 0.076954 0.126950
C26   C     C_R   0.501839 0.503746 0.923048 0.126962
C27   C     C_2   0.036393 0.499589 0.470762 -0.377308
C28   C     C_2   0.963606 0.500426 0.529236 -0.377085
C29   C     C_R   0.504729 0.746209 0.433674 -0.178287
C30   C     C_R   0.495279 0.253791 0.566325 -0.178374
C31   C     C_R   0.505568 0.817925 0.433630 -0.167567
C32   C     C_R   0.494463 0.182075 0.566371 -0.167608
C33   C     C_R   0.503982 0.853187 0.499043 0.113241
C34   C     C_R   0.496076 0.146814 0.500959 0.113267
C35   C     C_R   0.501782 0.816589 0.564492 -0.177084
C36   C     C_R   0.498287 0.183412 0.435512 -0.177090
C37   C     C_R   0.500778 0.744993 0.564612 -0.188937
C38   C     C_R   0.499270 0.255009 0.435390 -0.188958
C39   C     C_R   0.501974 0.709440 0.499192 -0.031177
C40   C     C_R   0.498042 0.290560 0.500808 -0.031139
H1    H     H_    0.975396 0.498588 0.415141 0.194774
H2    H     H_    0.024603 0.501432 0.584858 0.194985
H3    H     H_    0.308969 0.431058 0.822414 0.179976
H4    H     H_    0.690813 0.569011 0.177542 0.180085
H5    H     H_    0.247397 0.501346 0.916844 0.136268
H6    H     H_    0.752552 0.498628 0.083163 0.136258
H7    H     H_    0.244735 0.495077 0.048366 0.133360
H8    H     H_    0.755220 0.504883 0.951640 0.133348
H9    H     H_    0.506346 0.719717 0.382629 0.158104
H10   H     H_    0.493637 0.280282 0.617369 0.158016
H11   H     H_    0.508678 0.845901 0.382815 0.136008
H12   H     H_    0.491344 0.154099 0.617185 0.135977
H13   H     H_    0.498753 0.843415 0.615246 0.133752
H14   H     H_    0.501336 0.156587 0.384759 0.133753
H15   H     H_    0.498460 0.717638 0.615830 0.158164
H16   H     H_    0.501596 0.282364 0.384172 0.158149
H17   H     H_    0.689326 0.938109 0.590665 0.135792
H18   H     H_    0.310733 0.061893 0.409337 0.135795
H19   H     H_    0.684604 0.064436 0.592040 0.138245
H20   H     H_    0.315453 0.935567 0.407963 0.138257
H21   H     H_    0.693516 0.570783 0.706090 0.133553
H22   H     H_    0.306645 0.429130 0.293942 0.133529
H23   H     H_    0.700566 0.575168 0.839772 0.139459
H24   H     H_    0.299559 0.424730 0.160258 0.139462
N1    N     N_R   0.500020 0.499980 0.689440 -0.138122
N2    N     N_R   0.499980 0.500020 0.310560 -0.138125
O1    O     O_R   0.500010 0.398180 0.560840 -0.652593
O2    O     O_R   0.499990 0.601820 0.439160 -0.652605
O3    O     O_R   0.499930 0.398180 0.439210 -0.625458
O4    O     O_R   0.500070 0.601820 0.560790 -0.625443
O5    O     O_R   0.271780 0.500000 0.546590 -0.646145
O6    O     O_R   0.728220 0.500000 0.453410 -0.646239
O7    O     O_R   0.271710 0.499990 0.424960 -0.614755
O8    O     O_R   0.728290 0.500010 0.575040 -0.614691
Zn1   Zn    Zn3+2 0.500050 0.500000 0.581210 0.936209
Zn2   Zn    Zn3+2 0.499950 0.500000 0.418790 0.936129
C41   C     C_2   0.273211 0.415410 0.678421 0.355202
H25   H     H_    0.284181 0.400819 0.623747 0.134605
O9    O     O_2   0.159480 0.392310 0.704392 -0.597261
C42   C     C_2   0.726584 0.584704 0.321541 0.355059
H26   H     H_    0.715857 0.599134 0.376288 0.134756
O10   O     O_2   0.839970 0.608050 0.295467 -0.597192

loop_
_geom_bond_atom_site_label_1
_geom_bond_atom_site_label_2
_ccdc_geom_bond_type
C22   H8    S    
C35   H13   S    
O6    Zn2   S    
C29   H9    S    
C41   H25   S    
C9    H21   S    
C35   C37   A    
C2    O2    A    
C12   H24   S    
C20   C25   A    
O3    Zn2   S    
C19   C26   A    
C32   H12   S    
C1    C40   S    
C33   C35   A    
C2    C39   S    
C31   C33   A    
C23   C27   S    
C30   C32   A    
C16   H4    S    
C10   N2    A    
C30   H10   S    
C10   H22   S    
C23   O7    A    
C4    C7    A    
C41   O9    D    
O5    Zn1   S    
O8    Zn1   S    
C5    H19   S    
C6    H20   S    
C4    C6    A    
C3    C8    A    
C31   H11   S    
C5    C7    A    
C6    C8    A    
C1    O3    A    
C32   C34   A    
C23   O5    A    
C27   H1    S    
C29   C31   A    
N2    Zn2   S    
C29   C39   A    
C17   C41   S    
C30   C40   A    
C9    C11   A    
C10   C12   A    
C3    H17   S    
C16   C18   A    
C12   C14   A    
C13   C15   A    
O7    Zn2   S    
C14   C16   A    
C13   C26   S    
O1    Zn1   S    
O4    Zn1   S    
C7    C34   S    
C24   O6    A    
C15   C17   A    
C21   C25   A    
C18   N2    A    
C19   C21   A    
C24   C28   S    
C20   C22   A    
C42   H26   S    
C3    C5    A    
C19   H5    S    
O2    Zn2   S    
C17   N1    A    
N1    Zn1   S    
C36   C38   A    
C15   H3    S    
C37   C39   A    
C38   C40   A    
C11   C13   A    
C24   O8    A    
C28   H2    S    
C1    O1    A    
C42   O10   D    
C34   C36   A    
C8    C33   S    
C14   C25   S    
C9    N1    A    
C36   H14   S    
C37   H15   S    
C38   H16   S    
C18   C42   S    
C22   C26   A    
C4    H18   S    
C27   C28   D    
C2    O4    A    
C11   H23   S    
C20   H6    S    
C21   H7    S    
