data_mof_unit_17183.cif
_audit_creation_date              2012-12-11T15:10:47-0500
_audit_creation_method            fapswitch 2.2
_symmetry_space_group_name_H-M    P1
_symmetry_Int_Tables_number       1
_space_group_crystal_system       triclinic
_cell_length_a                    21.105943
_cell_length_b                    7.228571
_cell_length_c                    18.418906
_cell_angle_alpha                 89.999485
_cell_angle_beta                  93.048856
_cell_angle_gamma                 89.999667
_cell_volume                      2806.11770338

loop_
_atom_site_label
_atom_site_type_symbol
_atom_type_description
_atom_site_fract_x
_atom_site_fract_y
_atom_site_fract_z
_atom_type_partial_charge
O1    O     O_R   0.448880 0.506250 0.415280 -0.536435
O2    O     O_R   0.551120 0.006250 0.584720 -0.536435
O3    O     O_R   0.434830 0.174000 0.557310 -0.505773
O4    O     O_R   0.565170 0.674000 0.442690 -0.505773
C1    C     C_R   0.417609 0.344583 0.580502 0.731476
C2    C     C_R   0.582391 0.844583 0.419498 0.731475
O5    O     O_R   0.441680 0.176440 0.414130 -0.515114
O6    O     O_R   0.558320 0.676440 0.585870 -0.515115
O7    O     O_R   0.558020 0.007570 0.440520 -0.527106
O8    O     O_R   0.441980 0.507570 0.559480 -0.527105
C3    C     C_R   0.424700 0.345100 0.391185 0.755945
C4    C     C_R   0.575300 0.845098 0.608815 0.755946
O9    O     O_3   0.538160 0.339670 0.508820 -0.358716
O10   O     O_3   0.461840 0.839670 0.491180 -0.358716
V1    V     V_3+5 0.492920 0.064260 0.498360 1.542444
V2    V     V_3+5 0.507080 0.564260 0.501640 1.542446
C5    C     C_R   0.888844 0.837751 0.692678 -0.109949
C6    C     C_R   0.111157 0.337691 0.307318 -0.109951
H1    H     H_    0.915540 0.799374 0.646638 0.180852
H2    H     H_    0.084462 0.299268 0.353353 0.180851
C7    C     C_R   0.891093 0.933564 0.818341 -0.094435
C8    C     C_R   0.108904 0.433553 0.181660 -0.094440
C9    C     C_R   0.587370 0.870564 0.740608 -0.255640
C10   C     C_R   0.412629 0.370603 0.259394 -0.255640
C11   C     C_R   0.620229 0.851757 0.807488 0.358191
C12   C     C_R   0.379769 0.351812 0.192513 0.358193
C13   C     C_R   0.686288 0.831410 0.811599 0.230631
C14   C     C_R   0.313711 0.331448 0.188400 0.230638
C15   C     C_R   0.720819 0.857886 0.747822 -0.003915
C16   C     C_R   0.279180 0.357901 0.252179 -0.003923
C17   C     C_R   0.686559 0.833999 0.678870 -0.062237
C18   C     C_R   0.313441 0.334004 0.321130 -0.062233
C19   C     C_R   0.788490 0.884028 0.750591 0.004396
C20   C     C_R   0.211509 0.384029 0.249411 0.004390
C21   C     C_R   0.822024 0.841264 0.687963 -0.040361
C22   C     C_R   0.177977 0.341245 0.312036 -0.040357
C23   C     C_R   0.788831 0.796441 0.622091 0.279785
C24   C     C_R   0.211171 0.296448 0.377909 0.279795
C25   C     C_R   0.722221 0.786558 0.618070 0.192927
C26   C     C_R   0.277780 0.286565 0.381930 0.192929
C27   C     C_R   0.824467 0.956057 0.812530 0.147869
C28   C     C_R   0.175530 0.456068 0.187475 0.147874
C29   C     C_R   0.923112 0.873657 0.757932 0.148283
C30   C     C_R   0.076888 0.373602 0.242064 0.148302
C31   C     C_R   0.618217 0.850401 0.675810 -0.097949
C32   C     C_R   0.381783 0.350411 0.324190 -0.097952
H3    H     H_    0.536163 0.884614 0.739227 0.149767
H4    H     H_    0.463835 0.384663 0.260775 0.149768
C33   C     C_1   0.864448 0.939053 0.132000 -0.158567
C34   C     C_1   0.135552 0.439054 0.867999 -0.158568
C35   C     C_1   0.821519 0.925026 0.175654 0.035689
C36   C     C_1   0.178481 0.425027 0.824346 0.035693
C37   C     C_1   0.770842 0.905901 0.227604 0.044066
C38   C     C_1   0.229158 0.405901 0.772396 0.044068
C39   C     C_1   0.728152 0.889255 0.271433 0.052626
C40   C     C_1   0.271847 0.389255 0.728567 0.052630
C41   C     C_1   0.677458 0.870134 0.323355 0.062663
C42   C     C_1   0.322542 0.370134 0.676645 0.062667
C43   C     C_1   0.634542 0.856078 0.367018 -0.121369
C44   C     C_1   0.365458 0.356077 0.632982 -0.121366
O11   O     O_R   0.058070 0.289240 0.940580 -0.530154
O12   O     O_R   0.941930 0.789240 0.059420 -0.530156
O13   O     O_R   0.058330 0.616740 0.085880 -0.523220
O14   O     O_R   0.941670 0.116740 0.914120 -0.523225
C45   C     C_R   0.072107 0.448246 0.111283 0.770237
C46   C     C_R   0.927892 0.948248 0.888717 0.770247
O15   O     O_R   0.065180 0.619040 0.942700 -0.512526
O16   O     O_R   0.934820 0.119040 0.057300 -0.512525
O17   O     O_R   0.948870 0.787780 0.915270 -0.527014
O18   O     O_R   0.051130 0.287780 0.084730 -0.527008
C47   C     C_R   0.083231 0.450355 0.920225 0.719567
C48   C     C_R   0.916768 0.950355 0.079775 0.719579
O19   O     O_3   0.961870 0.453310 0.991210 -0.366090
O20   O     O_3   0.038130 0.953310 0.008790 -0.366085
V3    V     V_3+5 0.007070 0.728770 0.001630 1.524931
V4    V     V_3+5 0.992930 0.228770 0.998370 1.524927
N1    N     N_3   0.991060 0.853333 0.762980 -0.656091
H5    H     H_    0.010696 0.985708 0.768563 0.227107
H6    H     H_    0.007402 0.797845 0.715000 0.247237
N2    N     N_3   0.008942 0.353222 0.237013 -0.656108
H7    H     H_    0.989287 0.485572 0.231441 0.227111
H8    H     H_    0.992602 0.297682 0.284983 0.247231
Br1   Br    Br    0.834519 0.750637 0.534845 -0.445273
Br2   Br    Br    0.165488 0.250739 0.465162 -0.445277
Br3   Br    Br    0.787708 0.123883 0.880121 -0.545832
Br4   Br    Br    0.212286 0.623928 0.119893 -0.545826
N3    N     N_3   0.714292 0.744445 0.875981 -0.590258
H9    H     H_    0.760183 0.696459 0.868897 0.252074
H10   H     H_    0.714188 0.835821 0.919845 0.294673
N4    N     N_3   0.285708 0.244477 0.124017 -0.590252
H11   H     H_    0.239819 0.196473 0.131105 0.252072
H12   H     H_    0.285806 0.335860 0.080153 0.294665
Br5   Br    Br    0.572329 0.836928 0.892907 -0.389722
Br6   Br    Br    0.427667 0.337024 0.107092 -0.389722
Br7   Br    Br    0.686491 0.653362 0.535691 -0.479714
Br8   Br    Br    0.313508 0.153366 0.464310 -0.479714

loop_
_geom_bond_atom_site_label_1
_geom_bond_atom_site_label_2
_ccdc_geom_bond_type
C12   Br6   S    
C24   C26   A    
N3    H9    S    
O13   C45   A    
C11   Br5   S    
C9    C31   A    
C7    C46   S    
C13   C15   A    
O1    C3    A    
O2    C4    A    
C2    O7    A    
N1    H5    S    
O5    C3    A    
C21   C23   A    
C10   C12   A    
C29   N1    S    
C41   C43   T    
C46   O17   A    
C42   C44   T    
C45   O18   A    
C15   C19   A    
C19   C21   A    
C7    C29   A    
C8    C30   A    
C40   C42   S    
C33   C35   T    
C33   C48   S    
C20   C28   A    
C34   C36   T    
C28   Br4   S    
C6    H2    S    
O6    C4    A    
O11   C47   A    
O5    V1    S    
O6    V2    S    
C26   Br8   S    
C36   C38   S    
C37   C39   T    
O11   V4    S    
C38   C40   T    
C9    H3    S    
O20   V3    S    
C16   C20   A    
C10   H4    S    
C30   N2    S    
N2    H8    S    
C4    C31   S    
C35   C37   S    
O14   C46   A    
O4    V2    S    
C34   C47   S    
C5    C29   A    
C8    C45   S    
C6    C30   A    
N4    H12   S    
O16   C48   A    
O14   V4    S    
N1    H6    S    
O12   C48   A    
O1    V2    S    
C13   N3    S    
O2    V1    S    
C25   Br7   S    
C7    C27   A    
O4    C2    A    
C39   C41   S    
O18   V4    S    
O19   V4    S    
O12   V3    S    
C11   C13   A    
O3    V1    S    
C1    C44   S    
C24   Br2   S    
C18   C32   A    
C2    C43   S    
N2    H7    S    
O3    C1    A    
O16   V4    S    
C27   Br3   S    
C12   C14   A    
C19   C27   A    
C14   C16   A    
O7    V1    S    
C10   C32   A    
C1    O8    A    
C23   C25   A    
O8    V2    S    
C16   C18   A    
N4    H11   S    
C8    C28   A    
O13   V3    S    
C22   C24   A    
C5    H1    S    
C20   C22   A    
C17   C25   A    
O17   V3    S    
O15   C47   A    
C18   C26   A    
C9    C11   A    
O15   V3    S    
C15   C17   A    
C17   C31   A    
O9    V2    S    
N3    H10   S    
O10   V1    S    
C23   Br1   S    
C3    C32   S    
C14   N4    S    
C5    C21   A    
C6    C22   A    
