data_mof_unit_9680.cif
_audit_creation_date              2012-12-11T14:41:09-0500
_audit_creation_method            fapswitch 2.2
_symmetry_space_group_name_H-M    P1
_symmetry_Int_Tables_number       1
_space_group_crystal_system       triclinic
_cell_length_a                    6.937111
_cell_length_b                    17.768073
_cell_length_c                    18.983638
_cell_angle_alpha                 90.052946
_cell_angle_beta                  88.926192
_cell_angle_gamma                 91.34321
_cell_volume                      2338.85197435

loop_
_atom_site_label
_atom_site_type_symbol
_atom_type_description
_atom_site_fract_x
_atom_site_fract_y
_atom_site_fract_z
_atom_type_partial_charge
O1    O     O_R   0.377350 0.828520 0.186660 -0.540766
O2    O     O_R   0.622650 0.171480 0.813340 -0.540766
O3    O     O_R   0.122650 0.171480 0.686660 -0.539172
O4    O     O_R   0.877350 0.828520 0.313340 -0.539172
O5    O     O_R   0.877350 0.671480 0.313340 -0.543782
O6    O     O_R   0.122650 0.328520 0.686660 -0.543782
O7    O     O_R   0.622650 0.328520 0.813340 -0.539053
O8    O     O_R   0.377350 0.671480 0.186660 -0.539053
O9    O     O_R   0.707090 0.671930 0.178410 -0.539547
O10   O     O_R   0.292910 0.328070 0.821590 -0.539547
O11   O     O_R   0.792910 0.328070 0.678410 -0.536719
O12   O     O_R   0.207090 0.671930 0.321590 -0.536719
O13   O     O_R   0.207090 0.828070 0.321590 -0.540040
O14   O     O_R   0.792910 0.171930 0.678410 -0.540040
O15   O     O_R   0.292910 0.171930 0.821590 -0.538446
O16   O     O_R   0.707090 0.828070 0.178410 -0.538446
C1    C     C_R   0.539211 0.645582 0.161479 0.731204
C2    C     C_R   0.460789 0.354418 0.838521 0.731204
C3    C     C_R   0.965651 0.354397 0.661683 0.731494
C4    C     C_R   0.034349 0.645603 0.338317 0.731494
C5    C     C_R   0.040127 0.854346 0.338540 0.729049
C6    C     C_R   0.959873 0.145654 0.661460 0.729049
C7    C     C_R   0.458271 0.145934 0.839072 0.729966
C8    C     C_R   0.541729 0.854065 0.160928 0.729966
O17   O     O_3   0.543850 0.750000 0.294270 -0.368278
O18   O     O_3   0.456150 0.250000 0.705730 -0.368278
O19   O     O_3   0.956150 0.250000 0.794270 -0.368136
O20   O     O_3   0.043850 0.750000 0.205730 -0.368136
V1    V     V_3+5 0.818700 0.750000 0.241790 1.488596
V2    V     V_3+5 0.181300 0.250000 0.758210 1.488596
V3    V     V_3+5 0.681300 0.250000 0.741790 1.486748
V4    V     V_3+5 0.318700 0.750000 0.258210 1.486748
C9    C     C_R   0.994232 0.415872 0.609050 -0.152139
C10   C     C_R   0.005767 0.584128 0.390950 -0.152139
C11   C     C_R   0.540473 0.583809 0.108455 -0.150352
C12   C     C_R   0.459527 0.416190 0.891545 -0.150352
C13   C     C_R   0.453329 0.084903 0.893051 -0.152439
C14   C     C_R   0.546671 0.915097 0.106949 -0.152439
C15   C     C_R   0.043061 0.916048 0.391680 -0.152734
C16   C     C_R   0.956939 0.083952 0.608320 -0.152734
C17   C     C_R   0.791768 0.485495 0.440509 0.445211
C18   C     C_R   0.208232 0.514505 0.559491 0.445211
C19   C     C_R   0.283940 0.519316 0.946591 0.450626
C20   C     C_R   0.716060 0.480684 0.053409 0.450626
C21   C     C_R   0.723826 0.019979 0.050267 0.451850
C22   C     C_R   0.276174 0.980021 0.949733 0.451850
C23   C     C_R   0.775539 0.980694 0.553068 0.450202
C24   C     C_R   0.224460 0.019306 0.446932 0.450202
C25   C     C_R   0.837975 0.538284 0.388029 -0.162263
C26   C     C_R   0.162025 0.461716 0.611971 -0.162263
C27   C     C_R   0.303868 0.465448 0.893387 -0.149001
C28   C     C_R   0.696132 0.534552 0.106613 -0.149001
C29   C     C_R   0.706461 0.965078 0.103001 -0.142591
C30   C     C_R   0.293539 0.034921 0.896999 -0.142591
C31   C     C_R   0.795635 0.034672 0.606230 -0.149037
C32   C     C_R   0.204365 0.965328 0.393770 -0.149037
C33   C     C_R   0.130870 0.575074 0.447252 -0.117730
C34   C     C_R   0.869130 0.424926 0.552748 -0.117730
C35   C     C_R   0.598800 0.422370 0.943940 -0.131064
C36   C     C_R   0.401200 0.577630 0.056059 -0.131064
C37   C     C_R   0.401785 0.921129 0.056712 -0.135802
C38   C     C_R   0.598215 0.078871 0.943288 -0.135802
C39   C     C_R   0.101504 0.077727 0.556155 -0.133048
C40   C     C_R   0.898496 0.922273 0.443845 -0.133048
C41   C     C_R   0.086093 0.522575 0.501575 0.031310
C42   C     C_R   0.913907 0.477424 0.498424 0.031310
C43   C     C_R   0.579931 0.475534 0.999205 0.031756
C44   C     C_R   0.420069 0.524466 0.000795 0.031756
C45   C     C_R   0.418346 0.975007 0.001725 0.030864
C46   C     C_R   0.581654 0.024993 0.998274 0.030864
C47   C     C_R   0.082710 0.024493 0.500903 0.032003
C48   C     C_R   0.917290 0.975507 0.499097 0.032003
H1    H     H_    0.741145 0.389065 0.550525 0.189520
H2    H     H_    0.258855 0.610935 0.449475 0.189520
H3    H     H_    0.282774 0.616208 0.057475 0.185488
H4    H     H_    0.717226 0.383791 0.942525 0.185488
H5    H     H_    0.720347 0.117823 0.940228 0.185904
H6    H     H_    0.279653 0.882177 0.059772 0.185904
H7    H     H_    0.775587 0.883707 0.442245 0.186066
H8    H     H_    0.224413 0.116292 0.557755 0.186066
H9    H     H_    0.260250 0.455898 0.655257 0.157489
H10   H     H_    0.739750 0.544102 0.344743 0.157489
H11   H     H_    0.804872 0.538338 0.146804 0.156451
H12   H     H_    0.195127 0.461662 0.853196 0.156451
H13   H     H_    0.180700 0.038406 0.858502 0.158226
H14   H     H_    0.819300 0.961594 0.141497 0.158226
H15   H     H_    0.317274 0.961536 0.353772 0.158086
H16   H     H_    0.682726 0.038464 0.646228 0.158086
Cl1   Cl    Cl    0.576674 0.431662 0.431498 -0.601541
Cl2   Cl    Cl    0.423326 0.568338 0.568502 -0.601541
Cl3   Cl    Cl    0.083609 0.578477 0.943177 -0.601192
Cl4   Cl    Cl    0.916391 0.421523 0.056823 -0.601192
Cl5   Cl    Cl    0.927621 0.081192 0.051812 -0.606573
Cl6   Cl    Cl    0.072379 0.918808 0.948187 -0.606573
Cl7   Cl    Cl    0.568034 0.921374 0.556280 -0.606665
Cl8   Cl    Cl    0.431966 0.078626 0.443720 -0.606665

loop_
_geom_bond_atom_site_label_1
_geom_bond_atom_site_label_2
_ccdc_geom_bond_type
C33   H2    S    
C17   Cl1   S    
C9    C34   A    
C28   H11   S    
O13   V4    S    
O14   V3    S    
C12   C35   A    
C21   Cl5   S    
C13   C38   A    
O5    C4    A    
C15   C40   A    
O11   C3    A    
C16   C39   A    
O20   V1    S    
C38   C46   A    
C31   H16   S    
C22   C45   A    
C38   H5    S    
C35   C43   A    
C34   C42   A    
C19   C44   A    
C5    C15   S    
C18   C41   A    
C8    C14   S    
C29   H14   S    
O4    V1    S    
C20   Cl4   S    
O9    V1    S    
C14   C37   A    
C4    C10   S    
C20   C28   A    
O17   V4    S    
O15   C7    A    
O11   V3    S    
O18   V3    S    
O16   C8    A    
O12   V4    S    
O19   V2    S    
C22   C30   A    
C17   C25   A    
O5    V1    S    
C39   H8    S    
O17   V1    S    
O7    V3    S    
O19   V3    S    
C43   C44   A    
O8    V4    S    
O20   V4    S    
C3    C9    S    
C32   H15   S    
C9    C26   A    
C7    C13   S    
C34   H1    S    
O1    V4    S    
C19   Cl3   S    
O2    V3    S    
C18   Cl2   S    
C25   H10   S    
O3    V2    S    
O6    C3    A    
C10   C33   A    
O10   V2    S    
C15   C32   A    
C22   Cl6   S    
C37   H6    S    
O7    C2    A    
C6    C16   S    
O12   C4    A    
O13   C5    A    
C12   C27   A    
C18   C26   A    
C13   C30   A    
O9    C1    A    
O6    V2    S    
C39   C47   A    
O18   V2    S    
C40   H7    S    
C24   C47   A    
C11   C28   A    
O15   V2    S    
C23   C31   A    
C37   C45   A    
C24   C32   A    
C10   C25   A    
C24   Cl8   S    
C21   C46   A    
C33   C41   A    
C20   C43   A    
C16   C31   A    
C30   H13   S    
C17   C42   A    
C36   H3    S    
O8    C1    A    
O14   C6    A    
O16   V1    S    
C47   C48   A    
O4    C5    A    
C19   C27   A    
C14   C29   A    
O10   C2    A    
C35   H4    S    
C40   C48   A    
C45   C46   A    
C23   C48   A    
C21   C29   A    
C36   C44   A    
O1    C8    A    
C41   C42   A    
O2    C7    A    
C23   Cl7   S    
C11   C36   A    
O3    C6    A    
C1    C11   S    
C2    C12   S    
C27   H12   S    
C26   H9    S    
