data_mof_unit_16859.cif
_audit_creation_date              2012-12-11T18:07:03-0500
_audit_creation_method            fapswitch 2.2
_symmetry_space_group_name_H-M    P1
_symmetry_Int_Tables_number       1
_space_group_crystal_system       triclinic
_cell_length_a                    8.227883
_cell_length_b                    12.732623
_cell_length_c                    26.955136
_cell_angle_alpha                 97.343535
_cell_angle_beta                  92.470643
_cell_angle_gamma                 81.264741
_cell_volume                      2767.43012449

loop_
_atom_site_label
_atom_site_type_symbol
_atom_type_description
_atom_site_fract_x
_atom_site_fract_y
_atom_site_fract_z
_atom_type_partial_charge
Ba1   Ba    Ba6+2 0.859560 0.448380 0.523550 1.694940
Ba2   Ba    Ba6+2 0.330270 0.551530 0.476440 1.705603
C1    C     C_3   0.647416 0.081532 0.661460 -0.373926
C2    C     C_3   0.667714 0.183173 0.639778 0.340161
C3    C     C_3   0.478017 0.722077 0.628415 0.300674
C4    C     C_3   0.434702 0.767514 0.681998 -0.371068
C5    C     C_3   0.025428 0.785826 0.339384 0.311420
C6    C     C_3   0.061142 0.809157 0.287351 0.520938
C7    C     C_3   0.524885 0.823236 0.364269 0.294484
C8    C     C_3   0.532678 0.928888 0.344453 -0.330497
C9    C     C_R   0.039559 0.416853 0.178464 0.598088
C10   C     C_R   0.894298 0.595067 0.178519 0.579944
C11   C     C_2   0.743576 0.533798 0.269853 -0.120743
C12   C     C_3   0.180136 0.219461 0.660224 0.294714
C13   C     C_3   0.698880 0.526226 0.323130 0.079586
C14   C     C_1   0.988037 0.481284 0.343214 0.000109
C15   C     C_2   0.030744 0.477585 0.295640 -0.117226
C16   C     C_2   0.902767 0.507440 0.255801 0.192270
C17   C     C_R   0.022940 0.502510 0.101753 -0.079934
C18   C     C_R   0.079683 0.414077 0.127573 -0.037772
C19   C     C_R   0.174523 0.324338 0.101799 -0.056637
C20   C     C_R   0.932347 0.594263 0.127707 -0.034396
C21   C     C_2   0.845229 0.533900 0.358334 -0.250825
C22   C     C_2   0.353712 0.478751 0.640909 -0.283417
C23   C     C_3   0.162269 0.196000 0.713423 -0.345256
C24   C     C_R   0.207192 0.413939 0.974824 0.019760
C25   C     C_R   0.007967 0.578418 0.970596 0.010003
C26   C     C_R   0.128623 0.496922 0.947494 0.030397
C27   C     C_R   0.330640 0.337147 0.950838 -0.102722
C28   C     C_R   0.372190 0.340012 0.901459 -0.065738
C29   C     C_R   0.292668 0.419499 0.873599 -0.028645
C30   C     C_R   0.170340 0.497865 0.896582 -0.080196
C31   C     C_R   0.089420 0.576976 0.868624 -0.046106
C32   C     C_R   0.136964 0.580186 0.818912 0.591907
C33   C     C_R   0.332181 0.421291 0.823056 0.575015
C34   C     C_3   0.198118 0.214340 0.411992 0.838980
C35   C     C_2   0.458293 0.488742 0.729571 -0.071540
C36   C     C_3   0.500862 0.491157 0.675301 -0.052304
C37   C     C_1   0.207638 0.523361 0.656615 0.037933
C38   C     C_2   0.167062 0.522802 0.703830 -0.114829
C39   C     C_2   0.298707 0.503740 0.743780 0.194912
C40   C     C_R   0.160841 0.410933 0.025113 0.019136
C41   C     C_R   0.057765 0.499675 0.049946 0.049221
C42   C     C_R   0.991378 0.586731 0.023672 0.006653
C43   C     C_R   0.215458 0.323001 0.051915 -0.102127
C44   C     C_R   0.886782 0.684828 0.102702 -0.052880
C45   C     C_3   0.130729 0.109071 0.403685 -0.233667
C46   C     C_R   0.905660 0.644350 0.938730 0.021946
C47   C     C_R   0.955974 0.647815 0.889780 -0.074809
C48   C     C_R   0.920203 0.681820 0.052174 -0.107063
C49   C     C_R   0.760195 0.820654 0.480662 -0.288209
C50   C     C_R   0.429930 0.189177 0.519706 -0.232110
C51   C     C_R   0.408444 0.010732 0.536815 -0.099285
C52   C     C_R   0.344088 0.118274 0.539247 -0.015059
C53   C     C_R   0.576014 0.152668 0.494397 0.131817
C54   C     C_R   0.639372 0.041260 0.489120 -0.065045
C55   C     C_R   0.554947 0.970150 0.511456 -0.061650
C56   C     C_3   0.980943 0.777407 0.582270 0.276549
C57   C     C_R   0.617931 0.859830 0.507008 0.041831
C58   C     C_R   0.846924 0.889292 0.460274 0.002546
C59   C     C_R   0.784807 0.998303 0.463006 -0.088659
C60   C     C_3   0.986052 0.896854 0.593487 -0.338494
C61   C     C_3   0.718633 0.295297 0.373844 0.928418
C62   C     C_3   0.761148 0.249922 0.320114 -0.287478
H1    H     H_    0.783970 0.168643 0.618785 0.089064
H2    H     H_    0.188722 0.057679 0.370893 0.144703
H3    H     H_    0.156629 0.067196 0.437365 0.083274
H4    H     H_    0.996653 0.124008 0.396123 0.035319
H5    H     H_    0.852793 0.763698 0.574758 0.002979
H6    H     H_    0.055919 0.746602 0.548814 0.073297
H7    H     H_    0.924602 0.928565 0.629204 0.124254
H8    H     H_    0.922710 0.939495 0.563167 0.082564
H9    H     H_    0.115678 0.911785 0.597032 0.129419
H10   H     H_    0.827911 0.323739 0.393082 -0.142005
H11   H     H_    0.638252 0.015674 0.630690 0.081358
H12   H     H_    0.857814 0.178795 0.319644 0.105010
H13   H     H_    0.807803 0.310235 0.300560 0.047878
H14   H     H_    0.650200 0.225732 0.299544 0.137536
H15   H     H_    0.561791 0.201822 0.613947 -0.049410
H16   H     H_    0.533868 0.094384 0.683556 0.133078
H17   H     H_    0.366855 0.694565 0.609503 0.030618
H18   H     H_    0.578911 0.653502 0.628650 0.028961
H19   H     H_    0.339844 0.839644 0.682095 0.138466
H20   H     H_    0.384771 0.707655 0.701071 0.072578
H21   H     H_    0.546010 0.789946 0.702972 0.124099
H22   H     H_    0.754475 0.058444 0.686336 0.130359
H23   H     H_    0.208187 0.259091 0.740237 0.119006
H24   H     H_    0.090907 0.704920 0.344286 -0.006529
H25   H     H_    0.891067 0.786696 0.342299 -0.032784
H26   H     H_    0.192717 0.817944 0.285057 0.050807
H27   H     H_    0.035179 0.741903 0.259338 0.013992
H28   H     H_    0.643152 0.799509 0.384069 -0.046016
H29   H     H_    0.422125 0.835355 0.390837 0.092317
H30   H     H_    0.639223 0.920531 0.319598 0.177375
H31   H     H_    0.546758 0.991985 0.376124 0.119014
H32   H     H_    0.109764 0.299563 0.656475 0.088262
H33   H     H_    0.418073 0.953287 0.322928 0.144163
H34   H     H_    0.157870 0.452558 0.285268 0.144168
H35   H     H_    0.218961 0.254439 0.120313 0.128523
H36   H     H_    0.557717 0.480558 0.757250 0.110081
H37   H     H_    0.468098 0.279167 0.885121 0.122296
H38   H     H_    0.400832 0.274946 0.969818 0.069753
H39   H     H_    0.287008 0.250411 0.034841 0.071474
H40   H     H_    0.646205 0.551180 0.242318 0.110172
H41   H     H_    0.827528 0.759384 0.122399 0.137100
H42   H     H_    0.311858 0.220898 0.653764 -0.023428
H43   H     H_    0.883537 0.702287 0.866734 0.116656
H44   H     H_    0.038839 0.536549 0.713761 0.142816
H45   H     H_    0.898959 0.756599 0.036685 0.076714
H46   H     H_    0.835740 0.585689 0.393693 0.055127
H47   H     H_    0.368130 0.435990 0.603442 0.067310
H48   H     H_    0.339836 0.959791 0.553872 0.104979
H49   H     H_    0.852994 0.047999 0.445525 0.096275
H50   H     H_    0.808904 0.736347 0.478435 0.057686
H51   H     H_    0.378631 0.273045 0.522161 0.059100
H52   H     H_    0.030752 0.194924 0.720784 0.142152
H53   H     H_    0.234294 0.117097 0.719014 0.119993
H54   H     H_    0.158108 0.256545 0.449084 -0.033620
N1    N     N_R   0.947202 0.506715 0.203600 -0.425615
N2    N     N_R   0.256185 0.502057 0.796083 -0.423356
O1    O     O_2   0.907040 0.557650 0.617910 -0.466978
O2    O     O_3   0.667920 0.214872 0.397296 -0.594243
O3    O     O_3   0.118820 0.140189 0.626693 -0.609700
O4    O     O_2   0.282660 0.442310 0.382060 -0.357830
O5    O     O_3   0.050670 0.442340 0.442260 -0.512095
O6    O     O_3   0.504750 0.639360 0.411530 -0.455621
O7    O     O_3   0.146085 0.271433 0.371831 -0.640388
O8    O     O_3   0.618400 0.630290 0.524520 -0.476427
O9    O     O_3   0.090070 0.694820 0.435810 -0.492184
O10   O     O_2   0.184558 0.882880 0.467272 -0.489009
O11   O     O_3   0.081287 0.863873 0.374786 -0.613450
O12   O     O_3   0.139040 0.557570 0.557730 -0.497333
O13   O     O_3   0.571310 0.369620 0.475470 -0.429230
O14   O     O_2   0.348200 0.764910 0.523260 -0.468026
O15   O     O_3   0.530492 0.802489 0.604987 -0.650241
O16   O     O_2   0.354951 0.578321 0.326272 -0.492779
O17   O     O_3   0.498312 0.745481 0.324107 -0.608367
O18   O     O_2   0.084701 0.338351 0.200055 -0.582076
O19   O     O_2   0.432866 0.349755 0.802933 -0.595380
O20   O     O_2   0.814038 0.674846 0.200422 -0.576988
O21   O     O_2   0.073052 0.653618 0.796247 -0.601750
O22   O     O_3   0.684960 0.360550 0.588460 -0.501547
O23   O     O_2   0.842089 0.419704 0.672875 -0.499668
O24   O     O_3   0.040622 0.729275 0.624497 -0.627384
O25   O     O_3   0.672138 0.266834 0.678918 -0.580765
O26   O     O_2   0.841490 0.235060 0.476710 -0.522274
O27   O     O_3   0.099640 0.305100 0.564190 -0.491914
O28   O     O_2   0.005794 0.116847 0.534504 -0.496500
P1    P     P_3+3 0.072810 0.589830 0.610360 0.991725
P2    P     P_3+3 0.661990 0.251250 0.462170 1.102035
P3    P     P_3+3 0.141941 0.167857 0.565685 0.933609
P4    P     P_3+3 0.116900 0.410080 0.389630 1.062876
P5    P     P_3+3 0.049697 0.833571 0.434746 0.935487
P6    P     P_3+3 0.675254 0.386840 0.653721 0.974350
P7    P     P_3+3 0.532564 0.764881 0.540308 0.932860
P8    P     P_3+3 0.514723 0.620613 0.346231 1.027430
F1    F     F_    0.591845 0.379028 0.373603 -0.702502
F2    F     F_    0.964141 0.902520 0.276629 -0.680012
C63   C     C_3   0.729385 0.696232 0.950744 -0.195292
C64   C     C_3   0.623749 0.614989 0.964628 -0.195552
C65   C     C_3   0.447259 0.667706 0.975022 -0.415215
H55   H     H_    0.445401 0.737458 0.004415 0.141203
H56   H     H_    0.385710 0.694442 0.940347 0.137808
H57   H     H_    0.378015 0.609243 0.988588 0.133908
H58   H     H_    0.622504 0.548862 0.933433 0.127222
H59   H     H_    0.674784 0.579744 0.998564 0.132374
H60   H     H_    0.723719 0.766297 0.979561 0.100317
H61   H     H_    0.668591 0.730127 0.917422 0.101775
F3    F     F_    0.365719 0.191078 0.411200 -0.745264

loop_
_geom_bond_atom_site_label_1
_geom_bond_atom_site_label_2
_ccdc_geom_bond_type
C25   C46   A    
C56   C60   S    
C53   C54   A    
C32   O21   D    
C3    H18   S    
C62   H13   S    
C17   C18   A    
O28   P3    D    
Ba1   O12   S    
C9    N1    Am   
Ba2   O9    S    
C65   H55   S    
C33   N2    Am   
C5    C6    S    
C47   H43   S    
C51   C52   A    
C63   H61   S    
C24   C40   A    
C34   F3    S    
Ba2   O14   S    
C4    H21   S    
C11   C16   D    
C3    C4    S    
O2    P2    S    
C9    O18   D    
Ba1   O5    S    
C2    H1    S    
C19   H35   S    
C55   C57   A    
C8    H30   S    
C31   C47   A    
C5    H25   S    
C44   H41   S    
C10   C20   A    
C23   H23   S    
C22   C37   D    
O15   P7    S    
C54   C55   A    
C34   C45   S    
Ba1   Ba2   S    
C45   H3    S    
C5    H24   S    
C58   P5    S    
Ba1   O22   S    
C43   H39   S    
O8    P7    S    
C33   O19   D    
O26   P2    D    
C7    O17   S    
C25   C42   A    
C63   C64   S    
C50   C52   A    
C14   C15   D    
C27   H38   S    
Ba2   O12   S    
C10   O20   D    
C60   H9    S    
Ba1   P1    S    
C12   O3    S    
C64   H59   S    
C1    H11   S    
C7    C8    S    
C45   H2    S    
C5    O11   S    
C50   C53   A    
C38   H44   S    
C13   C21   S    
O4    P4    D    
C6    F2    S    
C39   N2    S    
C1    H22   S    
C32   N2    Am   
O12   P1    S    
Ba1   O26   S    
C22   H47   S    
Ba1   O13   S    
C1    H16   S    
C7    H28   S    
C12   H32   S    
C65   H56   S    
C17   C41   A    
C31   C32   A    
C19   C43   A    
Ba2   P4    S    
C46   C63   S    
O3    P3    S    
C9    C18   A    
Ba2   O13   S    
C4    H20   S    
C49   H50   S    
O11   P5    S    
C17   C20   A    
C2    H15   S    
C23   H52   S    
C37   C38   D    
C57   P7    S    
C56   H6    S    
O23   P6    D    
C48   H45   S    
O17   P8    S    
C58   C59   A    
C40   C43   A    
C35   C36   S    
C8    H33   S    
O27   P3    S    
C41   C42   A    
C27   C28   A    
O5    P4    S    
O7    P4    S    
C10   N1    Am   
C3    H17   S    
C22   C36   S    
O14   P7    D    
C26   C30   A    
C15   C16   S    
C62   H12   S    
C60   H8    S    
Ba1   P2    S    
C14   P4    S    
C6    H27   S    
C64   H58   S    
O22   P6    S    
C11   H40   S    
C13   P8    S    
O25   P6    S    
Ba2   O6    S    
Ba1   O8    S    
C46   C47   A    
C20   C44   A    
C14   C21   D    
C11   C13   S    
C59   H49   S    
C29   C33   A    
Ba1   O27   S    
C34   O7    S    
C49   C57   A    
C40   C41   A    
C61   F1    S    
C1    C2    S    
C7    H29   S    
C45   H4    S    
C65   H57   S    
C34   H54   S    
C51   H48   S    
C53   P2    S    
C15   H34   S    
C50   H51   S    
C42   C48   A    
C3    O15   S    
C21   H46   S    
C44   C48   A    
C38   C39   S    
C51   C55   A    
C4    H19   S    
O24   P1    S    
C62   H14   S    
O1    P1    D    
C29   C30   A    
O13   P2    S    
C23   H53   S    
C56   H5    S    
C52   P3    S    
C61   H10   S    
Ba2   O4    S    
C37   P1    S    
C24   C26   A    
C64   C65   S    
C30   C31   A    
O9    P5    S    
C61   O2    S    
C28   C29   A    
C8    H31   S    
O16   P8    D    
C2    O25   S    
C28   H37   S    
C63   H60   S    
C60   H7    S    
O10   P5    D    
C12   C23   S    
C35   C39   D    
Ba1   O1    S    
C61   C62   S    
Ba2   O5    S    
C56   O24   S    
C12   H42   S    
C6    H26   S    
C18   C19   A    
C24   C27   A    
C25   C26   A    
C36   P6    S    
C54   C59   A    
C49   C58   A    
C16   N1    S    
C35   H36   S    
O6    P8    S    
Ba2   O8    S    
