data_mof_unit_11546.cif
_audit_creation_date              2012-12-10T19:58:50-0500
_audit_creation_method            fapswitch 2.2
_symmetry_space_group_name_H-M    P1
_symmetry_Int_Tables_number       1
_space_group_crystal_system       orthorhombic
_cell_length_a                    18.390122
_cell_length_b                    18.390121
_cell_length_c                    22.362386
_cell_angle_alpha                 90.0
_cell_angle_beta                  90.0
_cell_angle_gamma                 90.0
_cell_volume                      7562.88221504

loop_
_atom_site_label
_atom_site_type_symbol
_atom_type_description
_atom_site_fract_x
_atom_site_fract_y
_atom_site_fract_z
_atom_type_partial_charge
C1    C     C_R   0.500000 1.000000 0.340101 0.513860
C2    C     C_R   0.860058 0.640068 0.499985 0.507397
C3    C     C_R   0.864813 0.641833 0.253124 -0.103180
C4    C     C_R   0.864536 0.705357 0.287303 -0.124180
C5    C     C_R   0.817814 0.711737 0.336324 -0.068682
C6    C     C_R   0.345727 0.770540 0.351660 0.067799
C7    C     C_R   0.409533 0.771695 0.317043 -0.072526
C8    C     C_R   0.415558 0.818518 0.268008 -0.088926
C9    C     C_R   0.358165 0.864814 0.253125 -0.103178
C10   C     C_R   0.294644 0.864541 0.287307 -0.124179
C11   C     C_R   0.288265 0.817819 0.336328 -0.068681
C12   C     C_R   0.229459 0.345726 0.351660 0.067799
C13   C     C_R   0.359932 0.860058 0.499985 0.507396
C14   C     C_R   0.228305 0.409532 0.317043 -0.072526
C15   C     C_R   0.181482 0.415557 0.268008 -0.088926
C16   C     C_R   0.135185 0.358165 0.253124 -0.103178
C17   C     C_R   0.135458 0.294644 0.287307 -0.124179
C18   C     C_R   0.182180 0.288265 0.336328 -0.068680
C19   C     C_R   0.654274 0.229458 0.351660 0.067797
C20   C     C_R   0.590465 0.228299 0.317046 -0.072522
C21   C     C_R   0.584440 0.181475 0.268012 -0.088926
C22   C     C_R   0.641835 0.135183 0.253126 -0.103180
C23   C     C_R   0.705359 0.135460 0.287305 -0.124179
C24   C     C_R   0.139942 0.359932 0.499985 0.507396
C25   C     C_R   0.711738 0.182183 0.336326 -0.068682
C26   C     C_R   0.235900 0.654267 0.347463 0.061003
C27   C     C_R   0.267942 0.622858 0.296582 -0.098990
C28   C     C_R   0.228383 0.615333 0.243557 -0.118347
C29   C     C_R   0.156087 0.638279 0.240907 -0.100422
C30   C     C_R   0.123420 0.669365 0.291146 -0.112073
C31   C     C_R   0.162955 0.677636 0.344142 -0.055830
C32   C     C_R   0.654265 0.764098 0.347462 0.060999
C33   C     C_R   0.622858 0.732054 0.296581 -0.098991
C34   C     C_R   0.615332 0.771611 0.243557 -0.118349
C35   C     C_R   0.359915 0.139912 0.499946 0.498792
C36   C     C_R   0.638275 0.843908 0.240906 -0.100426
C37   C     C_R   0.669358 0.876578 0.291144 -0.112072
C38   C     C_R   0.677631 0.837044 0.344141 -0.055830
C39   C     C_R   0.764100 0.345732 0.347462 0.060999
C40   C     C_R   0.732056 0.377139 0.296580 -0.098992
C41   C     C_R   0.771615 0.384664 0.243556 -0.118350
C42   C     C_R   0.843912 0.361721 0.240906 -0.100426
C43   C     C_R   0.876581 0.330638 0.291145 -0.112073
C44   C     C_R   0.837046 0.322367 0.344142 -0.055831
C45   C     C_R   0.345732 0.235899 0.347462 0.061002
C46   C     C_R   0.139912 0.640085 0.499946 0.498792
C47   C     C_R   0.377140 0.267941 0.296581 -0.098992
C48   C     C_R   0.384665 0.228382 0.243557 -0.118349
C49   C     C_R   0.361719 0.156086 0.240907 -0.100425
C50   C     C_R   0.330634 0.123419 0.291146 -0.112074
C51   C     C_R   0.322363 0.162955 0.344142 -0.055831
C52   C     C_R   0.270540 0.154272 0.851660 0.067796
C53   C     C_R   0.271699 0.090463 0.817047 -0.072522
C54   C     C_R   0.318521 0.084437 0.768012 -0.088926
C55   C     C_R   0.364813 0.141833 0.753124 -0.103180
C56   C     C_R   0.364536 0.205357 0.787303 -0.124180
C57   C     C_R   0.640085 0.860088 0.499946 0.498791
C58   C     C_R   0.317814 0.211737 0.836324 -0.068682
C59   C     C_R   0.845727 0.270540 0.851660 0.067799
C60   C     C_R   0.909533 0.271695 0.817043 -0.072526
C61   C     C_R   0.915558 0.318518 0.768008 -0.088926
C62   C     C_R   0.858165 0.364814 0.753125 -0.103178
C63   C     C_R   0.794644 0.364541 0.787307 -0.124179
C64   C     C_R   0.788265 0.317819 0.836328 -0.068681
C65   C     C_R   0.729459 0.845726 0.851659 0.067799
C66   C     C_R   0.728305 0.909532 0.817043 -0.072526
C67   C     C_R   0.681482 0.915557 0.768008 -0.088926
C68   C     C_R   0.860088 0.359915 0.499946 0.498791
C69   C     C_R   0.635185 0.858165 0.753124 -0.103178
C70   C     C_R   0.635458 0.794644 0.787307 -0.124179
C71   C     C_R   0.682180 0.788265 0.836328 -0.068680
C72   C     C_R   0.154274 0.729458 0.851660 0.067797
C73   C     C_R   0.090465 0.728299 0.817046 -0.072522
C74   C     C_R   0.084440 0.681475 0.768012 -0.088926
C75   C     C_R   0.141835 0.635183 0.753126 -0.103180
C76   C     C_R   0.205359 0.635460 0.787305 -0.124179
C77   C     C_R   0.211738 0.682183 0.836326 -0.068682
C78   C     C_R   0.735900 0.154267 0.847463 0.061003
C79   C     C_R   0.140068 0.639942 0.999985 0.507397
C80   C     C_R   0.767942 0.122858 0.796582 -0.098990
C81   C     C_R   0.728383 0.115333 0.743557 -0.118347
C82   C     C_R   0.656087 0.138279 0.740908 -0.100422
C83   C     C_R   0.623420 0.169365 0.791145 -0.112073
C84   C     C_R   0.662955 0.177636 0.844142 -0.055830
C85   C     C_R   0.154265 0.264098 0.847462 0.060999
C86   C     C_R   0.122858 0.232054 0.796581 -0.098991
C87   C     C_R   0.115332 0.271611 0.743557 -0.118349
C88   C     C_R   0.138275 0.343908 0.740906 -0.100426
C89   C     C_R   0.169358 0.376578 0.791144 -0.112072
C90   C     C_R   0.360058 0.140068 0.999985 0.507397
C91   C     C_R   0.177631 0.337044 0.844141 -0.055830
C92   C     C_R   0.264100 0.845732 0.847462 0.060999
C93   C     C_R   0.232056 0.877139 0.796580 -0.098992
C94   C     C_R   0.271615 0.884664 0.743556 -0.118350
C95   C     C_R   0.343912 0.861721 0.740906 -0.100426
C96   C     C_R   0.376581 0.830638 0.791145 -0.112073
C97   C     C_R   0.337046 0.822367 0.844142 -0.055831
C98   C     C_R   0.845732 0.735899 0.847462 0.061002
C99   C     C_R   0.877140 0.767941 0.796581 -0.098992
C100  C     C_R   0.884665 0.728382 0.743557 -0.118349
C101  C     C_R   0.859932 0.360058 0.999985 0.507396
C102  C     C_R   0.861719 0.656086 0.740907 -0.100425
C103  C     C_R   0.830634 0.623419 0.791146 -0.112074
C104  C     C_R   0.822363 0.662955 0.844142 -0.055831
C105  C     C_R   0.000000 0.500000 0.340101 0.513860
C106  C     C_R   0.639942 0.859932 0.999985 0.507396
C107  C     C_R   0.859915 0.639912 0.999946 0.498792
C108  C     C_R   0.639912 0.140085 0.999946 0.498792
C109  C     C_R   0.140085 0.360088 0.999946 0.498791
C110  C     C_R   0.360088 0.859915 0.999946 0.498791
C111  C     C_R   0.699670 0.751641 0.456125 -0.011767
C112  C     C_R   0.248360 0.699670 0.456125 -0.011766
C113  C     C_R   0.300330 0.248360 0.456125 -0.011766
C114  C     C_R   0.751641 0.300330 0.456125 -0.011766
C115  C     C_R   0.301198 0.750821 0.457091 -0.001620
C116  C     C_R   1.000000 0.500000 0.840101 0.513860
C117  C     C_R   0.750822 0.698803 0.457091 -0.001619
C118  C     C_R   0.698803 0.249178 0.457091 -0.001618
C119  C     C_R   0.249179 0.301198 0.457091 -0.001620
C120  C     C_R   0.199670 0.251641 0.956125 -0.011767
C121  C     C_R   0.748360 0.199669 0.956125 -0.011766
C122  C     C_R   0.800330 0.748360 0.956125 -0.011766
C123  C     C_R   0.251641 0.800330 0.956125 -0.011766
C124  C     C_R   0.801198 0.250821 0.957091 -0.001620
C125  C     C_R   0.250822 0.198803 0.957091 -0.001619
C126  C     C_R   0.198803 0.749178 0.957091 -0.001618
C127  C     C_R   0.500000 1.000000 0.840101 0.513860
C128  C     C_R   0.749179 0.801198 0.957091 -0.001620
C129  C     C_R   0.696892 0.805815 0.499404 0.015023
C130  C     C_R   0.194185 0.696892 0.499404 0.015023
C131  C     C_R   0.303108 0.194185 0.499404 0.015023
C132  C     C_R   0.805815 0.303108 0.499404 0.015023
C133  C     C_R   0.303445 0.805454 0.499869 0.021921
C134  C     C_R   0.805454 0.696555 0.499868 0.021922
C135  C     C_R   0.696555 0.194546 0.499869 0.021922
C136  C     C_R   0.194546 0.303445 0.499869 0.021921
C137  C     C_R   0.196892 0.305815 0.999404 0.015023
C138  C     C_R   0.500000 1.000000 0.659919 0.485379
C139  C     C_R   0.694185 0.196892 0.999404 0.015023
C140  C     C_R   0.803108 0.694185 0.999404 0.015023
C141  C     C_R   0.305815 0.803108 0.999404 0.015023
C142  C     C_R   0.803445 0.305454 0.999869 0.021921
C143  C     C_R   0.305454 0.196555 0.999869 0.021922
C144  C     C_R   0.196555 0.694546 0.999869 0.021922
C145  C     C_R   0.694546 0.803445 0.999869 0.021921
C146  C     C_R   0.752345 0.806399 0.543103 -0.160030
C147  C     C_R   0.193602 0.752344 0.543104 -0.160030
C148  C     C_R   0.247656 0.193602 0.543104 -0.160030
C149  C     C_R   1.000000 0.500000 0.659919 0.485379
C150  C     C_R   0.806398 0.247656 0.543104 -0.160030
C151  C     C_R   0.247670 0.806287 0.543240 -0.162301
C152  C     C_R   0.806287 0.752330 0.543240 -0.162300
C153  C     C_R   0.752330 0.193713 0.543240 -0.162300
C154  C     C_R   0.193714 0.247670 0.543240 -0.162300
C155  C     C_R   0.252345 0.306399 0.043103 -0.160030
C156  C     C_R   0.693602 0.252344 0.043104 -0.160030
C157  C     C_R   0.747656 0.693602 0.043104 -0.160030
C158  C     C_R   0.306398 0.747656 0.043104 -0.160030
C159  C     C_R   0.747670 0.306287 0.043240 -0.162301
C160  C     C_R   0.000000 0.500000 0.159919 0.485379
C161  C     C_R   0.306287 0.252330 0.043240 -0.162300
C162  C     C_R   0.252330 0.693713 0.043240 -0.162300
C163  C     C_R   0.693714 0.747670 0.043240 -0.162300
C164  C     C_1   0.000000 0.500000 0.276743 -0.028070
C165  C     C_1   0.500000 1.000000 0.276743 -0.028071
C166  C     C_1   0.500000 1.000000 0.776743 -0.028070
C167  C     C_1   1.000000 0.500000 0.776743 -0.028071
C168  C     C_1   0.500000 1.000000 0.723298 -0.060304
C169  C     C_1   1.000000 0.500000 0.723298 -0.060305
C170  C     C_1   0.000000 0.500000 0.223298 -0.060304
C171  C     C_R   0.500000 0.000000 0.159919 0.485379
C172  C     C_1   0.500000 1.000000 0.223298 -0.060305
C173  C     C_3   0.719355 0.658739 0.405010 -0.124201
C174  C     C_3   0.341261 0.719355 0.405009 -0.124201
C175  C     C_3   0.280645 0.341260 0.405009 -0.124201
C176  C     C_3   0.658740 0.280644 0.405009 -0.124201
C177  C     C_3   0.281133 0.659600 0.404240 -0.125632
C178  C     C_3   0.659599 0.718866 0.404241 -0.125633
C179  C     C_3   0.718867 0.340399 0.404240 -0.125633
C180  C     C_3   0.340400 0.281133 0.404240 -0.125632
C181  C     C_3   0.219355 0.158739 0.905010 -0.124201
C182  C     C_R   0.640068 0.139942 0.499985 0.507397
C183  C     C_3   0.841261 0.219355 0.905009 -0.124201
C184  C     C_3   0.780645 0.841260 0.905009 -0.124201
C185  C     C_3   0.158740 0.780644 0.905009 -0.124201
C186  C     C_3   0.781133 0.159600 0.904240 -0.125632
C187  C     C_3   0.159599 0.218866 0.904241 -0.125633
C188  C     C_3   0.218867 0.840399 0.904240 -0.125633
C189  C     C_3   0.840400 0.781133 0.904240 -0.125632
C190  C     C_R   0.770540 0.654272 0.351660 0.067796
C191  C     C_R   0.771699 0.590463 0.317047 -0.072522
C192  C     C_R   0.818521 0.584437 0.268012 -0.088926
H1    H     H_    0.697269 0.605015 0.418990 0.103432
H2    H     H_    0.894985 0.197269 0.918989 0.103433
H3    H     H_    0.131943 0.374613 0.699937 0.123376
H4    H     H_    0.187103 0.432650 0.789026 0.096421
H5    H     H_    0.202491 0.363733 0.882006 0.101249
H6    H     H_    0.176211 0.895776 0.798054 0.087911
H7    H     H_    0.246340 0.908797 0.704608 0.102155
H8    H     H_    0.374617 0.868051 0.699938 0.123375
H9    H     H_    0.432654 0.812892 0.789027 0.096420
H10   H     H_    0.363734 0.797507 0.882007 0.101248
H11   H     H_    0.895780 0.823785 0.798055 0.087910
H12   H     H_    0.908800 0.753655 0.704610 0.102156
H13   H     H_    0.802731 0.894985 0.918988 0.103433
H14   H     H_    0.868049 0.625380 0.699939 0.123373
H15   H     H_    0.812885 0.567348 0.789028 0.096420
H16   H     H_    0.797501 0.636268 0.882007 0.101247
H17   H     H_    0.105015 0.802731 0.918988 0.103432
H18   H     H_    0.802003 0.105570 0.918633 0.109943
H19   H     H_    0.105570 0.197996 0.918634 0.109943
H20   H     H_    0.197997 0.894429 0.918632 0.109943
H21   H     H_    0.894429 0.802003 0.918632 0.109942
H22   H     H_    0.753634 0.847700 0.577617 0.141982
H23   H     H_    0.152301 0.753633 0.577617 0.141982
H24   H     H_    0.246367 0.152301 0.577618 0.141982
H25   H     H_    0.394985 0.697268 0.418989 0.103433
H26   H     H_    0.847699 0.246367 0.577618 0.141982
H27   H     H_    0.246232 0.847653 0.577703 0.136767
H28   H     H_    0.847654 0.753769 0.577702 0.136767
H29   H     H_    0.753768 0.152347 0.577703 0.136767
H30   H     H_    0.152347 0.246232 0.577703 0.136767
H31   H     H_    0.253634 0.347700 0.077617 0.141982
H32   H     H_    0.652301 0.253633 0.077617 0.141982
H33   H     H_    0.746367 0.652301 0.077618 0.141982
H34   H     H_    0.347699 0.746367 0.077618 0.141982
H35   H     H_    0.746232 0.347653 0.077703 0.136767
H36   H     H_    0.302731 0.394985 0.418988 0.103433
H37   H     H_    0.347654 0.253769 0.077702 0.136767
H38   H     H_    0.253768 0.652347 0.077703 0.136767
H39   H     H_    0.652347 0.746232 0.077703 0.136767
H40   H     H_    0.736275 0.545322 0.327947 0.089442
H41   H     H_    0.819066 0.535221 0.241539 0.126683
H42   H     H_    0.901007 0.637033 0.215162 0.115919
H43   H     H_    0.900605 0.749719 0.275828 0.098475
H44   H     H_    0.818640 0.761459 0.362203 0.105203
H45   H     H_    0.454671 0.736268 0.327940 0.089440
H46   H     H_    0.464771 0.819059 0.241532 0.126680
H47   H     H_    0.605016 0.302731 0.418988 0.103432
H48   H     H_    0.362965 0.901008 0.215162 0.115918
H49   H     H_    0.250284 0.900614 0.275835 0.098474
H50   H     H_    0.238544 0.818648 0.362209 0.105201
H51   H     H_    0.263733 0.454670 0.327940 0.089438
H52   H     H_    0.180942 0.464770 0.241532 0.126678
H53   H     H_    0.098991 0.362964 0.215162 0.115918
H54   H     H_    0.099385 0.250284 0.275835 0.098474
H55   H     H_    0.181351 0.238544 0.362209 0.105201
H56   H     H_    0.545324 0.263723 0.327945 0.089442
H57   H     H_    0.535224 0.180930 0.241538 0.126682
H58   H     H_    0.302003 0.605570 0.418633 0.109943
H59   H     H_    0.637036 0.098988 0.215164 0.115918
H60   H     H_    0.749721 0.099390 0.275832 0.098475
H61   H     H_    0.761461 0.181358 0.362205 0.105203
H62   H     H_    0.323786 0.604218 0.298056 0.087909
H63   H     H_    0.253656 0.591197 0.204610 0.102154
H64   H     H_    0.125381 0.631948 0.199939 0.123374
H65   H     H_    0.067348 0.687113 0.289028 0.096420
H66   H     H_    0.136268 0.702499 0.382007 0.101247
H67   H     H_    0.604221 0.676209 0.298056 0.087911
H68   H     H_    0.591199 0.746336 0.204610 0.102154
H69   H     H_    0.605570 0.697996 0.418634 0.109943
H70   H     H_    0.631943 0.874613 0.199937 0.123376
H71   H     H_    0.687103 0.932651 0.289026 0.096421
H72   H     H_    0.702491 0.863733 0.382006 0.101249
H73   H     H_    0.676211 0.395776 0.298054 0.087911
H74   H     H_    0.746340 0.408797 0.204608 0.102155
H75   H     H_    0.874617 0.368051 0.199938 0.123375
H76   H     H_    0.932654 0.312892 0.289027 0.096420
H77   H     H_    0.863734 0.297507 0.382007 0.101248
H78   H     H_    0.395780 0.323785 0.298055 0.087910
H79   H     H_    0.408800 0.253655 0.204610 0.102156
H80   H     H_    0.697997 0.394429 0.418632 0.109943
H81   H     H_    0.368049 0.125380 0.199939 0.123373
H82   H     H_    0.312885 0.067348 0.289028 0.096420
H83   H     H_    0.297501 0.136268 0.382007 0.101247
H84   H     H_    0.236275 0.045322 0.827947 0.089442
H85   H     H_    0.319066 0.035221 0.741539 0.126683
H86   H     H_    0.401007 0.137033 0.715162 0.115919
H87   H     H_    0.400605 0.249719 0.775828 0.098475
H88   H     H_    0.318640 0.261459 0.862203 0.105203
H89   H     H_    0.954671 0.236268 0.827940 0.089440
H90   H     H_    0.964771 0.319059 0.741532 0.126680
H91   H     H_    0.394429 0.302003 0.418632 0.109942
H92   H     H_    0.862965 0.401008 0.715162 0.115918
H93   H     H_    0.750284 0.400614 0.775835 0.098474
H94   H     H_    0.738544 0.318648 0.862209 0.105201
H95   H     H_    0.763733 0.954670 0.827940 0.089438
H96   H     H_    0.680942 0.964770 0.741532 0.126678
H97   H     H_    0.598992 0.862964 0.715162 0.115918
H98   H     H_    0.599385 0.750284 0.775835 0.098474
H99   H     H_    0.681351 0.738545 0.862209 0.105201
H100  H     H_    0.045324 0.763723 0.827945 0.089442
H101  H     H_    0.035224 0.680930 0.741538 0.126682
H102  H     H_    0.197269 0.105015 0.918990 0.103432
H103  H     H_    0.137036 0.598988 0.715164 0.115918
H104  H     H_    0.249721 0.599390 0.775832 0.098475
H105  H     H_    0.261461 0.681358 0.862205 0.105203
H106  H     H_    0.823786 0.104218 0.798056 0.087909
H107  H     H_    0.753656 0.091197 0.704610 0.102154
H108  H     H_    0.625381 0.131948 0.699939 0.123374
H109  H     H_    0.567348 0.187113 0.789028 0.096420
H110  H     H_    0.636268 0.202499 0.882007 0.101247
H111  H     H_    0.104221 0.176209 0.798056 0.087911
H112  H     H_    0.091199 0.246336 0.704610 0.102154
O1    O     O_3   0.500000 0.000000 0.500000 -0.432105
O2    O     O_R   0.560750 0.000000 0.867980 -0.530187
O3    O     O_R   0.000000 0.560750 0.867980 -0.530189
O4    O     O_R   0.439250 0.000000 0.867980 -0.530190
O5    O     O_R   0.560720 1.000000 0.632020 -0.549539
O6    O     O_R   0.000000 0.560720 0.632020 -0.549539
O7    O     O_R   0.439280 1.000000 0.632020 -0.549540
O8    O     O_R   0.000000 0.439280 0.632020 -0.549540
O9    O     O_R   0.060720 0.500000 0.132020 -0.549539
O10   O     O_R   0.500000 0.060720 0.132020 -0.549539
O11   O     O_R   0.939280 0.500000 0.132020 -0.549540
O12   O     O_3   0.000000 0.500000 0.500000 -0.432105
O13   O     O_R   0.500000 0.939280 0.132020 -0.549540
O14   O     O_R   0.585450 0.146130 0.465380 -0.538114
O15   O     O_R   0.853870 0.585450 0.465380 -0.538115
O16   O     O_R   0.414550 0.853870 0.465380 -0.538114
O17   O     O_R   0.146130 0.414550 0.465380 -0.538114
O18   O     O_R   0.414550 0.146130 0.465380 -0.543463
O19   O     O_R   0.146130 0.585450 0.465380 -0.543462
O20   O     O_R   0.585450 0.853870 0.465380 -0.543464
O21   O     O_R   0.853870 0.414550 0.465380 -0.543464
O22   O     O_R   0.085450 0.646130 0.965380 -0.538114
O23   O     O_3   0.000000 0.500000 0.000000 -0.432105
O24   O     O_R   0.353870 0.085450 0.965380 -0.538115
O25   O     O_R   0.914550 0.353870 0.965380 -0.538114
O26   O     O_R   0.646130 0.914550 0.965380 -0.538114
O27   O     O_R   0.914550 0.646130 0.965380 -0.543463
O28   O     O_R   0.646130 0.085450 0.965380 -0.543462
O29   O     O_R   0.085450 0.353870 0.965380 -0.543464
O30   O     O_R   0.353870 0.914550 0.965380 -0.543464
O31   O     O_R   0.353850 0.914510 0.534610 -0.555511
O32   O     O_R   0.085490 0.353850 0.534610 -0.555511
O33   O     O_R   0.646150 0.085490 0.534610 -0.555511
O34   O     O_3   0.500000 0.000000 0.000000 -0.432105
O35   O     O_R   0.914510 0.646150 0.534610 -0.555511
O36   O     O_R   0.646150 0.914510 0.534610 -0.551996
O37   O     O_R   0.914510 0.353850 0.534610 -0.551996
O38   O     O_R   0.353850 0.085490 0.534610 -0.551995
O39   O     O_R   0.085490 0.646150 0.534610 -0.551995
O40   O     O_R   0.853850 0.414510 0.034610 -0.555511
O41   O     O_R   0.585490 0.853850 0.034610 -0.555511
O42   O     O_R   0.146150 0.585490 0.034610 -0.555511
O43   O     O_R   0.414510 0.146150 0.034610 -0.555511
O44   O     O_R   0.146150 0.414510 0.034610 -0.551996
O45   O     O_R   0.500000 0.939250 0.367980 -0.530188
O46   O     O_R   0.414510 0.853850 0.034610 -0.551996
O47   O     O_R   0.853850 0.585490 0.034610 -0.551995
O48   O     O_R   0.585490 0.146150 0.034610 -0.551995
O49   O     O_R   0.060750 0.500000 0.367980 -0.530187
O50   O     O_R   0.500000 0.060750 0.367980 -0.530189
O51   O     O_R   0.939250 0.500000 0.367980 -0.530190
O52   O     O_R   0.000000 0.439250 0.867980 -0.530188
Zn1   Zn    Zn3+2 0.586760 0.000000 0.549450 0.911349
Zn2   Zn    Zn3+2 0.913280 0.500000 0.450540 0.935911
Zn3   Zn    Zn3+2 0.500000 0.913280 0.450540 0.935913
Zn4   Zn    Zn3+2 0.086720 0.500000 0.450540 0.935914
Zn5   Zn    Zn3+2 0.000000 0.586720 0.950540 0.935912
Zn6   Zn    Zn3+2 0.413280 0.000000 0.950540 0.935911
Zn7   Zn    Zn3+2 0.000000 0.413280 0.950540 0.935913
Zn8   Zn    Zn3+2 0.586720 0.000000 0.950540 0.935914
Zn9   Zn    Zn3+2 0.000000 0.586760 0.549450 0.911350
Zn10  Zn    Zn3+2 0.413240 0.000000 0.549450 0.911349
Zn11  Zn    Zn3+2 0.000000 0.413240 0.549450 0.911349
Zn12  Zn    Zn3+2 0.086760 0.500000 0.049450 0.911349
Zn13  Zn    Zn3+2 0.500000 0.086760 0.049450 0.911350
Zn14  Zn    Zn3+2 0.913240 0.500000 0.049450 0.911349
Zn15  Zn    Zn3+2 0.500000 0.913240 0.049450 0.911349
Zn16  Zn    Zn3+2 0.500000 0.086720 0.450540 0.935912

loop_
_geom_bond_atom_site_label_1
_geom_bond_atom_site_label_2
_ccdc_geom_bond_type
C30   H65   S    
C132  C150  A    
C19   C20   A    
C133  C151  A    
O42   Zn12  S    
C97   H10   S    
C55   C56   A    
C124  C142  A    
C181  C187  S    
C192  H41   S    
C179  H80   S    
C13   O16   A    
C2    C134  S    
C115  C174  S    
C81   H107  S    
C82   H108  S    
C128  C145  A    
O9    Zn12  S    
O47   Zn14  S    
C106  O41   A    
C46   O39   A    
C73   C74   A    
C107  C140  S    
C19   C176  S    
C182  O33   A    
C7    H45   S    
C48   H79   S    
O5    Zn1   S    
O19   Zn4   S    
O35   Zn9   S    
C78   C186  S    
C158  H34   S    
C90   C143  S    
C40   H73   S    
C83   H109  S    
C49   H81   S    
C59   C60   A    
O28   Zn8   S    
C21   C22   A    
O2    Zn8   S    
C32   C178  S    
C45   C47   A    
C191  C192  A    
C6    C11   A    
C120  C125  A    
O44   Zn12  S    
C123  C126  A    
C6    C174  S    
C171  O10   A    
C175  H36   S    
O43   Zn13  S    
O6    Zn9   S    
C154  H30   S    
C75   C76   A    
O14   Zn16  S    
C23   H60   S    
C105  O49   A    
O50   Zn16  S    
C123  C141  A    
C9    H48   S    
C105  C164  S    
C79   O22   A    
C180  H91   S    
C174  C177  S    
C146  H22   S    
C52   C58   A    
C160  O9    A    
C161  H37   S    
C187  H19   S    
O7    Zn10  S    
C185  H17   S    
C122  C189  S    
C77   H105  S    
C116  O3    A    
C117  C173  S    
C13   C133  S    
C24   O32   A    
C126  C185  S    
C72   C73   A    
O37   Zn11  S    
C6    C7    A    
C8    H46   S    
C119  C136  A    
C32   C33   A    
C138  O7    A    
C188  H20   S    
C47   H78   S    
O11   Zn14  S    
C177  H58   S    
C73   H100  S    
C69   C70   A    
C72   C185  S    
C90   O24   A    
C63   H93   S    
C110  O46   A    
C176  H47   S    
C88   C89   A    
C171  O13   A    
C98   C99   A    
C60   H89   S    
C57   O20   A    
O17   Zn4   S    
C143  C161  A    
O16   Zn3   S    
C190  C191  A    
C155  H31   S    
C57   O36   A    
C7    C8    A    
C167  C169  T    
C85   C86   A    
C67   H96   S    
C149  C169  S    
C70   H98   S    
C36   C37   A    
C103  H15   S    
C147  H23   S    
C105  O51   A    
C78   C80   A    
C127  O4    A    
C183  H2    S    
C137  C155  A    
C138  C168  S    
C94   H7    S    
C160  O11   A    
C18   H55   S    
C99   C100  A    
C89   C91   A    
C9    C10   A    
C24   C136  S    
C104  H16   S    
C66   C67   A    
C118  C176  S    
C166  C168  T    
O36   Zn1   S    
C90   O43   A    
C10   H49   S    
C148  H24   S    
C92   C97   A    
C176  C179  S    
C149  O6    A    
C101  O40   A    
O29   Zn7   S    
C183  C186  S    
C39   C40   A    
C138  O5    A    
C25   H61   S    
C16   C17   A    
C145  C163  A    
C127  O2    A    
C5    H44   S    
C110  C141  S    
C147  C151  A    
C29   C30   A    
C101  C142  S    
C83   C84   A    
C33   H67   S    
C17   C18   A    
C34   H68   S    
C108  O28   A    
C20   C21   A    
C59   C183  S    
C102  H14   S    
C189  H21   S    
O24   Zn6   S    
C82   C83   A    
C35   O38   A    
C3    C4    A    
C52   C53   A    
C26   C177  S    
C54   C55   A    
O52   Zn7   S    
C182  O14   A    
C99   H11   S    
C130  C147  A    
C22   C23   A    
C46   C130  S    
C108  C139  S    
C39   C179  S    
C92   C188  S    
C53   C54   A    
C39   C44   A    
C51   H83   S    
C156  H32   S    
C121  C139  A    
C122  C140  A    
C110  O30   A    
C3    C192  A    
C2    O35   A    
C173  C178  S    
C116  O52   A    
C126  C144  A    
C56   C58   A    
C31   H66   S    
C34   C36   A    
C61   C62   A    
C108  O48   A    
C27   H62   S    
C10   C11   A    
C175  C180  S    
C63   C64   A    
C4    C5    A    
C49   C50   A    
C14   C15   A    
O1    Zn10  S    
C35   O18   A    
C112  C130  A    
C42   H75   S    
C44   H77   S    
C65   C184  S    
C85   C187  S    
C149  O8    A    
C87   C88   A    
O41   Zn15  S    
C41   C42   A    
C28   H63   S    
C142  C159  A    
O33   Zn1   S    
C16   H53   S    
C155  C161  A    
C26   C27   A    
C106  C145  S    
C24   O17   A    
C28   C29   A    
O38   Zn10  S    
C62   H92   S    
O34   Zn15  S    
O15   Zn2   S    
C30   C31   A    
C173  C190  S    
C123  C188  S    
C68   C132  S    
C75   H103  S    
C45   C180  S    
C119  C175  S    
C121  C186  S    
C113  C119  A    
C164  C170  T    
C111  C129  A    
C53   H84   S    
C95   H8    S    
C150  C153  A    
O13   Zn15  S    
O10   Zn13  S    
C70   C71   A    
O34   Zn8   S    
C157  H33   S    
C46   O19   A    
C56   H87   S    
C88   H3    S    
C41   H74   S    
C148  C154  A    
C98   C189  S    
C117  C134  A    
C125  C181  S    
C52   C181  S    
C1    O45   A    
C86   C87   A    
C68   O21   A    
C115  C133  A    
O21   Zn2   S    
C60   C61   A    
C36   H70   S    
C13   O31   A    
C153  H29   S    
C62   C63   A    
C136  C154  A    
C134  C152  A    
O23   Zn12  S    
C50   C51   A    
C129  C146  A    
C162  H38   S    
C48   C49   A    
C58   H88   S    
O27   Zn5   S    
C54   H85   S    
C186  H18   S    
C173  H1    S    
C42   C43   A    
C120  C187  S    
C35   C131  S    
C79   O42   A    
C74   H101  S    
O34   Zn13  S    
O22   Zn5   S    
O46   Zn15  S    
C106  O26   A    
C107  O47   A    
C79   C144  S    
C111  C117  A    
O30   Zn6   S    
C61   H90   S    
C22   H59   S    
C21   H57   S    
C68   O37   A    
C100  H12   S    
C127  C166  S    
C92   C93   A    
O34   Zn6   S    
C122  C128  A    
C94   C95   A    
C184  H13   S    
C14   H51   S    
C141  C158  A    
C113  C180  S    
C55   H86   S    
C86   H111  S    
C103  C104  A    
C120  C137  A    
C118  C135  A    
C112  C177  S    
C171  C172  S    
C93   C94   A    
O23   Zn7   S    
C95   C96   A    
C128  C184  S    
O20   Zn3   S    
C43   C44   A    
O45   Zn3   S    
C81   C82   A    
C85   C91   A    
C96   H9    S    
C109  O44   A    
C101  O25   A    
C59   C64   A    
C37   C38   A    
O18   Zn16  S    
C17   H54   S    
C57   C129  S    
C66   H95   S    
C125  C143  A    
C5    C190  A    
C76   H104  S    
C163  H39   S    
C3    H42   S    
O1    Zn1   S    
O25   Zn7   S    
C45   C51   A    
C15   C16   A    
C2    O15   A    
C109  C137  S    
C29   H64   S    
C121  C124  A    
O12   Zn9   S    
C8    C9    A    
C1    O50   A    
C111  C178  S    
C116  C167  S    
C107  O27   A    
C32   C38   A    
C157  C163  A    
O8    Zn11  S    
C80   H106  S    
C165  C172  T    
C26   C31   A    
C114  C179  S    
C87   H112  S    
C50   H82   S    
C102  C103  A    
C71   H99   S    
O12   Zn2   S    
C74   C75   A    
C181  H102  S    
C76   C77   A    
C124  C183  S    
C191  H40   S    
C185  C188  S    
C65   C71   A    
C89   H4    S    
O26   Zn8   S    
O23   Zn14  S    
C67   C69   A    
C37   H71   S    
C72   C77   A    
C38   H72   S    
C140  C157  A    
C47   C48   A    
C1    C165  S    
O3    Zn5   S    
C96   C97   A    
O1    Zn16  S    
C100  C102  A    
C33   C34   A    
C150  H26   S    
C131  C148  A    
C174  H25   S    
C114  C118  A    
C12   C175  S    
C146  C152  A    
C40   C41   A    
C12   C14   A    
C159  H35   S    
O23   Zn5   S    
C4    H43   S    
C84   H110  S    
O48   Zn13  S    
C64   H94   S    
C15   H52   S    
C113  C131  A    
O31   Zn10  S    
C144  C162  A    
C114  C132  A    
C156  C159  A    
C80   C81   A    
C178  H69   S    
O1    Zn3   S    
O39   Zn9   S    
C135  C153  A    
C93   H6    S    
C43   H76   S    
O12   Zn11  S    
C109  O29   A    
C139  C156  A    
C98   C104  A    
C152  H28   S    
O32   Zn11  S    
C69   H97   S    
C151  H27   S    
C23   C25   A    
O40   Zn14  S    
C19   C25   A    
O49   Zn4   S    
C158  C162  A    
O4    Zn6   S    
C91   H5    S    
C78   C84   A    
C20   H56   S    
O51   Zn2   S    
C65   C66   A    
C12   C18   A    
C27   C28   A    
C11   H50   S    
C160  C170  S    
C184  C189  S    
C135  C182  S    
O12   Zn4   S    
C112  C115  A    
