data_mof_unit_13632.cif
_audit_creation_date              2012-12-11T17:17:06-0500
_audit_creation_method            fapswitch 2.2
_symmetry_space_group_name_H-M    P1
_symmetry_Int_Tables_number       1
_space_group_crystal_system       triclinic
_cell_length_a                    8.441762
_cell_length_b                    16.43598
_cell_length_c                    19.144706
_cell_angle_alpha                 98.737049
_cell_angle_beta                  93.997934
_cell_angle_gamma                 93.472195
_cell_volume                      2612.25989742

loop_
_atom_site_label
_atom_site_type_symbol
_atom_type_description
_atom_site_fract_x
_atom_site_fract_y
_atom_site_fract_z
_atom_type_partial_charge
Ba1   Ba    Ba6+2 0.843980 0.537940 0.465850 1.809527
Ba2   Ba    Ba6+2 0.345840 0.462130 0.534150 1.794379
C1    C     C_3   0.585305 0.825388 0.274709 0.236474
C2    C     C_3   0.428333 0.510746 0.237876 -0.022111
C3    C     C_2   0.360338 0.525805 0.164453 0.228515
C4    C     C_3   0.059439 0.716940 0.274688 0.194125
C5    C     C_2   0.203112 0.503582 0.144197 -0.232571
C6    C     C_2   0.098932 0.468080 0.196359 0.315663
C7    C     C_1   0.152166 0.472942 0.266141 -0.050764
C8    C     C_R   0.052615 0.500985 0.926376 0.473690
C9    C     C_R   0.140727 0.503471 0.067638 0.643135
C10   C     C_R   0.087667 0.530374 0.800065 -0.067905
C11   C     C_R   0.034023 0.519145 0.726867 0.055258
C12   C     C_3   0.633830 0.747066 0.302910 0.249920
C13   C     C_R   0.789271 0.448413 0.753235 -0.016852
C14   C     C_R   0.843774 0.457434 0.825246 -0.112094
C15   C     C_R   0.994475 0.497446 0.849756 -0.063098
C16   C     C_3   0.993369 0.742308 0.204659 -0.307105
C17   C     C_R   0.886957 0.476494 0.704580 -0.302667
C18   C     C_R   0.370632 0.734009 0.481587 -0.250938
C19   C     C_R   0.519797 0.760759 0.516028 -0.004451
C20   C     C_R   0.566798 0.845612 0.529721 -0.085245
C21   C     C_R   0.465263 0.903680 0.506802 0.290880
C22   C     C_R   0.316448 0.874800 0.471307 -0.145213
C23   C     C_3   0.526489 0.335086 0.315151 0.326753
C24   C     C_R   0.267545 0.790620 0.460574 0.029164
C25   C     C_R   0.597020 0.151468 0.511290 -0.131375
C26   C     C_R   0.663803 0.227575 0.498985 -0.024594
C27   C     C_R   0.689493 0.099090 0.548225 0.292377
C28   C     C_3   0.164286 0.722155 0.630580 0.235217
C29   C     C_R   0.825106 0.247897 0.521694 0.180928
C30   C     C_R   0.911639 0.205300 0.567520 -0.067973
C31   C     C_R   0.843110 0.129307 0.579960 -0.214366
C32   C     C_3   0.089983 0.802826 0.656992 -0.210389
C33   C     C_3   0.128491 0.271638 0.312639 0.338477
C34   C     C_3   0.467922 0.307761 0.237089 -0.375601
C35   C     C_3   0.128741 0.208410 0.245004 0.203938
C36   C     C_3   0.709377 0.644619 0.679592 0.278994
C37   C     C_3   0.678121 0.660001 0.758058 0.338880
C38   C     C_2   0.128547 0.869359 0.614390 0.440974
C39   C     C_2   0.096163 0.811277 0.182856 0.589093
C40   C     C_2   0.226156 0.692218 0.267822 0.355676
C41   C     C_3   0.103733 0.304557 0.736456 0.322169
C42   C     C_3   0.085637 0.277884 0.808153 -0.235528
C43   C     C_3   0.621105 0.252738 0.713985 0.336004
C44   C     C_3   0.570482 0.167758 0.731230 0.339229
C45   C     C_2   0.297871 0.506153 0.288642 -0.330948
H1    H     H_    0.762168 0.751423 0.317698 0.063227
H2    H     H_    0.707603 0.605810 0.782963 -0.036981
H3    H     H_    0.549784 0.669021 0.763297 0.055441
H4    H     H_    0.572755 0.742050 0.351426 0.071677
H5    H     H_    0.455082 0.829561 0.276723 0.030291
H6    H     H_    0.453969 0.383359 0.340589 -0.053954
H7    H     H_    0.643420 0.365576 0.313821 0.078551
H8    H     H_    0.447759 0.240021 0.224070 0.159436
H9    H     H_    0.359203 0.337404 0.223888 0.031832
H10   H     H_    0.554488 0.326088 0.201445 0.161526
H11   H     H_    0.611920 0.822142 0.218418 0.115928
H12   H     H_    0.136552 0.825963 0.712648 0.138632
H13   H     H_    0.183244 0.361949 0.743483 0.072441
H14   H     H_    0.984662 0.317729 0.714731 -0.121477
H15   H     H_    0.202217 0.284561 0.839199 0.151288
H16   H     H_    0.002844 0.316659 0.837836 0.105975
H17   H     H_    0.036760 0.212738 0.801406 0.177470
H18   H     H_    0.746703 0.268147 0.734247 -0.035342
H19   H     H_    0.610724 0.248873 0.655418 -0.103232
H20   H     H_    0.644868 0.121839 0.703796 -0.039995
H21   H     H_    0.444781 0.150416 0.711549 0.069412
H22   H     H_    0.983027 0.662839 0.283394 0.087957
H23   H     H_    0.959031 0.790888 0.656510 0.162659
H24   H     H_    0.201473 0.563577 0.817936 0.120847
H25   H     H_    0.768166 0.434033 0.862252 0.123030
H26   H     H_    0.330352 0.525133 0.344937 0.097979
H27   H     H_    0.843916 0.469436 0.649263 0.079202
H28   H     H_    0.477448 0.131538 0.488628 0.134139
H29   H     H_    0.238248 0.918096 0.452514 0.122858
H30   H     H_    0.681419 0.865720 0.557902 0.155249
H31   H     H_    0.911917 0.091663 0.610652 0.140051
H32   H     H_    0.332743 0.668957 0.472996 0.083758
H33   H     H_    0.982321 0.686996 0.162002 0.141685
H34   H     H_    0.107047 0.232199 0.352732 0.146861
H35   H     H_    0.871964 0.764043 0.210170 0.128484
H36   H     H_    0.288748 0.735608 0.618444 -0.041215
H37   H     H_    0.094774 0.690496 0.581769 0.042996
H38   H     H_    0.251407 0.891932 0.613099 -0.009817
H39   H     H_    0.769453 0.218380 0.198460 0.372681
H40   H     H_    0.941948 0.915843 0.326943 0.360906
H41   H     H_    0.044601 0.780039 0.834858 0.387201
H42   H     H_    0.119834 0.870239 0.218126 0.076741
H43   H     H_    0.458831 0.244103 0.893359 0.360993
H44   H     H_    0.487330 0.446576 0.031138 0.327551
H45   H     H_    0.241538 0.306044 0.328349 -0.099873
H46   H     H_    0.747767 0.394476 0.073562 0.369859
H47   H     H_    0.276537 0.684072 0.216745 0.058520
H48   H     H_    0.812773 0.339338 0.384615 0.348899
H49   H     H_    0.229281 0.168944 0.251761 0.024835
H50   H     H_    0.146567 0.239199 0.198483 0.099505
H51   H     H_    0.838058 0.639817 0.673998 -0.017955
H52   H     H_    0.643325 0.585295 0.656096 -0.008944
N1    N     N_R   0.079821 0.573717 0.971659 -0.143311
N2    N     N_R   0.123004 0.574894 0.040663 -0.150967
N3    N     N_R   0.115624 0.431149 0.021923 -0.148180
N4    N     N_R   0.070408 0.429931 0.953425 -0.226358
N5    N     N_2   0.510668 0.990014 0.513406 -0.185242
N6    N     N_2   0.639048 0.014378 0.549299 -0.175048
O1    O     O_2   0.875590 0.454550 0.328720 -0.442924
O2    O     O_2   0.247087 0.207073 0.562272 -0.451978
O3    O     O_3   0.170585 0.241768 0.692393 -0.590764
O4    O     O_3   0.127960 0.455900 0.416100 -0.435830
O5    O     O_3   0.560420 0.597610 0.535760 -0.495030
O6    O     O_2   0.379340 0.302240 0.465940 -0.421196
O7    O     O_3   0.530796 0.265901 0.351566 -0.585809
O8    O     O_2   0.463896 0.466550 0.752800 -0.483725
O9    O     O_3   0.524171 0.312303 0.745194 -0.565430
O10   O     O_3   0.634460 0.601950 0.371690 -0.500657
O11   O     O_2   0.761144 0.553570 0.252857 -0.418241
O12   O     O_3   0.657830 0.710824 0.647910 -0.614149
O13   O     O_3   0.004869 0.323986 0.307283 -0.552475
O14   O     O_3   0.593514 0.679596 0.248662 -0.577016
O15   O     O_2   0.810360 0.697790 0.534100 -0.474185
O16   O     O_3   0.049190 0.643760 0.407000 -0.489412
O17   O     O_2   0.934097 0.788679 0.453718 -0.425758
O18   O     O_2   0.022734 0.900600 0.583347 -0.537638
O19   O     O_2   0.993429 0.056310 0.195851 -0.178907
O20   O     O_2   0.870517 0.133739 0.294915 -0.201366
O21   O     O_3   0.821886 0.175525 0.169569 -0.397991
O22   O     O_2   0.584073 0.989782 0.313338 -0.196446
O23   O     O_3   0.054051 0.783338 0.330550 -0.627278
O24   O     O_2   0.706686 0.912037 0.401997 -0.309216
O25   O     O_3   0.864612 0.935068 0.292276 -0.444123
O26   O     O_2   0.767039 0.822524 0.771331 -0.245752
O27   O     O_2   0.745706 0.762874 0.880328 -0.192190
O28   O     O_3   0.988023 0.729404 0.807409 -0.530360
O29   O     O_2   0.154069 0.801306 0.125476 -0.473847
O30   O     O_2   0.619684 0.076626 0.834888 -0.170858
O31   O     O_2   0.733818 0.218865 0.858290 -0.305803
O32   O     O_3   0.428499 0.191866 0.861504 -0.470318
O33   O     O_2   0.441324 0.648055 0.092835 -0.201458
O34   O     O_2   0.314110 0.545480 0.671320 -0.465842
O35   O     O_2   0.659584 0.567266 0.124627 -0.213399
O36   O     O_3   0.455101 0.501409 0.022405 -0.492074
O37   O     O_2   0.006609 0.320522 0.120249 -0.263653
O38   O     O_2   0.823803 0.373774 0.205864 -0.319959
O39   O     O_3   0.834961 0.437332 0.092361 -0.471340
O40   O     O_2   0.305684 0.679117 0.319657 -0.648166
O41   O     O_2   0.927081 0.395258 0.504146 -0.304000
O42   O     O_2   0.095961 0.284665 0.465909 -0.289672
O43   O     O_3   0.840558 0.284437 0.391554 -0.531208
O44   O     O_3   0.061730 0.544170 0.583900 -0.474553
O45   O     O_3   0.555240 0.398120 0.628310 -0.484633
O46   O     O_3   0.168224 0.676510 0.686732 -0.587407
O47   O     O_3   0.629280 0.402460 0.464250 -0.466029
O48   O     O_3   0.140510 0.356300 0.593010 -0.397841
P1    P     P_3+3 0.048660 0.430750 0.339650 1.129519
P2    P     P_3+3 0.638170 0.686040 0.555200 1.009077
P3    P     P_3+3 0.073485 0.751507 0.414516 1.033327
P4    P     P_3+3 0.141040 0.569320 0.660360 1.028488
P5    P     P_3+3 0.117244 0.250610 0.604300 1.082278
P6    P     P_3+3 0.603295 0.584368 0.279457 1.092948
P7    P     P_3+3 0.552882 0.297167 0.444643 1.074824
P8    P     P_3+3 0.584582 0.407207 0.720854 0.973057
S1    S     S_3+6 0.950091 0.140757 0.227736 0.077252
S2    S     S_3+6 0.684787 0.918048 0.323394 -0.022488
S3    S     S_3+6 0.794353 0.747841 0.805816 -0.011764
S4    S     S_3+6 0.593827 0.163384 0.823994 0.009295
S5    S     S_3+6 0.485311 0.562640 0.101890 -0.010950
S6    S     S_3+6 0.938340 0.397054 0.155282 -0.049425
S7    S     S_3+6 0.929539 0.306685 0.471660 -0.085864

loop_
_geom_bond_atom_site_label_1
_geom_bond_atom_site_label_2
_ccdc_geom_bond_type
O25   S2    S    
Ba2   O45   S    
C4    H22   S    
C39   H42   S    
O47   P7    S    
Ba2   O4    S    
C44   S4    S    
H39   O21   S    
C24   P3    S    
O20   S1    D    
C14   H25   S    
C36   H51   S    
H43   O32   S    
O32   S4    S    
C33   H34   S    
C5    C6    S    
C29   C30   A    
C43   C44   S    
C42   H17   S    
C13   C17   A    
O36   S5    S    
C32   C38   S    
Ba2   O34   S    
O46   P4    S    
H40   O25   S    
C8    N4    A    
O16   P3    S    
C23   H6    S    
H41   O28   S    
C36   C37   S    
C36   H52   S    
C31   H31   S    
C2    P6    S    
O3    P5    S    
O31   S4    D    
C8    C15   S    
C13   C14   A    
C27   C31   A    
C26   P7    S    
C25   C27   A    
O24   S2    D    
Ba1   O47   S    
Ba1   Ba2   S    
C11   P4    S    
O48   P5    S    
Ba1   P2    S    
N5    N6    D    
O5    P2    S    
C23   O7    S    
Ba1   O4    S    
O37   S6    D    
C36   O12   S    
C43   O9    S    
C12   H4    S    
C14   C15   A    
O1    P1    D    
C10   C15   A    
O12   P2    S    
C21   C22   A    
Ba1   O44   S    
C32   H23   S    
O19   S1    D    
C1    S2    S    
Ba1   O1    S    
C33   H45   S    
Ba2   O44   S    
C19   C20   A    
O35   S5    D    
C27   N6    S    
N3    N4    A    
C25   H28   S    
C35   H50   S    
C39   O29   D    
C30   P5    S    
C26   C29   A    
C42   H16   S    
Ba2   O47   S    
C4    C16   S    
Ba2   O6    S    
C28   C32   S    
O39   S6    S    
O6    P7    D    
C23   H7    S    
C45   H26   S    
O11   P6    D    
C34   H10   S    
C28   H36   S    
C16   C39   S    
C3    C5    D    
C11   C17   A    
C6    C7    D    
O9    P8    S    
C12   H1    S    
C42   H15   S    
O15   P2    D    
C35   H49   S    
O10   P6    S    
Ba1   O15   S    
C38   H38   S    
C5    C9    S    
C41   C42   S    
O27   S3    D    
C44   H21   S    
C34   H9    S    
C6    S6    S    
Ba1   O5    S    
C21   N5    S    
C18   C19   A    
C19   P2    S    
C9    N2    A    
C3    S5    S    
C10   C11   A    
C8    N1    A    
O4    P1    S    
C1    C12   S    
O38   S6    D    
H46   O39   S    
C41   H13   S    
C16   H33   S    
C37   H2    S    
C10   H24   S    
C7    P1    S    
C7    C45   D    
Ba2   O48   S    
C43   H18   S    
C32   H12   S    
O43   S7    S    
O28   S3    S    
C25   C26   A    
O2    P5    D    
C41   H14   S    
C38   O18   D    
O41   S7    D    
Ba2   O5    S    
O22   S2    D    
O7    P7    S    
C18   H32   S    
C33   C35   S    
C40   H47   S    
O17   P3    D    
C13   P8    S    
C17   H27   S    
C22   H29   S    
H48   O43   S    
C20   H30   S    
C22   C24   A    
C2    C3    S    
C1    H5    S    
O45   P8    S    
O33   S5    D    
C30   C31   A    
C4    O23   S    
C44   H20   S    
C34   H8    S    
C28   O46   S    
C18   C24   A    
O26   S3    D    
Ba2   P4    S    
N1    N2    A    
C16   H35   S    
O13   P1    S    
C9    N3    A    
C41   O3    S    
C28   H37   S    
Ba1   P1    S    
Ba1   O16   S    
O30   S4    D    
O42   S7    D    
O23   P3    S    
C23   C34   S    
O8    P8    D    
C1    H11   S    
C37   H3    S    
C29   S7    S    
O34   P4    D    
O14   P6    S    
C12   O14   S    
C4    C40   S    
C43   H19   S    
C20   C21   A    
C33   O13   S    
Ba1   O10   S    
C37   S3    S    
O21   S1    S    
C40   O40   D    
O44   P4    S    
C35   S1    S    
H44   O36   S    
C2    C45   S    
