data_mof_unit_47300.cif
_audit_creation_date              2012-12-11T14:43:31-0500
_audit_creation_method            fapswitch 2.2
_symmetry_space_group_name_H-M    P1
_symmetry_Int_Tables_number       1
_space_group_crystal_system       triclinic
_cell_length_a                    20.802959
_cell_length_b                    7.0909
_cell_length_c                    16.470471
_cell_angle_alpha                 89.596327
_cell_angle_beta                  92.712941
_cell_angle_gamma                 90.084537
_cell_volume                      2426.80233404

loop_
_atom_site_label
_atom_site_type_symbol
_atom_type_description
_atom_site_fract_x
_atom_site_fract_y
_atom_site_fract_z
_atom_type_partial_charge
O1    O     O_R   0.564840 0.505290 0.579830 -0.529519
O2    O     O_R   0.435160 0.005290 0.420170 -0.529528
O3    O     O_R   0.556720 0.179930 0.409350 -0.536358
O4    O     O_R   0.443280 0.679930 0.590650 -0.530334
C1    C     C_R   0.569624 0.345553 0.380576 0.773378
C2    C     C_R   0.430342 0.844103 0.619588 0.779544
O5    O     O_R   0.572280 0.175810 0.578530 -0.552639
O6    O     O_R   0.427720 0.675810 0.421470 -0.553570
O7    O     O_R   0.450830 0.001920 0.590540 -0.540814
O8    O     O_R   0.549170 0.501920 0.409460 -0.544459
C3    C     C_R   0.589962 0.344913 0.604873 0.694272
C4    C     C_R   0.410405 0.845583 0.394624 0.684054
O9    O     O_3   0.460130 0.338030 0.503750 -0.370095
O10   O     O_3   0.539870 0.838030 0.496250 -0.374097
V1    V     V_3+5 0.507400 0.064560 0.499310 1.464916
V2    V     V_3+5 0.492600 0.564560 0.500690 1.472042
C5    C     C_R   0.142269 0.901000 0.169818 -0.355886
C6    C     C_R   0.858641 0.401345 0.828846 -0.361253
C7    C     C_R   0.358230 0.866365 0.330495 -0.091940
C8    C     C_R   0.642487 0.364215 0.668493 -0.095257
C9    C     C_R   0.312475 0.052103 0.216661 -0.105005
C10   C     C_R   0.688592 0.550389 0.780634 -0.050669
C11   C     C_R   0.363951 0.007237 0.270786 -0.171863
C12   C     C_R   0.637063 0.505171 0.727187 -0.165236
C13   C     C_R   0.300227 0.765842 0.333333 -0.091936
C14   C     C_R   0.700548 0.263952 0.665900 -0.083707
C15   C     C_R   0.247432 0.812118 0.279585 -0.127641
C16   C     C_R   0.753447 0.310241 0.719430 -0.136437
C17   C     C_R   0.253007 0.959400 0.221507 -0.017576
C18   C     C_R   0.747764 0.456612 0.776872 -0.029189
C19   C     C_R   0.199393 0.009280 0.168842 0.287280
C20   C     C_R   0.801251 0.507026 0.829325 0.383553
C21   C     C_R   0.137387 0.757750 0.229114 0.476536
C22   C     C_R   0.863776 0.258902 0.770034 0.459093
C23   C     C_R   0.188895 0.715318 0.283656 0.553010
C24   C     C_R   0.812328 0.215763 0.715503 0.565906
H1    H     H_    0.319379 0.161463 0.171686 0.148547
H2    H     H_    0.682128 0.662528 0.823542 0.134567
H3    H     H_    0.408410 0.085751 0.266941 0.158337
H4    H     H_    0.592858 0.584338 0.730419 0.165565
H5    H     H_    0.295481 0.657776 0.379528 0.181031
H6    H     H_    0.705271 0.156481 0.620119 0.178619
C25   C     C_R   0.384628 0.790906 0.838075 0.462836
C26   C     C_R   0.612765 0.392588 0.160731 0.434123
C27   C     C_R   0.392760 0.850236 0.693391 -0.246177
C28   C     C_R   0.607364 0.359852 0.307324 -0.232696
C29   C     C_R   0.086980 0.005416 0.741984 -0.329516
C30   C     C_R   0.918843 0.419463 0.265028 -0.331530
C31   C     C_R   0.125144 0.058804 0.679086 0.671562
C32   C     C_R   0.884300 0.438314 0.334462 0.689059
C33   C     C_R   0.191091 0.025261 0.683917 0.551287
C34   C     C_R   0.817232 0.441390 0.329790 0.558127
C35   C     C_R   0.220151 0.922353 0.750343 -0.152030
C36   C     C_R   0.782272 0.415046 0.254318 -0.159553
C37   C     C_R   0.180562 0.868469 0.815687 -0.155075
C38   C     C_R   0.818355 0.405275 0.182185 -0.174554
C39   C     C_R   0.287525 0.877358 0.755124 0.014948
C40   C     C_R   0.713015 0.400527 0.247617 0.018507
C41   C     C_R   0.316530 0.812379 0.830126 -0.196779
C42   C     C_R   0.680932 0.409647 0.169395 -0.211796
C43   C     C_R   0.276994 0.761054 0.894231 0.405697
C44   C     C_R   0.717856 0.429201 0.100297 0.419147
C45   C     C_R   0.209436 0.769073 0.882535 0.337854
C46   C     C_R   0.784294 0.398119 0.106041 0.373661
C47   C     C_R   0.326456 0.885362 0.686594 -0.153521
C48   C     C_R   0.674617 0.371110 0.315568 -0.174836
C49   C     C_R   0.422408 0.810892 0.770080 0.363568
C50   C     C_R   0.576136 0.369080 0.229835 0.352019
C51   C     C_R   0.113505 0.917052 0.811882 -0.168014
C52   C     C_R   0.887370 0.408006 0.188531 -0.172330
H7    H     H_    0.305750 0.904072 0.625856 0.212435
H8    H     H_    0.695355 0.347160 0.375798 0.214377
H9    H     H_    0.036560 0.043957 0.738205 0.245433
H10   H     H_    0.970968 0.422511 0.270673 0.227401
O11   O     O_R   0.950790 0.256670 0.090520 -0.542976
O12   O     O_R   0.049210 0.756670 0.909480 -0.518652
O13   O     O_R   0.927720 0.590370 0.921470 -0.530582
O14   O     O_R   0.072280 0.090370 0.078530 -0.541201
C53   C     C_R   0.911022 0.420959 0.893563 0.892868
C54   C     C_R   0.089625 0.920377 0.105532 0.850403
O15   O     O_R   0.943270 0.586180 0.090640 -0.530916
O16   O     O_R   0.056730 0.086180 0.909360 -0.555648
O17   O     O_R   0.064850 0.759970 0.079840 -0.515516
O18   O     O_R   0.935150 0.259970 0.920160 -0.530445
C55   C     C_R   0.929063 0.416974 0.117849 0.866692
C56   C     C_R   0.072170 0.917892 0.883223 0.825098
O19   O     O_3   0.039850 0.428050 0.996240 -0.392270
O20   O     O_3   0.960150 0.928050 0.003760 -0.391983
V3    V     V_3+5 0.992610 0.701540 0.000700 1.549006
V4    V     V_3+5 0.007390 0.201540 0.999300 1.484066
O21   O     O_3   0.204880 0.150651 0.111221 -0.567289
C57   C     C_3   0.190729 0.324523 0.147523 -0.142008
H11   H     H_    0.226701 0.360076 0.197159 0.139484
H12   H     H_    0.141488 0.325213 0.171166 0.192299
H13   H     H_    0.192655 0.437521 0.100862 0.141039
O22   O     O_3   0.795791 0.650477 0.884861 -0.539546
C58   C     C_3   0.804971 0.825353 0.845357 -0.216828
H14   H     H_    0.774943 0.932507 0.874087 0.102822
H15   H     H_    0.790147 0.826853 0.779376 0.173820
H16   H     H_    0.856182 0.868555 0.853014 0.196385
F1    F     F_    0.225937 0.110143 0.626487 -0.642751
F2    F     F_    0.788342 0.487035 0.398987 -0.638409
F3    F     F_    0.098431 0.155888 0.614747 -0.553516
F4    F     F_    0.916445 0.461647 0.407312 -0.546462
O23   O     O_3   0.172394 0.666579 0.934524 -0.567340
C59   C     C_3   0.170279 0.477501 0.907599 -0.117774
H17   H     H_    0.218470 0.420831 0.893812 0.128198
H18   H     H_    0.136733 0.463857 0.853351 0.138832
H19   H     H_    0.152531 0.386688 0.956644 0.170762
O24   O     O_3   0.815207 0.360997 0.035629 -0.550068
C60   C     C_3   0.804620 0.168944 0.016931 -0.192499
H20   H     H_    0.752864 0.139610 0.001918 0.142424
H21   H     H_    0.822951 0.074719 0.067239 0.124343
H22   H     H_    0.831174 0.133378 0.962744 0.147030
F5    F     F_    0.082126 0.656899 0.234176 -0.643594
F6    F     F_    0.919179 0.159419 0.765496 -0.646876
F7    F     F_    0.181840 0.575405 0.339309 -0.606405
F8    F     F_    0.819884 0.078082 0.659834 -0.607392
O25   O     O_3   0.487461 0.769312 0.778908 -0.550787
C61   C     C_3   0.524552 0.934680 0.769509 -0.275357
H23   H     H_    0.498913 0.067792 0.783656 0.127743
H24   H     H_    0.541975 0.942191 0.707000 0.159209
H25   H     H_    0.567670 0.925614 0.811657 0.155202
O26   O     O_3   0.511196 0.326430 0.219076 -0.557719
C62   C     C_3   0.472960 0.479273 0.242954 -0.276872
H26   H     H_    0.498604 0.617601 0.246281 0.116643
H27   H     H_    0.452466 0.445826 0.302252 0.170738
H28   H     H_    0.431697 0.495346 0.198273 0.149011
O27   O     O_3   0.303833 0.670164 0.962591 -0.523333
C63   C     C_3   0.292136 0.775140 0.032891 -0.136210
H29   H     H_    0.243727 0.742992 0.054759 0.151030
H30   H     H_    0.297682 0.930013 0.023486 0.125963
H31   H     H_    0.327742 0.732210 0.081795 0.139843
O28   O     O_3   0.689468 0.472154 0.024909 -0.511900
C64   C     C_3   0.687875 0.670675 0.017329 -0.120012
H32   H     H_    0.737295 0.730449 0.016230 0.154792
H33   H     H_    0.661749 0.737271 0.067136 0.090274
H34   H     H_    0.661644 0.708947 0.959517 0.144819
O29   O     O_3   0.414711 0.736963 0.911305 -0.516533
C65   C     C_3   0.435685 0.900185 0.953434 -0.169147
H35   H     H_    0.397433 0.009712 0.955195 0.117107
H36   H     H_    0.479191 0.960285 0.926564 0.147301
H37   H     H_    0.449054 0.860031 0.017220 0.144287
O30   O     O_3   0.583340 0.370948 0.083879 -0.525009
C66   C     C_3   0.540334 0.521064 0.065147 -0.086877
H38   H     H_    0.549805 0.650906 0.101696 0.067392
H39   H     H_    0.490132 0.472978 0.072033 0.169501
H40   H     H_    0.544575 0.560590 0.000323 0.173399

loop_
_geom_bond_atom_site_label_1
_geom_bond_atom_site_label_2
_ccdc_geom_bond_type
C64   H34   S    
C32   F4    S    
C2    C27   S    
C15   C17   A    
C35   C37   A    
C63   H30   S    
C60   H20   S    
O1    C3    A    
C65   H37   S    
O2    C4    A    
C50   O26   S    
C2    O7    A    
C66   H38   S    
C64   H32   S    
C29   C31   A    
O14   V4    S    
O5    C3    A    
C34   F2    S    
O18   V4    S    
C65   H36   S    
C28   C48   A    
C53   O18   A    
C21   C23   A    
O14   C54   A    
C39   C41   A    
C59   H17   S    
C22   F6    S    
C10   H2    S    
C42   C44   A    
C43   C45   A    
O24   C60   S    
C29   C51   A    
C44   C46   A    
O11   V4    S    
C58   H15   S    
O19   V4    S    
C40   C48   A    
C48   H8    S    
C8    C12   A    
C34   C36   A    
C6    C53   S    
C31   C33   A    
C37   C45   A    
C27   C49   A    
C62   H28   S    
C32   C34   A    
C38   C46   A    
C25   O29   S    
O6    C4    A    
C45   O23   S    
C24   F8    S    
C61   H25   S    
C43   O27   S    
O12   V3    S    
O15   V3    S    
C59   H18   S    
O5    V1    S    
O6    V2    S    
C5    C21   A    
C54   O17   A    
C66   H39   S    
C61   H24   S    
C58   H14   S    
O13   C53   A    
O17   V3    S    
O29   C65   S    
C36   C38   A    
C3    C8    S    
C21   F5    S    
C41   C43   A    
C30   H10   S    
C65   H35   S    
C29   H9    S    
O4    C2    A    
C13   H5    S    
O21   C57   S    
C35   C39   A    
C15   C23   A    
O16   C56   A    
C9    C17   A    
C57   H13   S    
C33   C35   A    
O4    V2    S    
C7    C11   A    
C49   O25   S    
C28   C50   A    
C46   O24   S    
C26   O30   S    
O13   V3    S    
O22   C58   S    
C57   H12   S    
C60   H21   S    
O1    V2    S    
O2    V1    S    
C6    C22   A    
C37   C51   A    
C1    C28   S    
C20   O22   S    
O20   V4    S    
C38   C52   A    
C9    C11   A    
C27   C47   A    
C62   H26   S    
C5    C19   A    
C10   C12   A    
C26   C50   A    
C63   H31   S    
C6    C20   A    
O12   C56   A    
C66   H40   S    
O3    V1    S    
C61   H23   S    
C14   H6    S    
O11   C55   A    
O27   C63   S    
C36   C40   A    
C33   F1    S    
C64   H33   S    
C58   H16   S    
C10   C18   A    
C14   C16   A    
C30   C52   A    
O30   C66   S    
O3    C1    A    
C31   F3    S    
O25   C61   S    
O28   C64   S    
C25   C41   A    
C13   C15   A    
O23   C59   S    
C19   O21   S    
O16   V4    S    
C44   O28   S    
C16   C18   A    
C63   H29   S    
O7    V1    S    
C1    O8    A    
C17   C19   A    
C47   H7    S    
C18   C20   A    
C8    C14   A    
C26   C42   A    
C11   H3    S    
C4    C7    S    
C30   C32   A    
C57   H11   S    
C12   H4    S    
C60   H22   S    
C22   C24   A    
C5    C54   S    
C7    C13   A    
C23   F7    S    
C9    H1    S    
O20   V3    S    
C16   C24   A    
C25   C49   A    
O9    V2    S    
C62   H27   S    
O19   V3    S    
O10   V1    S    
O8    V2    S    
C52   C55   S    
C40   C42   A    
O15   C55   A    
C51   C56   S    
O26   C62   S    
C39   C47   A    
C59   H19   S    
