data_mof_unit_6111.cif
_audit_creation_date              2012-12-10T16:57:09-0500
_audit_creation_method            fapswitch 2.2
_symmetry_space_group_name_H-M    P1
_symmetry_Int_Tables_number       1
_space_group_crystal_system       triclinic
_cell_length_a                    7.702216
_cell_length_b                    8.634259
_cell_length_c                    17.655465
_cell_angle_alpha                 92.466383
_cell_angle_beta                  82.377731
_cell_angle_gamma                 93.657787
_cell_volume                      1160.6852104

loop_
_atom_site_label
_atom_site_type_symbol
_atom_type_description
_atom_site_fract_x
_atom_site_fract_y
_atom_site_fract_z
_atom_type_partial_charge
C1    C     C_R   0.545721 0.794395 0.497963 0.863188
C2    C     C_R   0.353785 0.475698 0.233173 0.143244
C3    C     C_R   0.606785 0.471277 0.848036 -0.268441
C4    C     C_R   0.372740 0.500203 0.155600 -0.250997
C5    C     C_R   0.445550 0.494967 0.893557 -0.016751
C6    C     C_R   0.529888 0.469641 0.108100 0.033597
C7    C     C_R   0.298870 0.518250 0.855034 0.618113
C8    C     C_R   0.673680 0.427156 0.143379 0.655430
C9    C     C_R   0.316596 0.516603 0.776875 -0.265010
C10   C     C_R   0.665606 0.434752 0.221540 -0.304871
C11   C     C_2   0.422661 0.485713 0.979161 0.033567
C12   C     C_R   0.454278 0.205602 0.502029 0.856893
C13   C     C_2   0.556375 0.491642 0.024056 0.096384
C14   C     C_2   0.570406 0.956613 0.497003 0.288773
C15   C     C_2   0.429593 0.043390 0.502985 0.291042
C16   C     C_R   0.482329 0.503306 0.651838 0.879786
C17   C     C_R   0.515523 0.487183 0.348345 0.887019
C18   C     C_R   0.480196 0.505561 0.733532 -0.139055
C19   C     C_R   0.509751 0.464964 0.267124 -0.135262
C20   C     C_R   0.632726 0.490827 0.769974 0.139921
F1    F     F_    0.135011 0.542763 0.890525 -0.721253
F2    F     F_    0.826925 0.383967 0.103622 -0.683089
F3    F     F_    0.739735 0.016666 0.490124 -0.566372
F4    F     F_    0.260263 0.983340 0.509861 -0.567141
F5    F     F_    0.031172 0.333375 0.445693 -0.532229
F6    F     F_    0.966845 0.663538 0.556614 -0.530085
H1    H     H_    0.782353 0.413674 0.246470 0.196047
H2    H     H_    0.797183 0.425876 0.974771 0.260348
H3    H     H_    0.195841 0.585272 0.013656 0.260993
H4    H     H_    0.170472 0.387755 0.990930 0.276060
H5    H     H_    0.199885 0.527495 0.750124 0.197936
H6    H     H_    0.261091 0.546775 0.136638 0.204915
H7    H     H_    0.717405 0.429939 0.869604 0.181681
H8    H     H_    0.900788 0.525639 0.764586 0.202668
H9    H     H_    0.842839 0.522329 0.677842 0.262241
H10   H     H_    0.080705 0.394904 0.240136 0.219472
H11   H     H_    0.140279 0.456662 0.330352 0.279804
H12   H     H_    0.749658 0.617939 0.956128 0.221641
N1    N     N_2   0.953500 0.457650 0.478520 0.244306
N2    N     N_2   0.046500 0.542350 0.521480 0.250710
N3    N     N_3   0.810670 0.469631 0.731168 -0.405664
N4    N     N_3   0.178031 0.440622 0.272777 -0.427434
N5    N     N_3   0.735992 0.527942 0.994223 -0.397189
N6    N     N_3   0.245948 0.475984 0.015662 -0.425317
O1    O     O_R   0.388470 0.738640 0.505270 -0.570944
O2    O     O_R   0.611530 0.261360 0.494730 -0.570717
O3    O     O_R   0.679650 0.711510 0.491500 -0.534395
O4    O     O_R   0.320350 0.288490 0.508500 -0.534543
O5    O     O_R   0.337210 0.515200 0.623500 -0.632613
O6    O     O_R   0.662790 0.484800 0.376500 -0.634023
O7    O     O_R   0.628380 0.488060 0.609730 -0.623181
O8    O     O_R   0.371620 0.511940 0.390270 -0.630220
Zn1   Zn    Zn3+2 0.305580 0.518120 0.509190 1.160215
Zn2   Zn    Zn3+2 0.694420 0.481880 0.490810 1.160803

loop_
_geom_bond_atom_site_label_1
_geom_bond_atom_site_label_2
_ccdc_geom_bond_type
C14   F3    S    
C17   O6    A    
C2    C4    A    
C16   O7    A    
H2    N5    S    
H10   N4    S    
C12   C15   S    
C13   N5    S    
C10   C19   A    
C12   O4    A    
O7    Zn2   S    
H4    N6    S    
C7    C9    A    
O2    Zn2   S    
H11   N4    S    
C20   N3    S    
O1    Zn1   S    
H12   N5    S    
C4    H6    S    
F5    N1    S    
C6    C13   S    
C11   C13   D    
C1    O1    A    
O6    Zn2   S    
H8    N3    S    
C2    N4    S    
O3    Zn2   S    
O5    Zn1   S    
C10   H1    S    
C17   O8    A    
C8    C10   A    
C15   F4    S    
C17   C19   S    
C5    C11   S    
C18   C20   A    
H3    N6    S    
O4    Zn1   S    
H9    N3    S    
F6    N2    S    
N1    Zn2   S    
C9    H5    S    
N2    Zn1   S    
C16   O5    A    
C11   N6    S    
C9    C18   A    
C3    C20   A    
O8    Zn1   S    
C16   C18   S    
C4    C6    A    
N1    N2    D    
C5    C7    A    
C3    H7    S    
C14   C15   D    
C1    O3    A    
C6    C8    A    
C1    C14   S    
C2    C19   A    
C7    F1    S    
C8    F2    S    
C3    C5    A    
C12   O2    A    
