data_mof_unit_42632.cif
_audit_creation_date              2012-12-10T20:28:39-0500
_audit_creation_method            fapswitch 2.2
_symmetry_space_group_name_H-M    P1
_symmetry_Int_Tables_number       1
_space_group_crystal_system       triclinic
_cell_length_a                    10.624932
_cell_length_b                    10.790164
_cell_length_c                    9.829579
_cell_angle_alpha                 92.008089
_cell_angle_beta                  97.503298
_cell_angle_gamma                 93.913243
_cell_volume                      1113.55452056

loop_
_atom_site_label
_atom_site_type_symbol
_atom_type_description
_atom_site_fract_x
_atom_site_fract_y
_atom_site_fract_z
_atom_type_partial_charge
C1    C     C_R   0.510922 0.260996 0.500183 0.913921
C2    C     C_R   0.080754 0.611389 0.511372 0.071237
C3    C     C_R   0.125801 0.499981 0.469667 -0.083850
C4    C     C_R   0.047593 0.390519 0.446462 -0.174177
C5    C     C_R   0.921854 0.392157 0.467313 -0.101945
C6    C     C_R   0.879476 0.498559 0.526974 -0.033171
C7    C     C_R   0.583351 0.078405 0.626867 0.016022
C8    C     C_R   0.544595 0.133755 0.503365 -0.135974
C9    C     C_R   0.538756 0.062374 0.382064 -0.102925
C10   C     C_R   0.537511 0.934291 0.387317 -0.132848
C11   C     C_R   0.545226 0.876102 0.514722 -0.131127
C12   C     C_R   0.258989 0.491120 0.490539 0.882668
C13   C     C_R   0.591904 0.951884 0.637022 -0.101171
C14   C     C_3   0.575196 0.970274 0.791751 0.073203
C15   C     C_3   0.576933 0.112283 0.772228 0.200919
C16   C     C_R   0.455806 0.394635 0.062207 0.116267
C17   C     C_R   0.523109 0.606970 0.078899 -0.075509
C18   C     C_R   0.516065 0.607133 0.934193 0.044406
C19   C     C_R   0.455688 0.395771 0.917451 0.168494
C20   C     C_3   0.320164 0.346285 0.888420 -0.540443
C21   C     C_3   0.318212 0.344437 0.041240 0.275821
C22   C     C_R   0.512872 0.741546 0.505317 0.835723
C23   C     C_R   0.742914 0.505688 0.509109 0.853227
C24   C     C_R   0.155826 0.725100 0.517104 -0.135504
C25   C     C_R   0.123967 0.826998 0.591929 -0.160874
C26   C     C_R   0.025725 0.811835 0.671498 -0.188040
C27   C     C_R   0.950513 0.698809 0.664236 0.267310
C28   C     C_R   0.965098 0.605214 0.564543 -0.026871
H1    H     H_    0.542358 0.693693 0.138485 0.181525
H2    H     H_    0.517373 0.692832 0.881798 0.183320
H3    H     H_    0.256698 0.414515 0.839608 0.209914
H4    H     H_    0.309327 0.253802 0.833280 0.232977
H5    H     H_    0.240883 0.733827 0.467432 0.144288
H6    H     H_    0.016473 0.884561 0.746860 0.197304
H7    H     H_    0.857622 0.310245 0.438632 0.164735
H8    H     H_    0.524037 0.103849 0.283527 0.239718
H9    H     H_    0.518822 0.881647 0.290116 0.178825
H10   H     H_    0.479430 0.931122 0.809737 0.090661
N1    N     N_R   0.499160 0.499140 0.142800 -0.148517
N2    N     N_R   0.499160 0.499180 0.857150 -0.076334
O1    O     O_R   0.500020 0.316790 0.614690 -0.612025
O2    O     O_R   0.500000 0.316760 0.385350 -0.586290
O3    O     O_R   0.316770 0.500020 0.614690 -0.626770
O4    O     O_R   0.316760 0.499980 0.385350 -0.607406
O5    O     O_R   0.500000 0.683240 0.614650 -0.614548
O6    O     O_R   0.499980 0.683210 0.385310 -0.634837
O7    O     O_R   0.683240 0.500020 0.614650 -0.488247
O8    O     O_R   0.683230 0.499980 0.385310 -0.610020
Zn1   Zn    Zn3+2 0.500010 0.500020 0.653130 1.058653
Zn2   Zn    Zn3+2 0.499990 0.499980 0.346870 1.002992
H11   H     H_    0.084202 0.304630 0.413682 0.185658
S1    S     S_3+6 0.694172 0.939816 0.936610 0.106977
O9    O     O_2   0.664508 0.013804 0.059099 -0.239676
O10   O     O_2   0.693346 0.809440 0.980926 -0.254732
O11   O     O_3   0.842170 0.981821 0.905411 -0.364823
H12   H     H_    0.841106 0.957946 0.807276 0.337182
H13   H     H_    0.485777 0.150126 0.789424 0.088459
S2    S     S_3+6 0.717960 0.217366 0.834012 0.127512
O12   O     O_2   0.826864 0.188230 0.757646 -0.252493
O13   O     O_2   0.689513 0.348082 0.806292 -0.241749
O14   O     O_3   0.767411 0.217304 0.003485 -0.389090
H14   H     H_    0.704517 0.263104 0.047372 0.357576
H15   H     H_    0.253337 0.410354 0.079468 0.117151
S3    S     S_3+6 0.288849 0.189183 0.093946 0.030127
O15   O     O_2   0.287358 0.189398 0.246434 -0.317353
O16   O     O_2   0.160933 0.137937 0.023176 -0.212448
O17   O     O_3   0.401318 0.099810 0.048302 -0.599202
H16   H     H_    0.370274 0.013575 0.064290 0.376629
H17   H     H_    0.183236 0.913317 0.599337 0.165764
S4    S     S_3+6 0.879851 0.660643 0.809885 0.080532
O18   O     O_2   0.893417 0.526199 0.839278 -0.191467
O19   O     O_2   0.940132 0.739619 0.933333 -0.211601
O20   O     O_3   0.726728 0.686476 0.774588 -0.487817
H18   H     H_    0.726220 0.756967 0.713117 0.314179

loop_
_geom_bond_atom_site_label_1
_geom_bond_atom_site_label_2
_ccdc_geom_bond_type
C9    H8    S    
S4    O19   D    
O11   H12   S    
C24   C25   A    
C16   C21   S    
C18   H2    S    
C24   H5    S    
C14   H10   S    
C1    C8    S    
C17   H1    S    
C9    C10   A    
O6    Zn2   S    
C11   C22   S    
C19   C20   S    
S1    O11   S    
O5    Zn1   S    
S3    O15   D    
O14   H14   S    
S2    O14   S    
C7    C15   S    
C17   C18   A    
C23   O8    A    
C7    C8    A    
O7    Zn1   S    
C25   C26   A    
C20   H4    S    
C13   C14   S    
S1    O9    D    
C4    C5    A    
C15   H13   S    
C26   C27   A    
S4    O18   D    
C27   S4    S    
O2    Zn2   S    
C10   H9    S    
C6    C23   S    
C5    H7    S    
O8    Zn2   S    
C22   O6    A    
S1    O10   D    
C2    C3    A    
C12   O3    A    
C10   C11   A    
C16   C19   A    
O20   H18   S    
C2    C24   A    
C5    C6    A    
C15   S2    S    
C14   S1    S    
C21   H15   S    
C11   C13   A    
C23   O7    A    
C19   N2    A    
C16   N1    A    
S2    O13   D    
O17   H16   S    
S3    O17   S    
C1    O2    A    
C7    C13   A    
N1    Zn2   S    
C25   H17   S    
C20   C21   S    
O4    Zn2   S    
C12   O4    A    
C22   O5    A    
C17   N1    A    
C1    O1    A    
C27   C28   A    
C18   N2    A    
C14   C15   S    
O3    Zn1   S    
C21   S3    S    
C2    C28   A    
C3    C12   S    
C4    H11   S    
C26   H6    S    
S2    O12   D    
S4    O20   S    
O1    Zn1   S    
C6    C28   A    
C3    C4    A    
N2    Zn1   S    
C8    C9    A    
C20   H3    S    
S3    O16   D    
