data_mof_unit_29742.cif
_audit_creation_date              2012-12-11T14:28:20-0500
_audit_creation_method            fapswitch 2.2
_symmetry_space_group_name_H-M    P1
_symmetry_Int_Tables_number       1
_space_group_crystal_system       triclinic
_cell_length_a                    11.205346
_cell_length_b                    19.259544
_cell_length_c                    18.736669
_cell_angle_alpha                 89.975946
_cell_angle_beta                  89.891715
_cell_angle_gamma                 90.000241
_cell_volume                      4043.55022953

loop_
_atom_site_label
_atom_site_type_symbol
_atom_type_description
_atom_site_fract_x
_atom_site_fract_y
_atom_site_fract_z
_atom_type_partial_charge
C1    C     C_R   0.318416 0.958663 0.642267 0.550345
C2    C     C_3   0.147924 0.696634 0.022981 0.112644
C3    C     C_3   0.011593 0.206422 0.977371 -0.126172
C4    C     C_3   0.608576 0.311632 0.464959 -0.152993
C5    C     C_3   0.615329 0.307993 0.028736 -0.161902
C6    C     C_3   0.538148 0.692859 0.524601 -0.137861
C7    C     C_3   0.511593 0.706422 0.977371 -0.126172
C8    C     C_3   0.204554 0.771838 0.508863 -0.124761
C9    C     C_3   0.194729 0.759760 0.983212 -0.098001
C10   C     C_3   0.170316 0.181590 0.503029 -0.129411
C11   C     C_3   0.138803 0.217560 0.007347 -0.093695
C12   C     C_3   0.704554 0.271838 0.508863 -0.124762
C13   C     C_3   0.205311 0.242115 0.551747 0.094262
C14   C     C_3   0.694729 0.259759 0.983212 -0.098001
C15   C     C_3   0.670316 0.681590 0.503029 -0.129412
C16   C     C_3   0.638803 0.717560 0.007347 -0.093695
C17   C     C_3   0.107784 0.753859 0.565272 0.020363
C18   C     C_3   0.093113 0.750041 0.929666 0.032279
C19   C     C_3   0.153571 0.234642 0.441327 0.019155
C20   C     C_3   0.083189 0.252915 0.072942 0.013462
C21   C     C_3   0.607783 0.253859 0.565272 0.020363
C22   C     C_3   0.593113 0.250041 0.929666 0.032279
C23   C     C_3   0.653571 0.734642 0.441327 0.019155
C24   C     C_3   0.143160 0.288611 0.972098 0.141693
C25   C     C_3   0.583189 0.752915 0.072942 0.013462
C26   C     C_3   0.013262 0.793914 0.522383 -0.148381
C27   C     C_3   0.014291 0.798714 0.973321 -0.133302
C28   C     C_3   0.022362 0.245545 0.462492 -0.136976
C29   C     C_3   0.957163 0.242102 0.044723 -0.153372
C30   C     C_3   0.513262 0.293914 0.522383 -0.148381
C31   C     C_3   0.514291 0.298714 0.973321 -0.133302
C32   C     C_3   0.522362 0.745544 0.462492 -0.136976
C33   C     C_3   0.457163 0.742102 0.044723 -0.153372
C34   C     C_3   0.983650 0.725952 0.482900 -0.124991
C35   C     C_3   0.670527 0.204773 0.469965 0.131439
C36   C     C_3   0.967786 0.734258 0.014162 -0.111598
C37   C     C_3   0.061766 0.305769 0.511209 -0.132280
C38   C     C_3   0.964673 0.313792 0.006456 -0.172964
C39   C     C_3   0.483650 0.225953 0.482900 -0.124991
C40   C     C_3   0.467786 0.234258 0.014162 -0.111598
C41   C     C_3   0.561765 0.805769 0.511209 -0.132281
C42   C     C_3   0.464673 0.813792 0.006456 -0.172964
C43   C     C_3   0.077841 0.685908 0.526465 -0.083981
C44   C     C_3   0.048012 0.685631 0.968917 -0.106110
C45   C     C_3   0.193927 0.295060 0.490541 -0.094097
C46   C     C_3   0.647924 0.196634 0.022981 0.112644
C47   C     C_3   0.089815 0.323981 0.037479 -0.110864
C48   C     C_3   0.577841 0.185908 0.526465 -0.083981
C49   C     C_3   0.548013 0.185631 0.968917 -0.106110
C50   C     C_3   0.693926 0.795060 0.490540 -0.094097
C51   C     C_3   0.589815 0.823981 0.037479 -0.110864
C52   C     C_3   0.705310 0.742116 0.551747 0.094263
C53   C     C_3   0.643160 0.788611 0.972098 0.141693
C54   C     C_3   0.078071 0.744196 0.426879 0.080352
C55   C     C_3   0.069888 0.743608 0.068736 0.074861
C56   C     C_3   0.077022 0.253125 0.571982 0.091750
C57   C     C_R   0.319040 0.963489 0.855082 0.541728
C58   C     C_3   0.020212 0.277655 0.940073 0.058381
C59   C     C_3   0.578071 0.244196 0.426879 0.080352
C60   C     C_3   0.569888 0.243608 0.068736 0.074861
C61   C     C_3   0.577022 0.753125 0.571981 0.091750
C62   C     C_3   0.520212 0.777655 0.940073 0.058381
C63   C     C_R   0.317294 0.005590 0.424067 -0.017410
C64   C     C_R   0.325487 0.022626 0.068879 -0.015951
C65   C     C_R   0.320960 0.974705 0.567355 -0.014679
C66   C     C_R   0.323943 0.988026 0.926823 -0.013476
C67   C     C_R   0.817294 0.505590 0.424067 -0.017410
C68   C     C_R   0.317934 0.034775 0.354054 0.531301
C69   C     C_R   0.825487 0.522626 0.068879 -0.015951
C70   C     C_R   0.820960 0.474705 0.567355 -0.014679
C71   C     C_R   0.823943 0.488026 0.926823 -0.013476
C72   C     C_R   0.530001 0.972717 0.418102 -0.052183
C73   C     C_R   0.543150 0.992837 0.069701 -0.113759
C74   C     C_R   0.538691 0.000693 0.563365 -0.114006
C75   C     C_R   0.542397 0.009952 0.922882 -0.105776
C76   C     C_R   0.030001 0.472717 0.418102 -0.052183
C77   C     C_R   0.043150 0.492837 0.069701 -0.113759
C78   C     C_R   0.038691 0.500693 0.563365 -0.114006
C79   C     C_R   0.319279 0.039905 0.143069 0.541913
C80   C     C_R   0.042397 0.509952 0.922882 -0.105776
C81   C     C_R   0.639997 0.980074 0.450922 0.169352
C82   C     C_R   0.651101 0.990568 0.031774 0.113478
C83   C     C_R   0.643872 0.000340 0.523394 0.115865
C84   C     C_R   0.650624 0.004656 0.958259 0.124190
C85   C     C_R   0.139997 0.480074 0.450922 0.169352
C86   C     C_R   0.151101 0.490568 0.031774 0.113478
C87   C     C_R   0.143872 0.500340 0.523394 0.115865
C88   C     C_R   0.150624 0.504656 0.958259 0.124190
C89   C     C_R   0.428633 0.987177 0.530567 -0.052097
C90   C     C_R   0.818416 0.458663 0.642267 0.550345
C91   C     C_R   0.433817 0.002711 0.960051 -0.042567
C92   C     C_R   0.424878 0.986129 0.456395 -0.052739
C93   C     C_R   0.434607 0.005893 0.034392 -0.034972
C94   C     C_R   0.928633 0.487177 0.530567 -0.052097
C95   C     C_R   0.933817 0.502711 0.960051 -0.042567
C96   C     C_R   0.924878 0.486129 0.456395 -0.052739
C97   C     C_R   0.934607 0.505893 0.034392 -0.034972
C98   C     C_R   0.212219 0.972200 0.528677 0.004818
C99   C     C_R   0.217288 0.989104 0.967243 0.006733
C100  C     C_R   0.209262 0.005804 0.464465 0.001073
C101  C     C_R   0.819040 0.463489 0.855082 0.541728
C102  C     C_R   0.218993 0.026399 0.028661 -0.003351
C103  C     C_R   0.712219 0.472200 0.528677 0.004818
C104  C     C_R   0.717288 0.489104 0.967243 0.006733
C105  C     C_R   0.709262 0.505804 0.464465 0.001073
C106  C     C_R   0.718993 0.526399 0.028661 -0.003351
C107  C     C_R   0.103842 0.943152 0.552856 -0.085359
C108  C     C_R   0.108799 0.955425 0.950465 -0.097112
C109  C     C_R   0.098664 0.038626 0.446551 -0.092607
C110  C     C_R   0.110699 0.058569 0.049216 -0.099091
C111  C     C_R   0.603842 0.443152 0.552856 -0.085359
C112  C     C_R   0.817934 0.534775 0.354054 0.531301
C113  C     C_R   0.608799 0.455425 0.950465 -0.097112
C114  C     C_R   0.598664 0.538627 0.446551 -0.092607
C115  C     C_R   0.610699 0.558569 0.049216 -0.099091
C116  C     C_R   0.995693 0.966365 0.528338 -0.125434
C117  C     C_R   0.002196 0.977418 0.979767 -0.109167
C118  C     C_R   0.994080 0.019795 0.479822 -0.136123
C119  C     C_R   0.002703 0.034173 0.024711 -0.106315
C120  C     C_R   0.495693 0.466365 0.528338 -0.125434
C121  C     C_R   0.502196 0.477418 0.979767 -0.109167
C122  C     C_R   0.494080 0.519796 0.479822 -0.136123
C123  C     C_R   0.819279 0.539905 0.143069 0.541913
C124  C     C_R   0.502703 0.534173 0.024711 -0.106315
C125  C     C_R   0.138058 0.758907 0.641792 0.537612
C126  C     C_R   0.131568 0.757078 0.855191 0.536924
C127  C     C_R   0.183748 0.228528 0.363987 0.545612
C128  C     C_R   0.133765 0.242242 0.144066 0.540009
C129  C     C_R   0.638058 0.258907 0.641792 0.537612
C130  C     C_R   0.631568 0.257078 0.855191 0.536924
C131  C     C_R   0.683748 0.728528 0.363987 0.545612
C132  C     C_R   0.633765 0.742242 0.144066 0.540009
C133  C     C_R   0.537719 0.771164 0.643486 0.591297
C134  C     C_3   0.170527 0.704773 0.469965 0.131439
C135  C     C_R   0.496612 0.788374 0.862725 0.563629
C136  C     C_R   0.544360 0.230904 0.353618 0.538754
C137  C     C_R   0.541094 0.229994 0.144090 0.548776
C138  C     C_R   0.037720 0.271164 0.643486 0.591297
C139  C     C_R   0.996612 0.288374 0.862725 0.563629
C140  C     C_R   0.044360 0.730904 0.353618 0.538753
C141  C     C_R   0.041094 0.729994 0.144090 0.548776
C142  C     C_3   0.108576 0.811632 0.464959 -0.152993
C143  C     C_3   0.115329 0.807993 0.028736 -0.161902
C144  C     C_3   0.038147 0.192859 0.524601 -0.137860
Cr1   Cr    Cr6+3 0.488160 0.884660 0.750000 0.993690
Cr2   Cr    Cr6+3 0.333410 0.272740 0.250000 1.022630
Cr3   Cr    Cr6+3 0.833410 0.227260 0.750000 1.016447
Cr4   Cr    Cr6+3 0.833410 0.772740 0.250000 1.022630
Cr5   Cr    Cr6+3 0.488160 0.115340 0.250000 1.012009
Cr6   Cr    Cr6+3 0.988160 0.384660 0.750000 0.993690
Cr7   Cr    Cr6+3 0.988160 0.615340 0.250000 1.012009
Cr8   Cr    Cr6+3 0.173480 0.883120 0.750000 0.999101
Cr9   Cr    Cr6+3 0.173480 0.116880 0.250000 0.999165
Cr10  Cr    Cr6+3 0.673480 0.383120 0.750000 0.999101
Cr11  Cr    Cr6+3 0.673480 0.616880 0.250000 0.999165
Cr12  Cr    Cr6+3 0.333410 0.727260 0.750000 1.016447
H1    H     H_    0.295883 0.790442 0.521179 0.104064
H2    H     H_    0.921472 0.950802 0.966129 0.159453
H3    H     H_    0.913377 0.046149 0.466558 0.150913
H4    H     H_    0.922078 0.057624 0.043941 0.180491
H5    H     H_    0.415537 0.443615 0.549192 0.134298
H6    H     H_    0.421472 0.450802 0.966129 0.159453
H7    H     H_    0.413377 0.546149 0.466558 0.150913
H8    H     H_    0.422078 0.557624 0.043941 0.180491
H9    H     H_    0.121313 0.861177 0.435758 0.135895
H10   H     H_    0.144924 0.856500 0.055253 0.127129
H11   H     H_    0.977533 0.151692 0.544250 0.129710
H12   H     H_    0.282090 0.766599 0.958694 0.121642
H13   H     H_    0.977391 0.158584 0.951613 0.144703
H14   H     H_    0.621313 0.361177 0.435758 0.135895
H15   H     H_    0.644924 0.356500 0.055253 0.127129
H16   H     H_    0.477534 0.651692 0.544251 0.129711
H17   H     H_    0.477391 0.658584 0.951613 0.144703
H18   H     H_    0.944886 0.829171 0.543781 0.098745
H19   H     H_    0.966920 0.838309 0.942430 0.125281
H20   H     H_    0.947965 0.249293 0.423917 0.121086
H21   H     H_    0.886042 0.225853 0.081926 0.176348
H22   H     H_    0.444886 0.329172 0.543781 0.098745
H23   H     H_    0.227024 0.134809 0.503161 0.115106
H24   H     H_    0.466920 0.338309 0.942430 0.125281
H25   H     H_    0.447964 0.749292 0.423917 0.121086
H26   H     H_    0.386042 0.725853 0.081926 0.176348
H27   H     H_    0.895838 0.705158 0.467408 0.105158
H28   H     H_    0.875702 0.725384 0.032250 0.124668
H29   H     H_    0.013751 0.355565 0.516781 0.125727
H30   H     H_    0.895340 0.354929 0.006202 0.112092
H31   H     H_    0.395838 0.205159 0.467408 0.105158
H32   H     H_    0.375702 0.225384 0.032250 0.124668
H33   H     H_    0.513749 0.855565 0.516780 0.125727
H34   H     H_    0.209059 0.177381 0.004386 0.103309
H35   H     H_    0.395340 0.854929 0.006202 0.112092
H36   H     H_    0.061386 0.635966 0.553450 0.115630
H37   H     H_    0.015666 0.638863 0.941560 0.121167
H38   H     H_    0.260101 0.335473 0.476751 0.124997
H39   H     H_    0.122857 0.367254 0.069404 0.136554
H40   H     H_    0.561385 0.135966 0.553450 0.115630
H41   H     H_    0.515666 0.138863 0.941560 0.121167
H42   H     H_    0.760099 0.835473 0.476750 0.124997
H43   H     H_    0.622857 0.867254 0.069404 0.136554
H44   H     H_    0.527671 0.959422 0.361976 0.153767
H45   H     H_    0.795883 0.290442 0.521179 0.104064
H46   H     H_    0.545948 0.980871 0.125898 0.138814
H47   H     H_    0.544580 0.016619 0.618490 0.142070
H48   H     H_    0.545159 0.023486 0.866918 0.140188
H49   H     H_    0.027671 0.459422 0.361976 0.153766
H50   H     H_    0.045948 0.480871 0.125898 0.138814
H51   H     H_    0.044580 0.516619 0.618490 0.142070
H52   H     H_    0.045159 0.523486 0.866918 0.140188
H53   H     H_    0.089348 0.082374 0.411436 0.175913
H54   H     H_    0.107078 0.101157 0.085033 0.178051
H55   H     H_    0.100320 0.901799 0.589878 0.183169
H56   H     H_    0.782090 0.266599 0.958694 0.121642
H57   H     H_    0.105392 0.910910 0.916753 0.169922
H58   H     H_    0.589348 0.582375 0.411437 0.175914
H59   H     H_    0.607078 0.601157 0.085033 0.178051
H60   H     H_    0.600320 0.401799 0.589878 0.183169
H61   H     H_    0.605392 0.410910 0.916753 0.169922
H62   H     H_    0.318738 0.646832 0.476298 0.213452
H63   H     H_    0.293166 0.678661 0.394489 0.229775
H64   H     H_    0.268187 0.621129 0.006390 0.249468
H65   H     H_    0.181276 0.609193 0.079377 0.287819
H66   H     H_    0.321191 0.286884 0.623205 0.239221
H67   H     H_    0.727025 0.634809 0.503161 0.115106
H68   H     H_    0.360691 0.204580 0.596760 0.230127
H69   H     H_    0.295754 0.336172 0.981556 0.196398
H70   H     H_    0.221486 0.364261 0.913303 0.256381
H71   H     H_    0.818736 0.146831 0.476298 0.213453
H72   H     H_    0.793168 0.178661 0.394490 0.229775
H73   H     H_    0.768187 0.121129 0.006390 0.249468
H74   H     H_    0.681276 0.109192 0.079377 0.287819
H75   H     H_    0.821190 0.786886 0.623205 0.239221
H76   H     H_    0.860692 0.704582 0.596760 0.230127
H77   H     H_    0.795754 0.836172 0.981556 0.196398
H78   H     H_    0.709059 0.677381 0.004386 0.103309
H79   H     H_    0.721486 0.864261 0.913303 0.256381
H80   H     H_    0.774836 0.020210 0.392536 0.255895
H81   H     H_    0.808015 0.943511 0.435471 0.239176
H82   H     H_    0.747386 0.979973 0.124387 0.224104
H83   H     H_    0.790879 0.928885 0.057025 0.226299
H84   H     H_    0.760596 0.993498 0.604267 0.219556
H85   H     H_    0.742255 0.073890 0.572031 0.242834
H86   H     H_    0.755646 0.064753 0.896099 0.235747
H87   H     H_    0.761400 0.979506 0.877273 0.216835
H88   H     H_    0.274836 0.520210 0.392536 0.255895
H89   H     H_    0.915537 0.943615 0.549192 0.134298
H90   H     H_    0.308015 0.443511 0.435471 0.239176
H91   H     H_    0.247386 0.479973 0.124387 0.224104
H92   H     H_    0.290879 0.428885 0.057025 0.226299
H93   H     H_    0.260596 0.493499 0.604267 0.219556
H94   H     H_    0.242255 0.573890 0.572030 0.242835
H95   H     H_    0.255646 0.564753 0.896099 0.235747
H96   H     H_    0.261400 0.479506 0.877273 0.216835
N1    N     N_3   0.252758 0.655210 0.438574 -0.611526
N2    N     N_3   0.760750 0.978666 0.069159 -0.649119
N3    N     N_3   0.751526 0.021959 0.557004 -0.668405
N4    N     N_3   0.758660 0.015322 0.919145 -0.655101
N5    N     N_3   0.243621 0.471313 0.407469 -0.626915
N6    N     N_3   0.260750 0.478666 0.069159 -0.649119
N7    N     N_3   0.251527 0.521959 0.557004 -0.668404
N8    N     N_3   0.258660 0.515322 0.919145 -0.655101
N9    N     N_3   0.229941 0.645270 0.050447 -0.646860
N10   N     N_3   0.290472 0.237334 0.610363 -0.619572
N11   N     N_3   0.247085 0.318289 0.938193 -0.599289
N12   N     N_3   0.752757 0.155210 0.438574 -0.611526
N13   N     N_3   0.729941 0.145269 0.050447 -0.646860
N14   N     N_3   0.790472 0.737336 0.610363 -0.619572
N15   N     N_3   0.747085 0.818289 0.938193 -0.599289
N16   N     N_3   0.743621 0.971313 0.407469 -0.626916
O1    O     O_R   0.575450 0.828820 0.667950 -0.514739
O2    O     O_R   0.416860 0.942890 0.825320 -0.534367
O3    O     O_R   0.416860 0.057110 0.325320 -0.506806
O4    O     O_R   0.416860 0.057110 0.174680 -0.519948
O5    O     O_R   0.916860 0.442890 0.674680 -0.521360
O6    O     O_R   0.916860 0.442890 0.825320 -0.534367
O7    O     O_R   0.916860 0.557110 0.325320 -0.506806
O8    O     O_R   0.916860 0.557110 0.174680 -0.519948
O9    O     O_R   0.213790 0.953680 0.668330 -0.524348
O10   O     O_R   0.213790 0.953680 0.831670 -0.523685
O11   O     O_R   0.213790 0.046320 0.331670 -0.541576
O12   O     O_R   0.575450 0.828820 0.832050 -0.502753
O13   O     O_R   0.213790 0.046320 0.168330 -0.526475
O14   O     O_R   0.713790 0.453680 0.668330 -0.524349
O15   O     O_R   0.713790 0.453680 0.831670 -0.523685
O16   O     O_R   0.713790 0.546320 0.331670 -0.541576
O17   O     O_R   0.713790 0.546320 0.168330 -0.526475
O18   O     O_R   0.121360 0.817890 0.672660 -0.530867
O19   O     O_R   0.121360 0.817890 0.827340 -0.522780
O20   O     O_R   0.121360 0.182110 0.327340 -0.521130
O21   O     O_R   0.121360 0.182110 0.172660 -0.525171
O22   O     O_R   0.621360 0.317890 0.672660 -0.530867
O23   O     O_R   0.575450 0.171180 0.332050 -0.493266
O24   O     O_R   0.621360 0.317890 0.827340 -0.522780
O25   O     O_R   0.621360 0.682110 0.327340 -0.521130
O26   O     O_R   0.621360 0.682110 0.172660 -0.525171
O27   O     O_R   0.206850 0.711370 0.665820 -0.527505
O28   O     O_R   0.206850 0.711370 0.834180 -0.539754
O29   O     O_R   0.206850 0.288630 0.334180 -0.500564
O30   O     O_R   0.206850 0.288630 0.165820 -0.527911
O31   O     O_R   0.706850 0.211370 0.665820 -0.527505
O32   O     O_R   0.706850 0.211370 0.834180 -0.539754
O33   O     O_R   0.706850 0.788630 0.334180 -0.500564
O34   O     O_R   0.575450 0.171180 0.167950 -0.518772
O35   O     O_R   0.706850 0.788630 0.165820 -0.527911
O36   O     O_R   0.457710 0.733190 0.672630 -0.507688
O37   O     O_R   0.457710 0.733190 0.827370 -0.500737
O38   O     O_R   0.457710 0.266810 0.327370 -0.525710
O39   O     O_R   0.457710 0.266810 0.172630 -0.512043
O40   O     O_R   0.957710 0.233190 0.672630 -0.507688
O41   O     O_R   0.957710 0.233190 0.827370 -0.500737
O42   O     O_R   0.957710 0.766810 0.327370 -0.525710
O43   O     O_R   0.957710 0.766810 0.172630 -0.512043
O44   O     O_3   0.331690 0.831680 0.750000 -0.298283
O45   O     O_R   0.075450 0.328820 0.667950 -0.514739
O46   O     O_3   0.331690 0.168320 0.250000 -0.293329
O47   O     O_3   0.831690 0.331680 0.750000 -0.298283
O48   O     O_3   0.831690 0.668320 0.250000 -0.293329
O49   O     O_R   0.075450 0.328820 0.832050 -0.502753
O50   O     O_R   0.075450 0.671180 0.332050 -0.493266
O51   O     O_R   0.075450 0.671180 0.167950 -0.518772
O52   O     O_R   0.416860 0.942890 0.674680 -0.521360

loop_
_geom_bond_atom_site_label_1
_geom_bond_atom_site_label_2
_ccdc_geom_bond_type
C6    C32   S    
C71   C104  A    
Cr5   O23   S    
C90   O14   A    
C73   C82   A    
C73   C93   A    
C74   C83   A    
C138  O45   A    
C50   H42   S    
C61   C133  S    
C65   C89   A    
H82   N2    S    
C47   H39   S    
C2    C55   S    
C117  C119  A    
Cr8   O18   S    
Cr4   O35   S    
C71   C95   A    
C74   H47   S    
C69   C123  S    
C54   C134  S    
C16   C25   S    
C131  O25   A    
C78   H51   S    
C37   C56   S    
C37   H29   S    
C84   N4    S    
C81   N16   S    
C50   C52   S    
C28   C144  S    
C41   C61   S    
Cr11  O17   S    
Cr7   O8    S    
C108  H57   S    
C21   C48   S    
C46   C60   S    
Cr12  O44   S    
C100  C109  A    
C29   H21   S    
C22   C130  S    
C7    C33   S    
C109  H53   S    
C8    H1    S    
C125  O27   A    
C109  C118  A    
C126  O28   A    
C9    C143  S    
C11   C20   S    
C135  O12   A    
C87   N7    S    
C70   C103  A    
C3    H13   S    
Cr11  O26   S    
Cr2   O46   S    
C130  O32   A    
C35   N12   S    
C17   C43   S    
C143  H10   S    
C1    O9    A    
C18   C44   S    
H95   N8    S    
Cr10  O47   S    
C115  H59   S    
C137  O34   A    
C94   C96   A    
C22   C49   S    
Cr2   O39   S    
C34   C54   S    
C82   C84   A    
C133  O36   A    
C36   C44   S    
C37   C45   S    
H96   N8    S    
C73   H46   S    
C45   H38   S    
Cr3   O47   S    
Cr6   O6    S    
C136  O23   A    
C95   C97   A    
C79   O13   A    
Cr12  O37   S    
C106  C115  A    
C8    C17   S    
C41   H33   S    
C31   H24   S    
C52   C61   S    
C11   H34   S    
C80   C88   A    
C36   C55   S    
C38   H30   S    
C76   C96   A    
C13   C45   S    
H77   N15   S    
C78   C94   A    
C46   N13   S    
C116  C118  A    
C86   C88   A    
C20   C47   S    
C3    C11   S    
Cr8   O9    S    
C136  O38   A    
C67   C112  S    
H75   N14   S    
C33   H26   S    
Cr12  O36   S    
C85   N5    S    
H70   N11   S    
C139  O49   A    
C78   C87   A    
C40   C60   S    
Cr8   O44   S    
C114  H58   S    
H64   N9    S    
C112  O7    A    
C57   C66   S    
Cr5   O46   S    
C6    H16   S    
C64   C102  A    
C99   C108  A    
C4    H14   S    
C33   C42   S    
C6    C61   S    
C103  C111  A    
C75   C84   A    
C40   C49   S    
C59   C136  S    
C112  O16   A    
C3    C29   S    
C2    C44   S    
C132  O35   A    
C29   C38   S    
C1    C65   S    
C32   C41   S    
C77   C97   A    
C42   C62   S    
C75   C91   A    
C13   C56   S    
C138  O40   A    
C57   O10   A    
H83   N2    S    
C81   C83   A    
Cr11  O48   S    
Cr2   O30   S    
H79   N15   S    
C55   C143  S    
C144  H11   S    
C8    C134  S    
C32   H25   S    
H73   N13   S    
H68   N10   S    
C53   N15   S    
Cr3   O40   S    
C129  O31   A    
Cr7   O50   S    
Cr1   O2    S    
C51   C53   S    
C62   C135  S    
Cr4   O48   S    
C27   C143  S    
C30   H22   S    
C23   C131  S    
C34   H27   S    
C103  C105  A    
C10   C144  S    
C80   C95   A    
C19   C28   S    
C21   C129  S    
H92   N6    S    
C80   H52   S    
Cr3   O31   S    
C129  O22   A    
C101  O6    A    
C4    C12   S    
H69   N11   S    
H94   N7    S    
C63   C68   S    
H63   N1    S    
Cr12  O27   S    
C117  H2    S    
C108  C117  A    
C131  O33   A    
C9    H12   S    
C34   C43   S    
Cr5   O4    S    
C110  C119  A    
C43   H36   S    
C19   C45   S    
C40   H32   S    
C14   C22   S    
H90   N5    S    
C18   C126  S    
Cr1   O44   S    
C67   C96   A    
C28   C37   S    
C76   C85   A    
C24   N11   S    
C30   C39   S    
C107  C116  A    
C104  C113  A    
C9    C18   S    
C113  C121  A    
C25   C132  S    
Cr7   O7    S    
C25   C33   S    
C69   C97   A    
C55   C141  S    
C104  C106  A    
Cr10  O15   S    
C14   C46   S    
Cr6   O49   S    
C46   C49   S    
C44   H37   S    
C70   C94   A    
C65   C98   A    
H65   N9    S    
C72   C92   A    
C107  H55   S    
C26   H18   S    
C31   C40   S    
C35   C59   S    
C86   N6    S    
C38   C58   S    
C42   H35   S    
C140  O42   A    
Cr9   O21   S    
C141  O43   A    
H71   N12   S    
H85   N3    S    
C13   N10   S    
C72   C81   A    
C137  O39   A    
C71   C101  S    
C118  H3    S    
C110  H54   S    
C35   C48   S    
H66   N10   S    
C101  O15   A    
C111  H60   S    
C134  N1    S    
C68   O3    A    
C27   H19   S    
C28   H20   S    
C23   C50   S    
C49   H41   S    
H87   N4    S    
C83   N3    S    
C43   C134  S    
C91   C93   A    
C139  O41   A    
C16   H78   S    
C10   C19   S    
C39   C59   S    
Cr3   O41   S    
Cr7   O51   S    
C15   C52   S    
C5    C14   S    
Cr8   O10   S    
Cr4   O43   S    
C7    C16   S    
C54   C142  S    
C98   C100  A    
C102  C110  A    
C10   H23   S    
C41   C50   S    
H91   N6    S    
C76   H49   S    
Cr6   O47   S    
C125  O18   A    
C115  C124  A    
C127  O20   A    
C67   C105  A    
H88   N5    S    
C69   C106  A    
C27   C36   S    
C21   C30   S    
C79   O4    A    
C14   H56   S    
Cr9   O11   S    
C23   C32   S    
C77   H50   S    
C57   O2    A    
C121  H6    S    
Cr10  O24   S    
C5    C60   S    
C15   H67   S    
C98   C107  A    
C56   C144  S    
C3    C58   S    
C99   C102  A    
Cr2   O38   S    
C24   C58   S    
Cr5   O34   S    
C130  O24   A    
H80   N16   S    
C82   N2    S    
C8    C142  S    
H72   N12   S    
C39   C48   S    
C124  H8    S    
C58   C139  S    
C52   N14   S    
H86   N4    S    
Cr6   O5    S    
Cr8   O19   S    
C7    C62   S    
C68   O11   A    
Cr11  O25   S    
H81   N16   S    
C17   C26   S    
C74   C89   A    
C64   C93   A    
C20   C128  S    
C2    N9    S    
C127  O29   A    
C1    O52   A    
C11   C24   S    
Cr1   O1    S    
Cr11  O16   S    
C16   C53   S    
C121  C124  A    
C123  O17   A    
C6    C15   S    
C88   N8    S    
C26   C34   S    
C54   C140  S    
H76   N14   S    
C119  H4    S    
C63   C92   A    
C36   H28   S    
C60   C137  S    
C39   H31   S    
Cr6   O45   S    
C15   C23   S    
C126  O19   A    
C48   H40   S    
C70   C90   S    
H93   N7    S    
C113  H61   S    
C120  C122  A    
C20   C29   S    
C85   C87   A    
Cr1   O52   S    
C12   C35   S    
C22   C31   S    
Cr12  O28   S    
Cr9   O13   S    
C105  C114  A    
Cr5   O3    S    
C12   C21   S    
Cr10  O22   S    
C122  H7    S    
C111  C120  A    
C66   C99   A    
C25   C51   S    
C63   C100  A    
C72   H44   S    
C56   C138  S    
C53   C62   S    
C133  O1    A    
Cr4   O33   S    
Cr9   O20   S    
C5    H15   S    
C12   H45   S    
Cr3   O32   S    
C89   C92   A    
C38   C47   S    
C51   H43   S    
C120  H5    S    
C128  O21   A    
C77   C86   A    
Cr7   O48   S    
Cr1   O12   S    
C123  O8    A    
C135  O37   A    
Cr4   O42   S    
Cr2   O29   S    
H84   N3    S    
C24   C47   S    
C18   C27   S    
C10   C13   S    
C75   H48   S    
C128  O30   A    
C66   C91   A    
C140  O50   A    
C42   C51   S    
C141  O51   A    
C142  H9    S    
C2    C9    S    
C17   C125  S    
C7    H17   S    
C4    C59   S    
C19   C127  S    
C64   C79   S    
H62   N1    S    
C132  O26   A    
C90   O5    A    
Cr10  O14   S    
Cr9   O46   S    
C114  C122  A    
C116  H89   S    
C26   C142  S    
C4    C30   S    
C5    C31   S    
H74   N13   S    
