data_mof_unit_49983.cif
_audit_creation_date              2012-12-11T14:42:12-0500
_audit_creation_method            fapswitch 2.2
_symmetry_space_group_name_H-M    P1
_symmetry_Int_Tables_number       1
_space_group_crystal_system       triclinic
_cell_length_a                    19.014152
_cell_length_b                    10.953163
_cell_length_c                    18.898632
_cell_angle_alpha                 90.017141
_cell_angle_beta                  90.647099
_cell_angle_gamma                 90.016045
_cell_volume                      3935.67424552

loop_
_atom_site_label
_atom_site_type_symbol
_atom_type_description
_atom_site_fract_x
_atom_site_fract_y
_atom_site_fract_z
_atom_type_partial_charge
C1    C     C_R   0.727714 0.955208 0.853226 0.548157
C2    C     C_R   0.272282 0.955198 0.146778 0.548885
C3    C     C_R   0.227714 0.455208 0.853226 0.548158
C4    C     C_R   0.772282 0.455198 0.146778 0.548900
C5    C     C_R   0.699257 0.475952 0.037640 -0.134902
C6    C     C_R   0.300794 0.475860 0.962364 -0.135008
C7    C     C_R   0.199257 0.975949 0.037641 -0.134903
C8    C     C_R   0.800795 0.975857 0.962364 -0.135008
C9    C     C_R   0.750938 0.412597 0.076845 0.031848
C10   C     C_R   0.249022 0.412639 0.923165 0.032067
C11   C     C_R   0.250938 0.912597 0.076845 0.031849
C12   C     C_R   0.749022 0.912638 0.923164 0.032068
C13   C     C_R   0.793111 0.326410 0.043534 -0.147255
C14   C     C_R   0.206735 0.326616 0.956486 -0.147041
C15   C     C_R   0.293113 0.826414 0.043533 -0.147253
C16   C     C_R   0.706735 0.826617 0.956486 -0.147044
C17   C     C_R   0.790837 0.315859 0.971016 -0.136495
C18   C     C_R   0.209016 0.316095 0.029003 -0.136511
C19   C     C_R   0.290839 0.815864 0.971015 -0.136496
C20   C     C_R   0.709015 0.816097 0.029003 -0.136514
C21   C     C_R   0.742757 0.384813 0.930506 0.036428
C22   C     C_R   0.257216 0.384886 0.069508 0.036403
C23   C     C_R   0.242758 0.884815 0.930506 0.036423
C24   C     C_R   0.757216 0.884886 0.069508 0.036405
C25   C     C_R   0.466944 0.260981 0.545020 -0.148918
C26   C     C_R   0.458458 0.266123 0.473174 -0.128569
C27   C     C_R   0.966795 0.760764 0.545046 -0.148887
C28   C     C_R   0.958260 0.765898 0.473201 -0.128534
C29   C     C_R   0.484451 0.171760 0.430393 0.036981
C30   C     C_R   0.503180 0.163044 0.574454 0.019798
C31   C     C_R   0.984441 0.671741 0.430387 0.036983
C32   C     C_R   0.003232 0.663016 0.574437 0.019767
C33   C     C_R   0.516208 0.069086 0.459969 -0.157693
C34   C     C_R   0.526221 0.065004 0.532387 -0.150672
C35   C     C_R   0.016426 0.569246 0.459918 -0.157744
C36   C     C_R   0.026473 0.565168 0.532331 -0.150720
C37   C     C_R   0.814400 0.420720 0.546254 0.079723
C38   C     C_R   0.199940 0.326455 0.470148 0.093694
C39   C     C_R   0.314330 0.921062 0.546284 0.079664
C40   C     C_R   0.699839 0.826704 0.470096 0.093830
C41   C     C_R   0.821863 0.435595 0.473843 -0.116163
C42   C     C_R   0.200549 0.336128 0.542784 -0.128911
C43   C     C_R   0.321817 0.935989 0.473876 -0.116101
C44   C     C_R   0.700460 0.836314 0.542733 -0.128799
C45   C     C_R   0.530833 0.177285 0.851221 0.573295
C46   C     C_R   0.469155 0.177278 0.148771 0.573917
C47   C     C_R   0.030833 0.677285 0.851220 0.573299
C48   C     C_R   0.969155 0.677277 0.148770 0.573902
C49   C     C_R   0.762682 0.435635 0.428656 0.018959
C50   C     C_R   0.246588 0.416055 0.576971 0.007607
C51   C     C_R   0.262667 0.935619 0.428644 0.018975
C52   C     C_R   0.746549 0.916131 0.576942 0.007645
C53   C     C_R   0.695276 0.427546 0.456538 -0.162349
C54   C     C_R   0.297778 0.478679 0.538188 -0.151150
C55   C     C_R   0.195259 0.927069 0.456473 -0.162474
C56   C     C_R   0.797756 0.978731 0.538169 -0.151179
C57   C     C_R   0.687390 0.412719 0.529103 -0.172143
C58   C     C_R   0.300867 0.463813 0.465120 -0.179311
C59   C     C_R   0.187354 0.912184 0.529033 -0.172165
C60   C     C_R   0.800838 0.963905 0.465097 -0.179392
C61   C     C_R   0.746974 0.406132 0.574007 0.065956
C62   C     C_R   0.251864 0.388654 0.430214 0.062080
C63   C     C_R   0.246921 0.906024 0.573980 0.065949
C64   C     C_R   0.751811 0.888807 0.430177 0.062089
C65   C     C_R   0.736623 0.357026 0.855323 0.551177
C66   C     C_R   0.263374 0.357039 0.144680 0.549592
C67   C     C_R   0.236623 0.857026 0.855323 0.551197
C68   C     C_R   0.763374 0.857039 0.144680 0.549591
C69   C     C_R   0.727984 0.955049 0.647750 0.544072
C70   C     C_R   0.274073 0.959223 0.354153 0.544143
C71   C     C_R   0.227990 0.455035 0.647758 0.544025
C72   C     C_R   0.774082 0.459243 0.354162 0.544192
C73   C     C_R   0.530216 0.175439 0.644809 0.547921
C74   C     C_R   0.467681 0.176911 0.356647 0.543393
C75   C     C_R   0.030228 0.675437 0.644802 0.547853
C76   C     C_R   0.967687 0.676907 0.356641 0.543349
C77   C     C_R   0.738544 0.361140 0.645809 0.579037
C78   C     C_R   0.261531 0.357158 0.355715 0.562218
C79   C     C_R   0.238531 0.861105 0.645797 0.579108
C80   C     C_R   0.761514 0.857217 0.355695 0.562184
C81   C     C_2   0.499720 0.166070 0.921557 -0.069226
C82   C     C_2   0.500242 0.166032 0.078421 -0.069956
C83   C     C_2   0.999720 0.666068 0.921557 -0.069230
C84   C     C_2   0.000241 0.666030 0.078420 -0.069958
C85   C     C_2   0.490562 0.065420 0.037794 0.067303
C86   C     C_2   0.509273 0.065408 0.962130 0.067747
C87   C     C_2   0.990559 0.565416 0.037794 0.067304
C88   C     C_2   0.009269 0.565403 0.962128 0.067751
C89   C     C_R   0.694957 0.461666 0.964449 -0.140381
C90   C     C_R   0.305104 0.461586 0.035556 -0.140327
C91   C     C_R   0.194956 0.961665 0.964450 -0.140382
C92   C     C_R   0.805105 0.961584 0.035555 -0.140326
Cr1   Cr    Cr6+3 0.769270 0.163730 0.750710 1.026374
Cr2   Cr    Cr6+3 0.230730 0.163730 0.249290 1.033951
Cr3   Cr    Cr6+3 0.269270 0.663730 0.750710 1.026334
Cr4   Cr    Cr6+3 0.730730 0.663730 0.249290 1.033941
Cr5   Cr    Cr6+3 0.612620 0.009790 0.748780 1.037962
Cr6   Cr    Cr6+3 0.387380 0.009790 0.251220 1.037871
Cr7   Cr    Cr6+3 0.112620 0.509790 0.748780 1.037963
Cr8   Cr    Cr6+3 0.887380 0.509790 0.251220 1.037862
Cr9   Cr    Cr6+3 0.614160 0.322500 0.747710 1.016497
Cr10  Cr    Cr6+3 0.385840 0.322500 0.252290 1.016143
Cr11  Cr    Cr6+3 0.114160 0.822500 0.747710 1.016522
Cr12  Cr    Cr6+3 0.885840 0.822500 0.252290 1.016145
H1    H     H_    0.874280 0.448064 0.453075 0.140485
H2    H     H_    0.160533 0.287244 0.571831 0.130990
H3    H     H_    0.374215 0.948813 0.453138 0.140441
H4    H     H_    0.660419 0.787469 0.571765 0.130950
H5    H     H_    0.649235 0.430830 0.422294 0.130335
H6    H     H_    0.333400 0.542523 0.563743 0.141389
H7    H     H_    0.149236 0.930036 0.422193 0.130364
H8    H     H_    0.833409 0.042507 0.563738 0.141368
H9    H     H_    0.634871 0.400166 0.549536 0.146608
H10   H     H_    0.341150 0.511468 0.435917 0.125211
H11   H     H_    0.134850 0.899274 0.549432 0.146695
H12   H     H_    0.841147 0.011509 0.435904 0.125220
H13   H     H_    0.524306 0.247234 0.056248 0.068299
H14   H     H_    0.475745 0.247317 0.943771 0.068139
H15   H     H_    0.024305 0.747231 0.056246 0.068296
H16   H     H_    0.975749 0.747317 0.943773 0.068138
H17   H     H_    0.655469 0.511625 0.934558 0.119642
H18   H     H_    0.344680 0.511417 0.065440 0.119859
H19   H     H_    0.155467 0.011621 0.934558 0.119644
H20   H     H_    0.844682 0.011413 0.065439 0.119859
H21   H     H_    0.664585 0.540409 0.062976 0.120715
H22   H     H_    0.335551 0.540177 0.937021 0.120504
H23   H     H_    0.164583 0.040405 0.062977 0.120714
H24   H     H_    0.835554 0.040172 0.937020 0.120504
H25   H     H_    0.832002 0.273894 0.072794 0.129132
H26   H     H_    0.167774 0.274179 0.927232 0.128892
H27   H     H_    0.332006 0.773900 0.072792 0.129133
H28   H     H_    0.667772 0.774182 0.927233 0.128892
H29   H     H_    0.827078 0.252660 0.946900 0.128315
H30   H     H_    0.172697 0.253017 0.053117 0.128147
H31   H     H_    0.327081 0.752667 0.946899 0.128313
H32   H     H_    0.672695 0.753021 0.053117 0.128147
H33   H     H_    0.448685 0.336425 0.577102 0.130271
H34   H     H_    0.431096 0.344176 0.451177 0.142361
H35   H     H_    0.948395 0.836060 0.577162 0.130228
H36   H     H_    0.930726 0.843784 0.451223 0.142390
H37   H     H_    0.534193 0.994452 0.427204 0.125139
H38   H     H_    0.554883 0.988554 0.554859 0.142304
H39   H     H_    0.034579 0.494775 0.427122 0.125155
H40   H     H_    0.055318 0.488896 0.554768 0.142463
O1    O     O_R   0.784320 0.290430 0.830510 -0.525106
O2    O     O_R   0.215680 0.290430 0.169490 -0.527366
O3    O     O_R   0.284320 0.790430 0.830510 -0.525097
O4    O     O_R   0.715680 0.790430 0.169490 -0.527361
O5    O     O_R   0.554640 0.080370 0.673500 -0.507846
O6    O     O_R   0.445360 0.080370 0.326500 -0.510255
O7    O     O_R   0.054640 0.580370 0.673500 -0.507876
O8    O     O_R   0.945360 0.580370 0.326500 -0.510225
O9    O     O_R   0.543920 0.282180 0.666790 -0.526146
O10   O     O_R   0.456080 0.282180 0.333210 -0.528412
O11   O     O_R   0.043920 0.782180 0.666790 -0.526117
O12   O     O_R   0.956080 0.782180 0.333210 -0.528380
O13   O     O_R   0.679040 0.374160 0.674430 -0.519018
O14   O     O_R   0.320960 0.374160 0.325570 -0.519397
O15   O     O_R   0.179040 0.874160 0.674430 -0.519012
O16   O     O_R   0.820960 0.874160 0.325570 -0.519416
O17   O     O_3   0.665350 0.165340 0.749070 -0.257570
O18   O     O_3   0.334650 0.165340 0.250930 -0.261016
O19   O     O_3   0.165350 0.665340 0.749070 -0.257603
O20   O     O_3   0.834650 0.665340 0.250930 -0.261002
O21   O     O_R   0.762640 0.040960 0.825200 -0.512896
O22   O     O_R   0.237360 0.040960 0.174800 -0.512271
O23   O     O_R   0.262640 0.540960 0.825200 -0.512896
O24   O     O_R   0.737360 0.540960 0.174800 -0.512264
O25   O     O_R   0.667400 0.923970 0.829950 -0.504609
O26   O     O_R   0.332600 0.923970 0.170050 -0.503839
O27   O     O_R   0.167400 0.423970 0.829950 -0.504601
O28   O     O_R   0.832600 0.423970 0.170050 -0.503834
O29   O     O_R   0.553960 0.081340 0.821780 -0.447669
O30   O     O_R   0.446040 0.081340 0.178220 -0.448131
O31   O     O_R   0.053960 0.581340 0.821780 -0.447657
O32   O     O_R   0.946040 0.581340 0.178220 -0.448144
O33   O     O_R   0.543180 0.283240 0.826740 -0.528742
O34   O     O_R   0.456820 0.283240 0.173260 -0.526708
O35   O     O_R   0.043180 0.783240 0.826740 -0.528733
O36   O     O_R   0.956820 0.783240 0.173260 -0.526711
O37   O     O_R   0.678360 0.375140 0.822710 -0.503782
O38   O     O_R   0.321640 0.375140 0.177290 -0.502893
O39   O     O_R   0.178360 0.875140 0.822710 -0.503769
O40   O     O_R   0.821640 0.875140 0.177290 -0.502897
O41   O     O_R   0.785050 0.289380 0.670560 -0.477728
O42   O     O_R   0.214950 0.289380 0.329440 -0.466638
O43   O     O_R   0.285050 0.789380 0.670560 -0.477803
O44   O     O_R   0.714950 0.789380 0.329440 -0.466611
O45   O     O_R   0.763320 0.039990 0.676930 -0.506413
O46   O     O_R   0.236680 0.039990 0.323070 -0.493723
O47   O     O_R   0.263320 0.539990 0.676930 -0.506438
O48   O     O_R   0.736680 0.539990 0.323070 -0.493792
O49   O     O_R   0.668130 0.922920 0.670000 -0.530814
O50   O     O_R   0.331870 0.922920 0.330000 -0.526833
O51   O     O_R   0.168130 0.422920 0.670000 -0.530823
O52   O     O_R   0.831870 0.422920 0.330000 -0.526870
N1    N     N_3   0.462927 0.954708 0.067214 -0.573048
H41   H     H_    0.420933 0.926866 0.035128 0.230382
H42   H     H_    0.501815 0.887422 0.065371 0.214999
N2    N     N_3   0.536744 0.954617 0.932646 -0.572729
H43   H     H_    0.497756 0.887467 0.934449 0.215241
H44   H     H_    0.578701 0.926601 0.964710 0.230121
N3    N     N_3   0.962923 0.454706 0.067214 -0.573048
H45   H     H_    0.920928 0.426867 0.035129 0.230383
H46   H     H_    0.001810 0.387419 0.065371 0.214998
N4    N     N_3   0.036732 0.454606 0.932642 -0.572729
H47   H     H_    0.997740 0.387462 0.934446 0.215243
H48   H     H_    0.078689 0.426580 0.964703 0.230118
N5    N     N_3   0.875165 0.420146 0.591673 -0.606789
H49   H     H_    0.897430 0.506964 0.589715 0.234443
H50   H     H_    0.911421 0.357340 0.571918 0.226112
N6    N     N_3   0.145493 0.253777 0.437928 -0.586589
H51   H     H_    0.096848 0.290717 0.451800 0.207909
H52   H     H_    0.148383 0.165734 0.458952 0.230985
N7    N     N_3   0.375043 0.920988 0.591772 -0.606888
H53   H     H_    0.396976 0.008070 0.589946 0.234413
H54   H     H_    0.411557 0.858666 0.571987 0.226151
N8    N     N_3   0.645335 0.754173 0.437859 -0.586626
H55   H     H_    0.596719 0.791184 0.451761 0.207842
H56   H     H_    0.648173 0.666099 0.458847 0.230876

loop_
_geom_bond_atom_site_label_1
_geom_bond_atom_site_label_2
_ccdc_geom_bond_type
Cr2   O2    S    
C87   C88   S    
C58   C62   A    
C23   C91   A    
C55   C59   A    
Cr8   O28   S    
C77   O41   A    
C14   C18   A    
C5    C89   A    
C25   H33   S    
C35   C36   A    
C28   H36   S    
C84   C87   D    
N3    H45   S    
C21   C65   S    
Cr10  O14   S    
C32   C75   S    
N8    H55   S    
C3    O23   A    
C63   C79   S    
C85   C86   S    
Cr8   O8    S    
Cr3   O47   S    
C7    C11   A    
N3    H46   S    
C74   O10   A    
C50   C54   A    
C79   O43   A    
Cr11  O39   S    
C32   C36   A    
C16   C20   A    
C56   C60   A    
C38   C42   A    
Cr3   O19   S    
C92   H20   S    
C79   O15   A    
Cr6   O30   S    
N4    H48   S    
C80   O16   A    
Cr7   O27   S    
C76   O8    A    
C19   H31   S    
Cr7   O51   S    
C67   O39   A    
Cr5   O25   S    
N6    H51   S    
Cr6   O50   S    
Cr5   O49   S    
N1    H42   S    
C46   O34   A    
C22   C66   S    
C9    C13   A    
C52   C69   S    
C69   O49   A    
C15   C19   A    
C11   C15   A    
C78   O14   A    
C90   H18   S    
C12   C16   A    
C29   C33   A    
C61   C77   S    
N2    H43   S    
C49   C72   S    
Cr8   O32   S    
C47   O35   A    
C46   O30   A    
Cr1   O1    S    
C78   O42   A    
C51   C70   S    
C47   C83   S    
Cr10  O10   S    
C51   C55   A    
C81   C86   D    
C68   O4    A    
Cr12  O20   S    
C70   O50   A    
C40   N8    S    
C55   H7    S    
C44   C52   A    
Cr8   O52   S    
C83   C88   D    
C66   O38   A    
Cr1   O21   S    
Cr9   O17   S    
C46   C82   S    
C64   C80   S    
Cr2   O22   S    
C1    C12   S    
Cr12  O16   S    
C2    C11   S    
C24   C92   A    
C41   C49   A    
Cr2   O42   S    
Cr6   O18   S    
C8    H24   S    
N5    H49   S    
C44   H4    S    
C80   O44   A    
Cr4   O4    S    
Cr5   O29   S    
C30   C34   A    
Cr3   O43   S    
Cr10  O38   S    
C20   C24   A    
Cr3   O3    S    
C6    H22   S    
C10   C14   A    
C75   O7    A    
C30   C73   S    
C53   C57   A    
N4    H47   S    
C65   O37   A    
C29   C74   S    
C33   H37   S    
C25   C26   A    
C6    C90   A    
Cr7   O7    S    
C81   H14   S    
C76   O12   A    
C27   H35   S    
Cr4   O20   S    
C38   C62   A    
C54   H6    S    
C83   H16   S    
C19   C23   A    
C50   C71   S    
Cr2   O46   S    
C6    C10   A    
C5    C9    A    
C45   O29   A    
C34   H38   S    
C71   O51   A    
Cr9   O9    S    
C42   C50   A    
C8    C12   A    
C7    C91   A    
Cr4   O24   S    
C33   C34   A    
C22   C90   A    
Cr7   O31   S    
Cr8   O20   S    
C43   H3    S    
C20   H32   S    
C42   H2    S    
C37   N5    S    
C41   H1    S    
C2    O26   A    
C8    C92   A    
N2    H44   S    
Cr11  O11   S    
Cr12  O40   S    
N6    H52   S    
Cr1   O17   S    
Cr5   O17   S    
C3    O27   A    
C17   H29   S    
Cr10  O34   S    
Cr7   O19   S    
Cr12  O12   S    
C65   O1    A    
C48   O36   A    
Cr9   O37   S    
Cr10  O18   S    
C70   O46   A    
C73   O9    A    
Cr6   O6    S    
C53   H5    S    
C25   C30   A    
C14   H26   S    
C2    O22   A    
C68   O40   A    
C13   H25   S    
Cr1   O45   S    
C4    O28   A    
C73   O5    A    
C27   C32   A    
C18   C22   A    
C4    O24   A    
C59   C63   A    
C62   C78   S    
C28   C31   A    
C45   C81   S    
C21   C89   A    
C88   N4    S    
C26   H34   S    
Cr3   O23   S    
C72   O52   A    
C57   H9    S    
C75   O11   A    
C57   C61   A    
C45   O33   A    
C82   C85   D    
C39   C63   A    
C35   H39   S    
Cr11  O19   S    
C54   C58   A    
C87   N3    S    
C39   N7    S    
N8    H56   S    
C60   C64   A    
C7    H23   S    
Cr4   O48   S    
N7    H54   S    
C36   H40   S    
C69   O45   A    
C3    C10   S    
C71   O47   A    
C67   O3    A    
Cr11  O15   S    
C31   C76   S    
Cr12  O36   S    
C89   H17   S    
C43   C51   A    
C84   H15   S    
C49   C53   A    
C40   C64   A    
C31   C35   A    
C1    O25   A    
N5    H50   S    
C56   H8    S    
C5    H21   S    
C18   H30   S    
Cr11  O35   S    
N7    H53   S    
C37   C41   A    
N1    H41   S    
C16   H28   S    
C17   C21   A    
C66   O2    A    
C60   H12   S    
C23   C67   S    
C24   C68   S    
Cr9   O13   S    
C13   C17   A    
Cr6   O26   S    
C48   C84   S    
C40   C44   A    
C37   C61   A    
C15   H27   S    
C1    O21   A    
C39   C43   A    
C26   C29   A    
C59   H11   S    
C77   O13   A    
C27   C28   A    
C58   H10   S    
Cr5   O5    S    
C85   N1    S    
C74   O6    A    
C91   H19   S    
C82   H13   S    
C38   N6    S    
C4    C9    S    
Cr4   O44   S    
C72   O48   A    
Cr9   O33   S    
C47   O31   A    
Cr2   O18   S    
C52   C56   A    
C86   N2    S    
C48   O32   A    
Cr1   O41   S    
