data_mof_unit_39457.cif
_audit_creation_date              2012-12-11T15:39:29-0500
_audit_creation_method            fapswitch 2.2
_symmetry_space_group_name_H-M    P1
_symmetry_Int_Tables_number       1
_space_group_crystal_system       triclinic
_cell_length_a                    17.319267
_cell_length_b                    24.243156
_cell_length_c                    14.971446
_cell_angle_alpha                 89.703898
_cell_angle_beta                  125.488601
_cell_angle_gamma                 90.235152
_cell_volume                      5118.27791666

loop_
_atom_site_label
_atom_site_type_symbol
_atom_type_description
_atom_site_fract_x
_atom_site_fract_y
_atom_site_fract_z
_atom_type_partial_charge
C1    C     C_R   0.351506 0.347885 0.909117 -0.136428
C2    C     C_R   0.422998 0.499204 0.627966 -0.001758
C3    C     C_R   0.115341 0.815842 0.999968 0.042319
C4    C     C_1   0.544096 0.592016 0.343349 -0.018826
C5    C     C_1   0.404239 0.599920 0.655253 -0.031315
C6    C     C_1   0.000664 0.097801 0.306268 -0.009326
C7    C     C_1   0.910378 0.099580 0.653267 -0.030776
C8    C     C_R   0.953244 0.997406 0.279085 -0.015831
C9    C     C_R   0.929614 0.998148 0.630495 -0.010349
C10   C     C_R   0.172600 0.500086 0.706937 0.068509
C11   C     C_R   0.799120 0.500641 0.368654 0.084801
C12   C     C_R   0.674234 0.000686 0.722150 0.069930
C13   C     C_R   0.303459 0.000234 0.366230 0.075414
C14   C     C_R   0.020766 0.551786 0.614611 0.166399
C15   C     C_R   0.925164 0.552037 0.531905 0.170054
C16   C     C_R   0.521975 0.052117 0.620525 0.163375
C17   C     C_R   0.689919 0.375438 0.091872 -0.125202
C18   C     C_R   0.428604 0.051724 0.530674 0.165446
C19   C     C_R   0.070461 0.501804 0.652442 0.034218
C20   C     C_R   0.877871 0.502256 0.484182 0.030358
C21   C     C_R   0.571479 0.002439 0.664795 0.032507
C22   C     C_R   0.382710 0.001770 0.482065 0.032066
C23   C     C_R   0.017744 0.452858 0.627059 -0.195963
C24   C     C_R   0.920864 0.453071 0.542456 -0.202431
C25   C     C_R   0.518389 0.953322 0.634874 -0.195800
C26   C     C_R   0.423845 0.952914 0.542834 -0.200064
C27   C     C_3   0.932911 0.603689 0.482076 -0.524579
C28   C     C_R   0.852015 0.847721 0.909033 -0.138408
C29   C     C_3   0.037303 0.603223 0.571929 -0.527925
C30   C     C_3   0.441197 0.102119 0.482167 -0.524138
C31   C     C_3   0.543422 0.102457 0.579792 -0.519378
C32   C     C_R   0.164267 0.692975 0.900055 -0.165409
C33   C     C_R   0.843883 0.685057 0.100553 -0.163645
C34   C     C_R   0.790006 0.268594 0.899296 -0.168612
C35   C     C_R   0.343589 0.185255 0.100938 -0.165958
C36   C     C_R   0.741447 0.313715 0.899756 -0.167674
C37   C     C_R   0.390568 0.231515 0.100750 -0.169608
C38   C     C_R   0.108961 0.733700 0.900082 -0.167609
C39   C     C_R   0.147521 0.847913 0.091449 -0.121739
C40   C     C_R   0.891386 0.731078 0.100353 -0.168386
C41   C     C_R   0.760508 0.332357 0.999293 0.142040
C42   C     C_R   0.358232 0.257850 0.001167 0.139596
C43   C     C_R   0.138629 0.758495 0.999593 0.139391
C44   C     C_R   0.859204 0.757419 0.000815 0.137709
C45   C     C_R   0.408292 0.632588 0.091016 -0.139552
C46   C     C_R   0.599559 0.623362 0.908998 -0.122652
C47   C     C_R   0.945358 0.153090 0.089499 -0.122607
C48   C     C_R   0.099633 0.123448 0.909187 -0.123216
C49   C     C_R   0.841577 0.313344 0.098295 -0.165552
C50   C     C_R   0.321910 0.649239 0.999658 0.038522
C51   C     C_R   0.292136 0.231017 0.902123 -0.169399
C52   C     C_R   0.207898 0.732911 0.098832 -0.165700
C53   C     C_R   0.792698 0.730719 0.901761 -0.168196
C54   C     C_R   0.263097 0.692104 0.098830 -0.170237
C55   C     C_R   0.745258 0.684677 0.902046 -0.162696
C56   C     C_R   0.890253 0.268295 0.097922 -0.167816
C57   C     C_R   0.245225 0.184740 0.902417 -0.165164
C58   C     C_R   0.247991 0.677162 0.999510 0.147641
C59   C     C_R   0.763560 0.665727 0.001299 0.140703
C60   C     C_R   0.858402 0.242414 0.998430 0.140751
C61   C     C_R   0.689587 0.636194 0.001073 0.032933
C62   C     C_R   0.263525 0.165784 0.001643 0.141648
C63   C     C_R   0.374248 0.543320 0.451045 -0.176744
C64   C     C_R   0.391775 0.543025 0.371905 -0.163771
C65   C     C_R   0.865615 0.038431 0.444749 -0.173472
C66   C     C_R   0.872396 0.038028 0.356787 -0.165922
C67   C     C_R   0.427900 0.495284 0.356782 0.155306
C68   C     C_R   0.393005 0.495758 0.514387 0.146231
C69   C     C_R   0.914380 0.992837 0.342785 0.152569
C70   C     C_R   0.900649 0.993475 0.517609 0.147839
C71   C     C_R   0.425733 0.445331 0.402257 -0.170098
C72   C     C_R   0.883336 0.184832 0.998406 0.038423
C73   C     C_R   0.406422 0.445413 0.479266 -0.165372
C74   C     C_R   0.930581 0.944221 0.401983 -0.167496
C75   C     C_R   0.923579 0.944518 0.488583 -0.168203
C76   C     C_R   0.489709 0.452475 0.257792 -0.152756
C77   C     C_R   0.445027 0.454035 0.695112 -0.168589
C78   C     C_R   0.980146 0.952611 0.246794 -0.155402
C79   C     C_R   0.949585 0.953312 0.697507 -0.154331
C80   C     C_R   0.230449 0.545685 0.735759 -0.133486
C81   C     C_R   0.750887 0.545904 0.304643 -0.161558
C82   C     C_R   0.732528 0.046348 0.752780 -0.140288
C83   C     C_R   0.189570 0.136272 0.001293 0.034679
C84   C     C_R   0.253708 0.045741 0.303462 -0.161017
C85   C     C_R   0.502836 0.544317 0.273452 0.060144
C86   C     C_R   0.442704 0.545403 0.692906 0.072879
C87   C     C_R   0.985941 0.044572 0.256551 0.082070
C88   C     C_R   0.945810 0.044799 0.693352 0.074134
C89   C     C_R   0.230164 0.453689 0.741652 -0.125631
C90   C     C_R   0.753974 0.454518 0.304847 -0.135411
C91   C     C_R   0.730570 0.954124 0.748138 -0.122625
C92   C     C_R   0.256418 0.954145 0.302755 -0.117687
C93   C     C_R   0.319192 0.634994 0.908764 -0.120856
C94   C     C_R   0.471239 0.497640 0.298137 -0.006006
C95   C     C_R   0.690723 0.623715 0.092532 -0.120205
C96   C     C_R   0.852335 0.152350 0.908002 -0.138608
C97   C     C_R   0.190604 0.123875 0.092628 -0.122947
C98   C     C_R   0.443019 0.347813 0.091413 -0.133869
C99   C     C_R   0.597632 0.375514 0.907981 -0.123729
C100  C     C_R   0.943808 0.847467 0.091139 -0.137525
C101  C     C_R   0.056013 0.848133 0.908568 -0.120003
C102  C     C_R   0.381670 0.315775 0.000508 0.048640
C103  C     C_R   0.687525 0.362235 0.999816 0.039852
C104  C     C_R   0.882680 0.815391 0.000259 0.050757
H1    H     H_    0.313803 0.334130 0.825199 0.085189
H2    H     H_    0.079994 0.596287 0.539186 0.202306
H3    H     H_    0.400614 0.137970 0.480635 0.190489
H4    H     H_    0.592549 0.094418 0.556211 0.203217
H5    H     H_    0.145746 0.678099 0.821970 0.102530
H6    H     H_    0.864272 0.668898 0.178852 0.107980
H7    H     H_    0.767065 0.251559 0.820918 0.108295
H8    H     H_    0.364069 0.169042 0.179237 0.108052
H9    H     H_    0.683227 0.329853 0.821622 0.108351
H10   H     H_    0.445465 0.249099 0.179008 0.107631
H11   H     H_    0.050600 0.749603 0.821798 0.106134
H12   H     H_    0.748064 0.370429 0.177025 0.094606
H13   H     H_    0.946532 0.748560 0.178600 0.106970
H14   H     H_    0.862165 0.329128 0.176657 0.110345
H15   H     H_    0.269494 0.248209 0.823720 0.108707
H16   H     H_    0.227462 0.748250 0.177065 0.107647
H17   H     H_    0.770114 0.747922 0.823380 0.108324
H18   H     H_    0.322121 0.676597 0.177101 0.108492
H19   H     H_    0.687975 0.668195 0.823851 0.112566
H20   H     H_    0.946212 0.251059 0.176194 0.114096
H21   H     H_    0.188247 0.168097 0.824219 0.113019
H22   H     H_    0.353544 0.581802 0.466531 0.133641
H23   H     H_    0.814383 0.834047 0.825066 0.084021
H24   H     H_    0.383406 0.580942 0.328625 0.117889
H25   H     H_    0.838214 0.074940 0.457695 0.134274
H26   H     H_    0.851051 0.074256 0.305093 0.128114
H27   H     H_    0.447429 0.406805 0.387265 0.108044
H28   H     H_    0.414805 0.406718 0.519937 0.106651
H29   H     H_    0.959325 0.907474 0.391154 0.108978
H30   H     H_    0.947632 0.907922 0.539351 0.110623
H31   H     H_    0.437780 0.643224 0.174073 0.108627
H32   H     H_    0.573902 0.627640 0.824425 0.107489
H33   H     H_    0.996274 0.168606 0.170851 0.104447
H34   H     H_    0.186067 0.834489 0.175855 0.084172
H35   H     H_    0.074219 0.127884 0.824812 0.108481
H36   H     H_    0.477393 0.409486 0.264068 0.103787
H37   H     H_    0.425907 0.411592 0.670171 0.097364
H38   H     H_    0.967312 0.909590 0.251843 0.107492
H39   H     H_    0.931862 0.910664 0.673150 0.097621
H40   H     H_    0.209546 0.587575 0.714534 0.101415
H41   H     H_    0.754610 0.587459 0.332513 0.109453
H42   H     H_    0.714150 0.088964 0.749638 0.110618
H43   H     H_    0.259613 0.087341 0.332257 0.105174
H44   H     H_    0.209194 0.410927 0.731654 0.094081
H45   H     H_    0.918341 0.597556 0.400005 0.199175
H46   H     H_    0.764083 0.412277 0.332903 0.086388
H47   H     H_    0.708885 0.911439 0.736313 0.094860
H48   H     H_    0.267631 0.911725 0.330094 0.085327
H49   H     H_    0.270269 0.650196 0.826712 0.085606
H50   H     H_    0.748609 0.628491 0.177841 0.092590
H51   H     H_    0.814594 0.166001 0.823794 0.091892
H52   H     H_    0.248303 0.128914 0.177895 0.092858
H53   H     H_    0.490018 0.333900 0.175349 0.083841
H54   H     H_    0.570058 0.370684 0.822780 0.093794
H55   H     H_    0.991263 0.833414 0.174933 0.082173
H56   H     H_    0.060093 0.638553 0.629155 0.187915
H57   H     H_    0.009866 0.835033 0.824156 0.082573
H58   H     H_    0.052043 0.413619 0.661824 0.129034
H59   H     H_    0.884379 0.413900 0.514114 0.127444
H60   H     H_    0.552060 0.914307 0.672543 0.129076
H61   H     H_    0.388116 0.913612 0.512937 0.126578
H62   H     H_    0.432758 0.094021 0.403857 0.200773
H63   H     H_    0.561724 0.138725 0.633887 0.191259
H64   H     H_    0.895378 0.639038 0.487934 0.193696
N1    N     N_R   0.394180 0.396910 0.943210 -0.038089
N2    N     N_R   0.474350 0.471570 0.793850 -0.046659
N3    N     N_R   0.025650 0.971570 0.206150 -0.048182
N4    N     N_R   0.974350 0.971570 0.793850 -0.046911
N5    N     N_R   0.319480 0.528420 0.793810 -0.040935
N6    N     N_R   0.680520 0.528420 0.206190 -0.040009
N7    N     N_R   0.819480 0.028420 0.793810 -0.042010
N8    N     N_R   0.180520 0.028420 0.206190 -0.040318
N9    N     N_R   0.525640 0.528390 0.206120 -0.055672
N10   N     N_R   0.474360 0.528390 0.793880 -0.059418
N11   N     N_R   0.025640 0.028390 0.206120 -0.060585
N12   N     N_R   0.605820 0.396910 0.056790 -0.040433
N13   N     N_R   0.974360 0.028390 0.793880 -0.060112
N14   N     N_R   0.319490 0.471590 0.793840 -0.041188
N15   N     N_R   0.680510 0.471590 0.206160 -0.039393
N16   N     N_R   0.819490 0.971590 0.793840 -0.042271
N17   N     N_R   0.180510 0.971590 0.206160 -0.039836
N18   N     N_R   0.394130 0.603080 0.943110 -0.038800
N19   N     N_R   0.605870 0.603080 0.056890 -0.042080
N20   N     N_R   0.894130 0.103080 0.943110 -0.039581
N21   N     N_R   0.105870 0.103080 0.056890 -0.041532
N22   N     N_R   0.450990 0.396900 0.056840 -0.037557
N23   N     N_R   0.894180 0.896910 0.943210 -0.036615
N24   N     N_R   0.549010 0.396900 0.943160 -0.039672
N25   N     N_R   0.950990 0.896900 0.056840 -0.036035
N26   N     N_R   0.049010 0.896900 0.943160 -0.037941
N27   N     N_1   0.577459 0.630173 0.399722 -0.095249
N28   N     N_1   0.373426 0.643854 0.625907 -0.100121
N29   N     N_1   0.012798 0.140203 0.347766 -0.102775
N30   N     N_1   0.882047 0.143751 0.621859 -0.100122
N31   N     N_R   0.105820 0.896910 0.056790 -0.038934
N32   N     N_R   0.450950 0.603070 0.056740 -0.041633
N33   N     N_R   0.549050 0.603070 0.943260 -0.041821
N34   N     N_R   0.950950 0.103070 0.056740 -0.043737
N35   N     N_R   0.049050 0.103070 0.943260 -0.040035
N36   N     N_R   0.525650 0.471570 0.206150 -0.045940
Ni1   Ni    Ni4+2 0.434860 0.434850 0.869700 0.207445
Ni2   Ni    Ni4+2 0.565140 0.434850 0.130300 0.208691
Ni3   Ni    Ni4+2 0.934860 0.934850 0.869700 0.205877
Ni4   Ni    Ni4+2 0.065140 0.934850 0.130300 0.205287
Ni5   Ni    Ni4+2 0.565130 0.565140 0.130240 0.220182
Ni6   Ni    Ni4+2 0.434870 0.565140 0.869760 0.228910
Ni7   Ni    Ni4+2 0.065130 0.065140 0.130240 0.212131
Ni8   Ni    Ni4+2 0.934870 0.065140 0.869760 0.223097

loop_
_geom_bond_atom_site_label_1
_geom_bond_atom_site_label_2
_ccdc_geom_bond_type
C4    N27   T    
C99   C103  A    
C62   C83   S    
C26   H61   S    
C16   C21   A    
C55   C59   A    
C30   H3    S    
C89   H44   S    
N6    Ni5   S    
C31   H4    S    
C96   N20   A    
C12   C91   A    
N5    Ni6   S    
C34   C60   A    
C32   C58   A    
N34   Ni7   S    
C90   H46   S    
N18   N32   A    
C44   C104  S    
C75   H30   S    
C95   N19   A    
N8    N17   A    
C100  N25   A    
C11   C81   A    
C45   N32   A    
N26   Ni3   S    
C13   C84   A    
C3    C43   S    
C8    C69   S    
N16   Ni3   S    
N2    N10   A    
N13   Ni8   S    
C56   H20   S    
C35   C37   A    
C95   H50   S    
C80   N5    A    
C2    C68   S    
C78   H38   S    
C9    C88   A    
N1    Ni1   S    
C99   N24   A    
C43   C52   A    
C66   C69   A    
C27   C29   S    
C60   C72   S    
C25   H60   S    
C65   C70   A    
C74   H29   S    
N11   Ni7   S    
C100  C104  A    
N10   Ni6   S    
C9    C79   A    
C97   H52   S    
N9    Ni5   S    
C37   C42   A    
C7    C88   S    
C78   N3    A    
C39   N31   A    
N8    Ni7   S    
C76   C94   A    
C86   N10   A    
C44   C53   A    
N22   Ni2   S    
C46   N33   A    
C79   H39   S    
N19   Ni5   S    
C10   C89   A    
C77   N2    A    
C80   H40   S    
C92   H48   S    
C67   C94   S    
C51   H15   S    
C23   C24   A    
C18   C30   S    
C32   C38   A    
C67   C71   A    
C28   H23   S    
C98   N22   A    
C27   H64   S    
C23   H58   S    
C93   N18   A    
C3    C101  A    
C97   N21   A    
C40   H13   S    
C54   H18   S    
C73   H28   S    
C3    C39   A    
C27   H45   S    
N25   Ni4   S    
C91   N16   A    
C8    C78   A    
C34   H7    S    
N17   Ni4   S    
N3    N11   A    
C36   C41   A    
N1    N22   A    
N24   Ni1   S    
N12   Ni2   S    
C36   H9    S    
N4    N13   A    
C41   C49   A    
C82   H42   S    
C52   C54   A    
C29   H56   S    
C53   C55   A    
C15   C20   A    
C55   H19   S    
C11   C20   S    
C45   H31   S    
C33   C40   A    
C59   C61   S    
C32   H5    S    
C46   C61   A    
C50   C58   S    
C64   C67   A    
C20   C24   A    
C57   C62   A    
C9    C70   S    
C30   H62   S    
N2    Ni1   S    
N12   N24   A    
C71   C73   A    
C10   C80   A    
C92   N17   A    
C37   H10   S    
C64   H24   S    
C68   C73   A    
C98   C102  A    
C87   N11   A    
C12   C21   S    
N21   N35   A    
C6    C87   S    
C41   C103  S    
C47   N34   A    
C93   H49   S    
C16   C31   S    
C72   C96   A    
C79   N4    A    
C19   C23   A    
N23   N25   A    
C85   C94   A    
C28   C104  A    
C15   C27   S    
C49   H14   S    
C48   N35   A    
C98   H53   S    
C91   H47   S    
C10   C19   S    
C47   H33   S    
C61   C95   A    
N9    N36   A    
C12   C82   A    
C69   C74   A    
C16   C18   A    
N23   Ni3   S    
N7    Ni8   S    
C82   N7    A    
C22   C26   A    
C5    N28   T    
C51   C57   A    
C5    C86   S    
C52   H16   S    
C17   N12   A    
C85   N9    A    
N36   Ni2   S    
N5    N14   A    
C81   H41   S    
N18   Ni6   S    
C13   C92   A    
N21   Ni7   S    
C29   H2    S    
C24   H59   S    
C14   C29   S    
C28   N23   A    
N33   Ni6   S    
C101  N26   A    
C54   C58   A    
C84   H43   S    
C21   C25   A    
C63   C68   A    
C48   H35   S    
C18   C22   A    
C14   C19   A    
N4    Ni3   S    
C31   H63   S    
N6    N15   A    
C6    N29   T    
C65   H25   S    
C76   N36   A    
C50   C93   A    
C4    C85   S    
C42   C51   A    
C49   C56   A    
N19   N33   A    
N32   Ni5   S    
C48   C83   A    
N14   Ni1   S    
C89   N14   A    
C8    C87   A    
C7    N30   T    
C101  H57   S    
C25   C26   A    
C38   C43   A    
C2    C77   A    
C53   H17   S    
C11   C90   A    
C81   N6    A    
C57   H21   S    
C38   H11   S    
N20   Ni8   S    
C100  H55   S    
C88   N13   A    
C30   C31   S    
C45   C50   A    
C1    N1    A    
N31   Ni4   S    
C13   C22   S    
C2    C86   A    
C35   C62   A    
C34   C36   A    
C17   C103  A    
N35   Ni8   S    
C77   H37   S    
C47   C72   A    
C39   H34   S    
C63   H22   S    
C76   H36   S    
C46   H32   S    
C63   C64   A    
C96   H51   S    
N26   N31   A    
C56   C60   A    
C40   C44   A    
C90   N15   A    
C42   C102  S    
C71   H27   S    
C33   C59   A    
C65   C66   A    
C83   C97   A    
C99   H54   S    
C70   C75   A    
N15   Ni2   S    
C14   C15   A    
N20   N34   A    
C33   H6    S    
N3    Ni4   S    
C84   N8    A    
C1    C102  A    
C35   H8    S    
C74   C75   A    
C17   H12   S    
C1    H1    S    
N7    N16   A    
C66   H26   S    
