data_mof_unit_16719.cif
_audit_creation_date              2012-12-10T20:25:44-0500
_audit_creation_method            fapswitch 2.2
_symmetry_space_group_name_H-M    P1
_symmetry_Int_Tables_number       1
_space_group_crystal_system       triclinic
_cell_length_a                    8.66967
_cell_length_b                    10.725443
_cell_length_c                    9.86499
_cell_angle_alpha                 90.034891
_cell_angle_beta                  98.152683
_cell_angle_gamma                 91.343095
_cell_volume                      907.779235648

loop_
_atom_site_label
_atom_site_type_symbol
_atom_type_description
_atom_site_fract_x
_atom_site_fract_y
_atom_site_fract_z
_atom_type_partial_charge
C1    C     C_R   0.497534 0.260139 0.499371 0.883131
C2    C     C_R   0.369572 0.463752 0.912738 0.288836
C3    C     C_3   0.287356 0.340030 0.897292 -0.501204
C4    C     C_R   0.201513 0.502624 0.465076 0.981589
C5    C     C_3   0.287504 0.340096 0.051206 -0.537881
C6    C     C_R   0.504909 0.739895 0.500423 0.865680
C7    C     C_R   0.798158 0.505324 0.535735 0.838038
C8    C     C_2   0.037155 0.507283 0.448452 -0.516588
C9    C     C_2   0.962369 0.520251 0.557474 0.276245
C10   C     C_R   0.576453 0.066411 0.612134 -0.042778
C11   C     C_R   0.506994 0.128659 0.497373 -0.036469
C12   C     C_R   0.468745 0.934224 0.375441 -0.214904
C13   C     C_R   0.463589 0.062872 0.374680 -0.220548
C14   C     C_3   0.017552 0.651864 0.742783 0.135447
C15   C     C_3   0.056722 0.650698 0.898382 -0.837256
C16   C     C_3   0.449985 0.867832 0.939991 0.155884
C17   C     C_3   0.303005 0.932372 0.966227 -0.975592
C18   C     C_3   0.865140 0.964626 0.827396 0.016498
C19   C     C_3   0.924903 0.021908 0.966976 -0.862347
C20   C     C_R   0.519120 0.871850 0.498352 -0.086597
C21   C     C_R   0.589518 0.939898 0.611958 -0.024292
C22   C     C_3   0.587691 0.933675 0.764317 0.948979
C23   C     C_3   0.560763 0.075089 0.760274 -0.596928
C24   C     C_R   0.369563 0.463807 0.055081 0.203430
C25   C     C_R   0.623511 0.547490 0.087315 -0.163521
C26   C     C_R   0.623360 0.547625 0.943321 -0.127429
H1    H     H_    0.976286 0.497005 0.344637 0.152595
H2    H     H_    0.096626 0.719925 0.700173 0.152285
H3    H     H_    0.184439 0.658588 0.928594 0.239560
H4    H     H_    0.003144 0.730491 0.944009 0.225911
H5    H     H_    0.012141 0.563220 0.940760 0.256010
H6    H     H_    0.424581 0.883824 0.282509 0.164464
H7    H     H_    0.551685 0.914620 0.003598 0.163157
H8    H     H_    0.444148 0.770226 0.976352 0.163567
H9    H     H_    0.204899 0.900864 0.889133 0.282778
H10   H     H_    0.274955 0.908777 0.069469 0.226842
H11   H     H_    0.318225 0.035029 0.959385 0.249414
H12   H     H_    0.168645 0.345174 0.838385 0.247765
H13   H     H_    0.851803 0.038580 0.748487 0.144256
H14   H     H_    0.955303 0.904332 0.796089 0.155853
H15   H     H_    0.961655 0.947281 0.041782 0.259131
H16   H     H_    0.025923 0.085601 0.958769 0.233633
H17   H     H_    0.832323 0.075936 0.005332 0.250191
H18   H     H_    0.650679 0.136249 0.819619 0.193723
H19   H     H_    0.724200 0.584197 0.153886 0.157202
H20   H     H_    0.168951 0.346533 0.080898 0.208513
H21   H     H_    0.360961 0.266608 0.104666 0.212698
H22   H     H_    0.417320 0.109456 0.280863 0.157569
H23   H     H_    0.439653 0.098017 0.772173 0.200982
H24   H     H_    0.723321 0.584852 0.901515 0.179715
H25   H     H_    0.361216 0.267544 0.862408 0.199149
H26   H     H_    0.895834 0.684319 0.717298 0.139598
N1    N     N_R   0.498950 0.499140 0.142680 -0.106922
N2    N     N_R   0.498950 0.499180 0.857030 -0.115683
O1    O     O_R   0.500020 0.316790 0.614690 -0.618722
O2    O     O_3   0.456925 0.864819 0.797138 -0.617633
O3    O     O_3   0.730454 0.889065 0.836777 -0.659361
O4    O     O_R   0.500000 0.316760 0.385350 -0.624799
O5    O     O_R   0.271760 0.500010 0.587850 -0.549260
O6    O     O_R   0.271740 0.499970 0.358500 -0.633020
O7    O     O_R   0.500000 0.683240 0.614650 -0.577354
O8    O     O_R   0.499980 0.683210 0.385310 -0.637907
O9    O     O_R   0.728260 0.500030 0.641500 -0.607988
O10   O     O_R   0.728240 0.499990 0.412150 -0.646137
O11   O     O_3   0.038082 0.531194 0.691268 -0.590072
Zn1   Zn    Zn3+2 0.500010 0.500020 0.653130 0.988460
Zn2   Zn    Zn3+2 0.499990 0.499980 0.346870 0.930413

loop_
_geom_bond_atom_site_label_1
_geom_bond_atom_site_label_2
_ccdc_geom_bond_type
C13   H22   S    
C18   H13   S    
C16   O2    S    
C15   H5    S    
N2    Zn1   S    
C17   H10   S    
C25   H19   S    
C10   C23   S    
C19   H17   S    
C6    C20   S    
C5    H20   S    
C18   O3    S    
C1    C11   S    
C19   H16   S    
C4    C8    S    
C7    O9    A    
C4    O6    A    
C22   O3    S    
C2    C3    S    
C1    O1    A    
O9    Zn1   S    
O5    Zn1   S    
C25   C26   A    
C17   H11   S    
C1    O4    A    
C12   H6    S    
C11   C13   A    
C6    O8    A    
C5    C24   S    
C12   C20   A    
N1    Zn2   S    
O8    Zn2   S    
C6    O7    A    
C5    H21   S    
C14   O11   S    
C25   N1    A    
C15   H3    S    
C26   H24   S    
C10   C21   A    
C2    C24   A    
C16   H7    S    
C9    O11   S    
C7    O10   A    
C23   H23   S    
C10   C11   A    
C14   H2    S    
O10   Zn2   S    
C26   N2    A    
O4    Zn2   S    
O1    Zn1   S    
C18   H14   S    
C12   C13   A    
C4    O5    A    
C15   H4    S    
C20   C21   A    
C18   C19   S    
C2    N2    A    
C7    C9    S    
C8    H1    S    
C3    H25   S    
C14   C15   S    
C16   C17   S    
C22   O2    S    
C17   H9    S    
C16   H8    S    
C24   N1    A    
C21   C22   S    
O7    Zn1   S    
C22   C23   S    
C14   H26   S    
C23   H18   S    
C19   H15   S    
O6    Zn2   S    
C3    H12   S    
C8    C9    D    
C3    C5    S    
