data_mof_unit_28745.cif
_audit_creation_date              2012-12-11T15:59:35-0500
_audit_creation_method            fapswitch 2.2
_symmetry_space_group_name_H-M    P1
_symmetry_Int_Tables_number       1
_space_group_crystal_system       triclinic
_cell_length_a                    10.744105
_cell_length_b                    10.742815
_cell_length_c                    17.12997
_cell_angle_alpha                 99.465582
_cell_angle_beta                  99.86964
_cell_angle_gamma                 60.67205
_cell_volume                      1690.77486183

loop_
_atom_site_label
_atom_site_type_symbol
_atom_type_description
_atom_site_fract_x
_atom_site_fract_y
_atom_site_fract_z
_atom_type_partial_charge
C1    C     C_R   0.356540 0.768742 0.397726 0.534752
C2    C     C_R   0.857327 0.203989 0.198015 0.030624
C3    C     C_R   0.866848 0.214163 0.281784 0.020606
C4    C     C_R   0.780260 0.471182 0.284617 -0.142739
C5    C     C_R   0.786748 0.458839 0.204402 -0.156961
C6    C     C_R   0.876958 0.071902 0.155424 -0.062101
C7    C     C_R   0.928474 0.949593 0.194751 -0.137251
C8    C     C_R   0.953884 0.957479 0.277292 -0.118664
C9    C     C_R   0.921785 0.088712 0.320809 -0.070032
C10   C     C_R   0.820014 0.350164 0.324157 0.003678
C11   C     C_R   0.355084 0.815475 0.157365 0.004321
C12   C     C_R   0.369633 0.346799 0.357357 0.564531
C13   C     C_R   0.450197 0.845842 0.215659 0.013633
C14   C     C_R   0.436150 0.852547 0.296951 -0.009609
C15   C     C_R   0.281189 0.741687 0.257213 -0.138457
C16   C     C_R   0.281605 0.751673 0.178384 -0.146960
C17   C     C_R   0.559031 0.868384 0.195650 -0.126388
C18   C     C_R   0.642945 0.908056 0.254251 -0.093739
C19   C     C_R   0.621260 0.927514 0.334075 0.123995
C20   C     C_R   0.514193 0.904882 0.355057 -0.079655
C21   C     C_R   0.348580 0.801160 0.317354 0.011203
C22   C     C_R   0.300563 0.278444 0.800011 -0.004138
C23   C     C_R   0.774297 0.378576 0.402960 0.538747
C24   C     C_R   0.426645 0.177451 0.763580 0.034699
C25   C     C_R   0.478874 0.225484 0.712515 0.033929
C26   C     C_R   0.250535 0.447150 0.706859 -0.148087
C27   C     C_R   0.212607 0.412126 0.770265 -0.148269
C28   C     C_R   0.506228 0.031602 0.779410 -0.087217
C29   C     C_R   0.644160 0.944375 0.757087 -0.112000
C30   C     C_R   0.705784 0.001128 0.718756 -0.117124
C31   C     C_R   0.624236 0.140358 0.696730 -0.090354
C32   C     C_R   0.382226 0.353697 0.676510 -0.005068
C33   C     C_1   0.818366 0.341860 0.708977 -0.061836
C34   C     C_R   0.358546 0.768154 0.627683 0.548507
C35   C     C_1   0.845569 0.313909 0.776665 -0.050136
C36   C     C_1   0.339426 0.808804 0.709652 -0.054865
C37   C     C_1   0.313087 0.837132 0.777523 -0.062371
C38   C     C_R   0.891628 0.308423 0.087218 0.547175
C39   C     C_R   0.319157 0.299500 0.120186 0.562920
C40   C     C_R   0.298405 0.886923 0.084004 0.551249
C41   C     C_R   0.886763 0.297385 0.858887 0.548260
C42   C     C_R   0.279341 0.253843 0.877193 0.543453
C43   C     C_R   0.278817 0.884946 0.857178 0.539598
C44   C     C_R   0.407982 0.375202 0.599880 0.546580
C45   C     C_R   0.773415 0.380523 0.629781 0.539735
C46   C     C_1   0.343059 0.336832 0.274054 -0.035240
C47   C     C_1   0.331925 0.326297 0.203370 -0.036131
C48   C     C_R   0.831234 0.325717 0.160774 -0.001790
Cr1   Cr    Cr6+3 0.608100 0.610860 0.522250 1.013361
Cr2   Cr    Cr6+3 0.288890 0.599990 0.488420 1.008384
Cr3   Cr    Cr6+3 0.603040 0.289190 0.489390 1.013537
Cr4   Cr    Cr6+3 0.053960 0.052250 0.967380 1.015329
Cr5   Cr    Cr6+3 0.059890 0.373160 0.992710 1.014273
Cr6   Cr    Cr6+3 0.373370 0.061690 0.991710 1.001273
H1    H     H_    0.740753 0.577980 0.315319 0.156037
H2    H     H_    0.725060 0.923639 0.237007 0.136996
H3    H     H_    0.494783 0.926313 0.416910 0.130695
H4    H     H_    0.176855 0.547377 0.681634 0.146274
H5    H     H_    0.463629 0.984337 0.809927 0.153351
H6    H     H_    0.114868 0.489674 0.796081 0.144583
H7    H     H_    0.815299 0.936362 0.704209 0.118663
H8    H     H_    0.675809 0.179549 0.666703 0.153397
H9    H     H_    0.848645 0.061502 0.092014 0.141418
H10   H     H_    0.762938 0.553254 0.177050 0.136562
H11   H     H_    0.945924 0.848767 0.161190 0.099381
H12   H     H_    0.992916 0.862638 0.307852 0.122435
H13   H     H_    0.941790 0.090768 0.384980 0.132889
H14   H     H_    0.225742 0.687861 0.270833 0.137949
H15   H     H_    0.586803 0.847609 0.135462 0.137203
H16   H     H_    0.216518 0.717758 0.134055 0.133506
O1    O     O_R   0.749810 0.499790 0.438040 -0.521706
O2    O     O_R   0.298970 0.468800 0.557390 -0.495437
O3    O     O_R   0.489400 0.255930 0.561910 -0.525024
O4    O     O_R   0.723890 0.306050 0.584610 -0.536318
O5    O     O_3   0.500010 0.500010 0.500020 -0.269258
O6    O     O_R   0.171100 0.914680 0.053100 -0.514385
O7    O     O_R   0.941680 0.184840 0.050710 -0.509548
O8    O     O_R   0.922080 0.403420 0.072610 -0.518498
O9    O     O_R   0.196880 0.369150 0.083850 -0.496736
O10   O     O_R   0.411730 0.181020 0.091530 -0.506095
O11   O     O_R   0.365010 0.944360 0.063320 -0.510125
O12   O     O_R   0.477660 0.726260 0.439290 -0.507582
O13   O     O_R   0.159380 0.906670 0.876210 -0.503059
O14   O     O_R   0.930820 0.177420 0.886730 -0.494049
O15   O     O_R   0.910360 0.395420 0.895720 -0.522963
O16   O     O_R   0.186010 0.361730 0.919870 -0.497325
O17   O     O_R   0.400000 0.173010 0.914630 -0.516454
O18   O     O_R   0.354140 0.936940 0.899340 -0.537924
O19   O     O_3   0.162410 0.162370 0.983930 -0.263823
O20   O     O_R   0.260150 0.743000 0.412270 -0.530621
O21   O     O_R   0.297740 0.466550 0.394720 -0.504589
O22   O     O_R   0.488080 0.253500 0.386430 -0.472183
O23   O     O_R   0.722670 0.303800 0.421940 -0.489179
O24   O     O_R   0.751130 0.502220 0.613520 -0.501728
O25   O     O_R   0.478890 0.728510 0.601960 -0.493525
O26   O     O_R   0.261470 0.745430 0.587750 -0.522560
N1    N     N_3   0.711597 0.966108 0.393256 -0.579703
H17   H     H_    0.679206 0.981236 0.449785 0.228079
H18   H     H_    0.815155 0.879024 0.394267 0.197838
H19   H     H_    0.704426 0.834253 0.771639 0.121972

loop_
_geom_bond_atom_site_label_1
_geom_bond_atom_site_label_2
_ccdc_geom_bond_type
C25   C31   A    
C1    C21   S    
C1    O20   A    
C43   O13   A    
C12   O21   A    
C19   C20   A    
Cr3   O4    S    
N1    H17   S    
C19   N1    S    
C7    C8    A    
C22   C42   S    
C26   C32   A    
C26   C27   A    
C43   O18   A    
C14   C21   A    
C36   C37   T    
Cr5   O9    S    
Cr3   O5    S    
C27   H6    S    
Cr6   O17   S    
Cr1   O12   S    
C15   C16   A    
C33   C45   S    
C18   C19   A    
Cr4   O14   S    
Cr2   O2    S    
Cr3   O3    S    
C46   C47   T    
Cr2   O20   S    
C8    C9    A    
Cr1   O5    S    
Cr5   O16   S    
C42   O16   A    
Cr1   O24   S    
C38   C48   S    
C18   H2    S    
C25   C32   A    
C13   C14   A    
C31   H8    S    
Cr4   O19   S    
C2    C6    A    
C45   O24   A    
N1    H18   S    
Cr6   O10   S    
C5    C48   A    
C14   C20   A    
C16   H16   S    
C34   O25   A    
Cr6   O19   S    
C12   C46   S    
C38   O8    A    
C2    C48   A    
C1    O12   A    
C41   O14   A    
C8    H12   S    
Cr1   O25   S    
C23   O23   A    
C5    H10   S    
C45   O4    A    
C39   O9    A    
C6    H9    S    
C37   C43   S    
Cr4   O13   S    
C9    H13   S    
C29   C30   A    
C3    C9    A    
C23   O1    A    
Cr3   O22   S    
C7    H11   S    
C11   C16   A    
C17   C18   A    
C32   C44   S    
C24   C25   A    
C26   H4    S    
Cr3   O23   S    
C22   C27   A    
C4    H1    S    
Cr5   O19   S    
C22   C24   A    
C4    C10   A    
Cr4   O7    S    
C39   C47   S    
C28   H5    S    
C44   O3    A    
C17   H15   S    
C28   C29   A    
C29   H19   S    
C40   O11   A    
C12   O22   A    
C24   C28   A    
C34   O26   A    
C4    C5    A    
Cr4   O6    S    
C6    C7    A    
C38   O7    A    
C10   C23   S    
C41   O15   A    
C13   C17   A    
C39   O10   A    
C2    C3    A    
C3    C10   A    
Cr2   O5    S    
Cr6   O18   S    
C11   C13   A    
Cr2   O26   S    
C30   C31   A    
C15   H14   S    
C33   C35   T    
C44   O2    A    
C34   C36   S    
C11   C40   S    
C35   C41   S    
Cr5   O8    S    
C40   O6    A    
Cr2   O21   S    
C15   C21   A    
Cr1   O1    S    
C30   H7    S    
Cr5   O15   S    
C42   O17   A    
C20   H3    S    
Cr6   O11   S    
