data_mof_unit_47587.cif
_audit_creation_date              2012-12-11T15:09:38-0500
_audit_creation_method            fapswitch 2.2
_symmetry_space_group_name_H-M    P1
_symmetry_Int_Tables_number       1
_space_group_crystal_system       triclinic
_cell_length_a                    20.910781
_cell_length_b                    7.127556
_cell_length_c                    14.066837
_cell_angle_alpha                 89.904044
_cell_angle_beta                  98.185979
_cell_angle_gamma                 90.273881
_cell_volume                      2075.17385837

loop_
_atom_site_label
_atom_site_type_symbol
_atom_type_description
_atom_site_fract_x
_atom_site_fract_y
_atom_site_fract_z
_atom_type_partial_charge
O1    O     O_R   0.447130 0.507140 0.597350 -0.536416
O2    O     O_R   0.552870 0.007140 0.402650 -0.540520
O3    O     O_R   0.578910 0.181280 0.586990 -0.538509
O4    O     O_R   0.421090 0.681280 0.413010 -0.539345
C1    C     C_R   0.604541 0.344679 0.607238 0.724617
C2    C     C_R   0.395229 0.844281 0.393344 0.724875
O5    O     O_R   0.449230 0.177860 0.608640 -0.543445
O6    O     O_R   0.550770 0.677860 0.391360 -0.539344
O7    O     O_R   0.422260 0.000770 0.424450 -0.535625
O8    O     O_R   0.577740 0.500770 0.575550 -0.534453
C3    C     C_R   0.433269 0.345901 0.634850 0.703286
C4    C     C_R   0.566416 0.846833 0.364685 0.706468
O9    O     O_3   0.491310 0.336980 0.439550 -0.375830
O10   O     O_3   0.508690 0.836980 0.560450 -0.374418
V1    V     V_3+5 0.501610 0.064760 0.511210 1.419053
V2    V     V_3+5 0.498390 0.564760 0.488790 1.423230
C5    C     C_R   0.615271 0.936439 0.119460 0.193453
C6    C     C_R   0.386308 0.306586 0.883344 0.195892
H1    H     H_    0.700241 0.951235 0.995077 0.170798
H2    H     H_    0.300378 0.304245 0.008613 0.133249
C7    C     C_R   0.603739 0.859518 0.284500 -0.088070
C8    C     C_R   0.396125 0.351284 0.715124 -0.109214
C9    C     C_R   0.916471 0.826681 0.300254 -0.197307
C10   C     C_R   0.083597 0.375038 0.699134 -0.194594
C11   C     C_R   0.878790 0.811519 0.373170 -0.114892
C12   C     C_R   0.121078 0.374448 0.625721 -0.114919
C13   C     C_R   0.811972 0.824047 0.352889 -0.140065
C14   C     C_R   0.187914 0.364929 0.646419 -0.143291
C15   C     C_R   0.780435 0.851438 0.257692 0.052340
C16   C     C_R   0.219696 0.356409 0.742519 0.053481
C17   C     C_R   0.819347 0.870000 0.182247 0.070404
C18   C     C_R   0.180986 0.351843 0.818588 0.066346
C19   C     C_R   0.711580 0.864081 0.235932 0.021445
C20   C     C_R   0.288629 0.350036 0.764646 0.042080
C21   C     C_R   0.682748 0.908283 0.141267 0.086207
C22   C     C_R   0.318098 0.325024 0.861155 0.041363
C23   C     C_R   0.721570 0.923796 0.068559 -0.220732
C24   C     C_R   0.279234 0.319337 0.934212 -0.252543
C25   C     C_R   0.788281 0.901316 0.086855 0.120077
C26   C     C_R   0.212287 0.336673 0.914967 0.146584
C27   C     C_R   0.670405 0.836296 0.305761 -0.239416
C28   C     C_R   0.329290 0.366162 0.693269 -0.239011
C29   C     C_R   0.574761 0.908586 0.190922 0.031196
C30   C     C_R   0.425670 0.324072 0.810443 0.069542
C31   C     C_R   0.887950 0.856529 0.205582 -0.070597
C32   C     C_R   0.112327 0.362951 0.794781 -0.073538
H3    H     H_    0.688436 0.796856 0.378539 0.111847
H4    H     H_    0.310801 0.389583 0.618827 0.111856
H5    H     H_    0.968507 0.815689 0.317829 0.102077
H6    H     H_    0.031532 0.384099 0.681210 0.102016
H7    H     H_    0.786780 0.814721 0.414277 0.108170
H8    H     H_    0.212887 0.361527 0.584707 0.108098
H9    H     H_    0.901607 0.790320 0.446432 0.119507
H10   H     H_    0.098108 0.381433 0.551784 0.119492
C33   C     C_1   0.166395 0.857715 0.168842 -0.203251
C34   C     C_1   0.833402 0.356613 0.831690 -0.203288
C35   C     C_1   0.218607 0.855415 0.220446 -0.002403
C36   C     C_1   0.781019 0.354502 0.780519 0.000729
C37   C     C_1   0.280140 0.853688 0.281019 -0.000564
C38   C     C_1   0.719338 0.353453 0.720324 0.000315
C39   C     C_1   0.332501 0.851020 0.332248 -0.205009
C40   C     C_1   0.666997 0.351433 0.669030 -0.202228
O11   O     O_R   0.922300 0.202240 0.924350 -0.529455
O12   O     O_R   0.077700 0.702240 0.075650 -0.529946
O13   O     O_R   0.050780 0.535130 0.891350 -0.542377
O14   O     O_R   0.949220 0.035130 0.108650 -0.536996
C41   C     C_R   0.068676 0.368740 0.867084 0.769675
C42   C     C_R   0.931681 0.867596 0.133395 0.770417
O15   O     O_R   0.921100 0.531560 0.912990 -0.536041
O16   O     O_R   0.078900 0.031560 0.087010 -0.536571
O17   O     O_R   0.947120 0.708470 0.097370 -0.537381
O18   O     O_R   0.052880 0.208470 0.902630 -0.532485
C43   C     C_R   0.895872 0.363342 0.893468 0.707489
C44   C     C_R   0.104099 0.863779 0.106633 0.706631
O19   O     O_3   0.008710 0.375800 0.060400 -0.372509
O20   O     O_3   0.991290 0.875800 0.939600 -0.372148
V3    V     V_3+5 0.998380 0.648080 0.988790 1.455129
V4    V     V_3+5 0.001620 0.148080 0.011210 1.457214
C45   C     C_3   0.501628 0.933678 0.168225 -0.354341
C46   C     C_3   0.468449 0.767945 0.110452 -0.318028
C47   C     C_3   0.396843 0.754132 0.120668 -0.771181
H11   H     H_    0.391475 0.690754 0.191110 0.229770
H12   H     H_    0.373823 0.894549 0.114752 0.229910
H13   H     H_    0.371240 0.663486 0.063320 0.215230
H14   H     H_    0.471807 0.785940 0.033162 0.190515
H15   H     H_    0.492183 0.633584 0.134997 0.199532
H16   H     H_    0.479622 0.949704 0.234912 0.169937
H17   H     H_    0.490165 0.066767 0.128762 0.181722
C48   C     C_3   0.498884 0.313306 0.835432 -0.308212
C49   C     C_3   0.526374 0.488702 0.890489 -0.317970
C50   C     C_3   0.600105 0.492103 0.903446 -0.763946
H18   H     H_    0.620113 0.361885 0.939222 0.247801
H19   H     H_    0.617224 0.506048 0.832663 0.230972
H20   H     H_    0.618411 0.613940 0.948525 0.226105
H21   H     H_    0.508086 0.617013 0.850678 0.192646
H22   H     H_    0.510734 0.492203 0.962558 0.213224
H23   H     H_    0.511644 0.185222 0.878605 0.194322
H24   H     H_    0.522931 0.298607 0.770544 0.148919
N1    N     N_3   0.589557 0.005306 0.025942 -0.713375
H25   H     H_    0.565164 0.130649 0.033511 0.246351
H26   H     H_    0.558333 0.906172 0.990014 0.229119
N2    N     N_3   0.416387 0.260517 0.978668 -0.716455
H27   H     H_    0.407777 0.367434 0.025730 0.223937
H28   H     H_    0.396362 0.135171 0.999631 0.235005
N3    N     N_3   0.823451 0.911802 0.006681 -0.652069
H29   H     H_    0.806339 0.806146 0.957975 0.227279
H30   H     H_    0.813605 0.041110 0.972692 0.232277
N4    N     N_3   0.177088 0.337538 0.995275 -0.654555
H31   H     H_    0.187390 0.213553 0.034178 0.230673
H32   H     H_    0.193611 0.450206 0.039799 0.226985

loop_
_geom_bond_atom_site_label_1
_geom_bond_atom_site_label_2
_ccdc_geom_bond_type
O14   C42   A    
C9    C31   A    
C13   C15   A    
O12   V3    S    
O15   V3    S    
O1    C3    A    
O2    C4    A    
C2    O7    A    
C45   H16   S    
C47   H11   S    
C49   H21   S    
O5    C3    A    
N3    H30   S    
O20   V4    S    
C2    C39   S    
C21   C23   A    
C10   C12   A    
C9    H5    S    
O16   V4    S    
C36   C38   S    
C15   C19   A    
N4    H31   S    
C38   C40   T    
C41   O18   A    
C6    N2    S    
C46   H15   S    
H1    C23   S    
C7    C29   A    
C33   C44   S    
C8    C30   A    
C34   C36   T    
O13   C41   A    
C20   C28   A    
O16   C44   A    
O18   V4    S    
O15   C43   A    
C16   C18   A    
C26   N4    S    
O5    V1    S    
O6    V2    S    
C12   H10   S    
C45   H17   S    
C47   H12   S    
C13   H7    S    
C10   H6    S    
O14   V4    S    
C37   C39   T    
O13   V3    S    
C16   C20   A    
O20   V3    S    
O4    C2    A    
C50   H18   S    
O11   C43   A    
C4    C7    S    
C5    N1    S    
C48   H23   S    
O4    V2    S    
C5    C29   A    
C46   H14   S    
C6    C30   A    
C50   H19   S    
H2    C24   S    
N1    H25   S    
O6    C4    A    
C31   C42   S    
C27   H3    S    
O1    V2    S    
C28   H4    S    
N2    H28   S    
O2    V1    S    
O19   V3    S    
C29   C45   S    
C7    C27   A    
N1    H26   S    
C33   C35   T    
O17   V3    S    
C47   H13   S    
O3    V1    S    
C25   N3    S    
C34   C43   S    
C18   C32   A    
C11   H9    S    
C46   C47   S    
O3    C1    A    
C49   H22   S    
C11   C13   A    
N3    H29   S    
C3    C8    S    
C12   C14   A    
C48   H24   S    
C19   C27   A    
C14   C16   A    
O7    V1    S    
C10   C32   A    
C32   C41   S    
C23   C25   A    
O8    V2    S    
C50   H20   S    
C24   C26   A    
C14   H8    S    
C49   C50   S    
C8    C28   A    
C42   O17   A    
C22   C24   A    
C19   C21   A    
N4    H32   S    
C1    C40   S    
C20   C22   A    
C18   C26   A    
N2    H27   S    
O19   V4    S    
C35   C37   S    
C45   C46   S    
C1    O8    A    
C9    C11   A    
C15   C17   A    
C17   C31   A    
O9    V2    S    
C17   C25   A    
O12   C44   A    
O10   V1    S    
C5    C21   A    
C48   C49   S    
C6    C22   A    
C30   C48   S    
O11   V4    S    
