data_mof_unit_34439.cif
_audit_creation_date              2012-10-26T18:52:11-0400
_audit_creation_method            fapswitch 2.2
_symmetry_space_group_name_H-M    P1
_symmetry_Int_Tables_number       1
_space_group_crystal_system       triclinic
_cell_length_a                    13.910898
_cell_length_b                    14.785224
_cell_length_c                    14.760569
_cell_angle_alpha                 115.359265
_cell_angle_beta                  106.758646
_cell_angle_gamma                 71.583309
_cell_volume                      2561.05066864

loop_
_atom_site_label
_atom_site_type_symbol
_atom_type_description
_atom_site_fract_x
_atom_site_fract_y
_atom_site_fract_z
_atom_type_partial_charge
C1    C     C_R   0.512568 0.119285 0.688027 0.539602
C2    C     C_R   0.505686 0.500651 0.878395 -0.166786
C3    C     C_R   0.550781 0.387282 0.105057 -0.133659
C4    C     C_R   0.510919 0.601822 0.906521 -0.127390
C5    C     C_R   0.325125 0.304324 0.333671 -0.140559
C6    C     C_R   0.677354 0.695131 0.665200 -0.140103
C7    C     C_R   0.353950 0.217415 0.358290 0.165683
C8    C     C_R   0.651791 0.778709 0.635673 0.170738
C9    C     C_R   0.485168 0.286902 0.491563 0.010010
C10   C     C_R   0.507828 0.718560 0.517440 0.019917
C11   C     C_R   0.459075 0.377028 0.467034 -0.021742
C12   C     C_R   0.482575 0.881311 0.311852 0.545068
C13   C     C_R   0.535685 0.627805 0.541105 -0.014780
C14   C     C_R   0.377937 0.383072 0.384239 0.033134
C15   C     C_R   0.621338 0.618703 0.619233 0.026261
C16   C     C_R   0.687096 0.986177 0.503882 0.547773
C17   C     C_R   0.312949 0.013951 0.496388 0.527656
C18   C     C_R   0.511421 0.459942 0.520255 -0.000264
C19   C     C_R   0.482371 0.545933 0.489314 0.004638
C20   C     C_R   0.403425 0.546009 0.404941 -0.125477
C21   C     C_R   0.592830 0.458371 0.602514 -0.118440
C22   C     C_R   0.351662 0.466655 0.351985 0.022616
C23   C     C_R   0.502015 0.360143 0.925010 0.011404
C24   C     C_R   0.650468 0.533867 0.650465 0.019283
C25   C     C_1   0.207813 0.024748 0.498004 -0.065478
C26   C     C_1   0.792583 0.976277 0.504232 -0.056881
C27   C     C_2   0.014555 0.041758 0.505209 0.162976
C28   C     C_2   0.987110 0.959378 0.501327 0.166824
C29   C     C_1   0.881069 0.968156 0.503421 -0.028746
C30   C     C_1   0.119867 0.033191 0.500920 -0.036442
C31   C     C_R   0.514568 0.188074 0.796250 -0.021873
C32   C     C_R   0.477261 0.813411 0.203728 -0.009329
C33   C     C_R   0.565143 0.211271 0.976723 0.141055
C34   C     C_R   0.483544 0.640686 0.076173 0.009759
C35   C     C_R   0.511178 0.774342 0.036612 0.130474
C36   C     C_R   0.560239 0.147423 0.872793 -0.127765
C37   C     C_R   0.504833 0.841696 0.137121 -0.148393
C38   C     C_R   0.471008 0.294671 0.824330 -0.010682
C39   C     C_R   0.453266 0.716516 0.168259 -0.002490
C40   C     C_3   0.034644 0.789641 0.516473 -0.313027
C41   C     C_3   0.973576 0.222972 0.519398 -0.307699
C42   C     C_3   0.382260 0.699592 0.218807 -0.275172
C43   C     C_3   0.280463 0.779847 0.226265 -0.432934
C44   C     C_3   0.378396 0.337021 0.755963 -0.261233
C45   C     C_R   0.538606 0.319148 0.002921 0.045288
C46   C     C_3   0.288745 0.285240 0.727326 -0.415877
C47   C     C_3   0.640386 0.060420 0.030031 -0.320517
C48   C     C_3   0.643202 0.789672 0.972191 -0.328019
C49   C     C_3   0.270673 0.473585 0.259048 -0.279241
C50   C     C_3   0.162824 0.517722 0.285511 -0.440428
C51   C     C_3   0.744243 0.524441 0.734284 -0.283807
C52   C     C_3   0.770772 0.430104 0.762758 -0.449022
C53   C     C_3   0.724259 0.851812 0.691374 -0.227580
C54   C     C_3   0.827984 0.805112 0.655271 -0.444370
C55   C     C_3   0.291564 0.136542 0.290874 -0.231718
C56   C     C_R   0.501418 0.672675 0.005653 0.063998
C57   C     C_3   0.312656 0.087708 0.181789 -0.448667
C58   C     C_R   0.498152 0.465218 0.950387 0.026935
C59   C     C_R   0.498832 0.533877 0.052541 0.025505
C60   C     C_R   0.527730 0.492827 0.129320 -0.156529
Cu1   Cu    Cu3+1 0.526370 0.916390 0.524860 0.914065
Cu2   Cu    Cu3+1 0.473630 0.083610 0.475140 0.904289
H1    H     H_    0.260200 0.308499 0.273087 0.102889
H2    H     H_    0.515276 0.448549 0.801579 0.108689
H3    H     H_    0.439247 0.734816 0.465344 0.115300
H4    H     H_    0.546455 0.275354 0.552022 0.121683
H5    H     H_    0.137048 0.865670 0.515190 0.252679
H6    H     H_    0.097956 0.719778 0.505533 0.133822
H7    H     H_    0.963314 0.766352 0.465346 0.158026
H8    H     H_    0.024475 0.823105 0.597249 0.144134
H9    H     H_    0.867090 0.132322 0.476038 0.251173
H10   H     H_    0.909459 0.292179 0.533557 0.138205
H11   H     H_    0.995470 0.204753 0.445780 0.145440
H12   H     H_    0.743303 0.691041 0.725017 0.084657
H13   H     H_    0.039733 0.240693 0.582640 0.155785
H14   H     H_    0.292347 0.857320 0.279122 0.152676
H15   H     H_    0.242047 0.782199 0.149826 0.148561
H16   H     H_    0.228723 0.759164 0.255719 0.137621
H17   H     H_    0.360246 0.624668 0.173806 0.137901
H18   H     H_    0.421529 0.698731 0.295029 0.152661
H19   H     H_    0.265411 0.294501 0.797274 0.142842
H20   H     H_    0.221883 0.321594 0.682082 0.126079
H21   H     H_    0.309366 0.202376 0.680879 0.173801
H22   H     H_    0.346656 0.419741 0.796091 0.141177
H23   H     H_    0.380971 0.606790 0.376427 0.083508
H24   H     H_    0.399885 0.331719 0.686898 0.169793
H25   H     H_    0.551761 0.201255 0.108904 0.244035
H26   H     H_    0.668375 0.044103 0.101136 0.141197
H27   H     H_    0.706731 0.034501 0.990532 0.149148
H28   H     H_    0.579655 0.017230 0.981712 0.136558
H29   H     H_    0.496547 0.881802 0.976621 0.245711
H30   H     H_    0.654660 0.806557 0.910094 0.135473
H31   H     H_    0.681594 0.708462 0.961447 0.154621
H32   H     H_    0.679352 0.840499 0.046492 0.134631
H33   H     H_    0.144288 0.470946 0.317566 0.147008
H34   H     H_    0.613651 0.397401 0.629841 0.099580
H35   H     H_    0.157280 0.597606 0.342055 0.159733
H36   H     H_    0.105260 0.518913 0.215764 0.138183
H37   H     H_    0.285159 0.524216 0.228665 0.134148
H38   H     H_    0.274893 0.397980 0.195038 0.133997
H39   H     H_    0.706942 0.429244 0.793223 0.151014
H40   H     H_    0.787938 0.358434 0.695871 0.159942
H41   H     H_    0.840484 0.433147 0.823233 0.140859
H42   H     H_    0.813189 0.523485 0.709898 0.138230
H43   H     H_    0.731888 0.592991 0.804787 0.135359
H44   H     H_    0.817063 0.781996 0.571461 0.173788
H45   H     H_    0.579214 0.360143 0.167375 0.130063
H46   H     H_    0.876767 0.862555 0.692791 0.128386
H47   H     H_    0.869137 0.736682 0.675381 0.129334
H48   H     H_    0.694913 0.927468 0.686959 0.207122
H49   H     H_    0.737933 0.868317 0.774468 0.083527
H50   H     H_    0.396672 0.065003 0.182128 0.161628
H51   H     H_    0.279662 0.018471 0.138638 0.136974
H52   H     H_    0.276848 0.142329 0.141837 0.132154
H53   H     H_    0.302684 0.074913 0.316880 0.210078
H54   H     H_    0.208217 0.173375 0.289104 0.098886
H55   H     H_    0.522349 0.624080 0.850032 0.158554
H56   H     H_    0.523481 0.915671 0.163513 0.120963
H57   H     H_    0.588210 0.065262 0.850369 0.124919
H58   H     H_    0.540646 0.541494 0.209091 0.119095
N1    N     N_R   0.433980 0.209250 0.437830 -0.225517
N2    N     N_R   0.566020 0.790750 0.562170 -0.223465
N3    N     N_2   0.060244 0.863265 0.491963 -0.527739
N4    N     N_2   0.940745 0.137532 0.515669 -0.526462
N5    N     N_2   0.598858 0.169558 0.055243 -0.519623
N6    N     N_2   0.534205 0.807358 0.969344 -0.526481
O1    O     O_R   0.534760 0.019630 0.662610 -0.522971
O2    O     O_R   0.465240 0.980370 0.337390 -0.515232
O3    O     O_R   0.490220 0.160840 0.620610 -0.503796
O4    O     O_R   0.509780 0.839160 0.379390 -0.494549
O5    O     O_R   0.663260 0.919400 0.523940 -0.506091
O6    O     O_R   0.336740 0.080600 0.476060 -0.518981
O7    O     O_R   0.618720 0.060610 0.481950 -0.490905
O8    O     O_R   0.381280 0.939390 0.518050 -0.494023

loop_
_geom_bond_atom_site_label_1
_geom_bond_atom_site_label_2
_ccdc_geom_bond_type
C53   H48   S    
C23   C58   A    
C11   C18   A    
C34   C56   A    
C23   C45   A    
H29   N6    S    
C18   C21   A    
C33   C45   A    
C19   C20   A    
C7    C55   S    
C28   N3    S    
C52   H41   S    
C53   C54   S    
C43   H16   S    
C42   H18   S    
C52   H40   S    
C40   H8    S    
C41   N4    S    
C28   C29   S    
C35   C37   A    
C1    O3    A    
C11   C14   A    
C50   H33   S    
C57   H50   S    
C49   H37   S    
C55   H54   S    
C1    C31   S    
C33   C36   A    
C5    H1    S    
C18   C19   A    
C32   C39   A    
C36   H57   S    
C16   O5    A    
C9    H4    S    
C6    C15   A    
C46   H20   S    
C37   H56   S    
C44   C46   S    
C9    N1    A    
C6    H12   S    
C3    C60   A    
C53   H49   S    
C24   C51   S    
C59   C60   A    
C12   C32   S    
C17   O6    A    
C47   H27   S    
Cu2   O3    S    
C7    N1    A    
C44   H24   S    
C16   O7    A    
C2    H2    S    
Cu1   O8    S    
C47   N5    S    
C39   C42   S    
C16   C26   S    
C52   H39   S    
C50   H36   S    
C48   H31   S    
C13   C19   A    
C51   C52   S    
Cu2   O6    S    
H9    N4    S    
C40   H7    S    
C5    C7    A    
C54   H44   S    
C6    C8    A    
C3    H45   S    
C58   C59   A    
C41   H11   S    
C3    C45   A    
C34   C39   A    
C54   H47   S    
Cu1   N2    S    
C35   N6    S    
C2    C4    A    
C38   C44   S    
C41   H13   S    
C46   H19   S    
C51   H43   S    
C20   H23   S    
C33   N5    S    
Cu1   O1    S    
C32   C37   A    
C9    C11   A    
C5    C14   A    
C17   O8    A    
C48   H32   S    
Cu1   O4    S    
C41   H10   S    
C15   C24   A    
C20   C22   A    
C12   O4    A    
C55   C57   S    
C48   H30   S    
C34   C59   A    
C47   H28   S    
C4    H55   S    
C42   C43   S    
H25   N5    S    
Cu2   O7    S    
C10   H3    S    
C22   C49   S    
C25   C30   T    
C40   N3    S    
C50   H35   S    
C35   C56   A    
C1    O1    A    
C10   N2    A    
C10   C13   A    
H5    N3    S    
C8    C53   S    
C57   H51   S    
C27   N4    S    
C2    C58   A    
C57   H52   S    
C12   O2    A    
C21   H34   S    
C54   H46   S    
C43   H15   S    
C23   C38   A    
C31   C38   A    
C44   H22   S    
C17   C25   S    
C47   H26   S    
C14   C22   A    
C13   C15   A    
C51   H42   S    
C49   H38   S    
Cu2   O2    S    
C8    N2    A    
C55   H53   S    
C60   H58   S    
Cu1   Cu2   S    
Cu1   O5    S    
C48   N6    S    
C46   H21   S    
C42   H17   S    
C26   C29   T    
C49   C50   S    
C40   H6    S    
C21   C24   A    
C27   C28   D    
C31   C36   A    
C43   H14   S    
Cu2   N1    S    
C4    C56   A    
C27   C30   S    
