data_mof_unit_38473.cif
_audit_creation_date              2012-12-11T17:00:22-0500
_audit_creation_method            fapswitch 2.2
_symmetry_space_group_name_H-M    P1
_symmetry_Int_Tables_number       1
_space_group_crystal_system       triclinic
_cell_length_a                    6.972048
_cell_length_b                    13.554136
_cell_length_c                    20.265416
_cell_angle_alpha                 103.068418
_cell_angle_beta                  90.448144
_cell_angle_gamma                 90.154999
_cell_volume                      1865.40760841

loop_
_atom_site_label
_atom_site_type_symbol
_atom_type_description
_atom_site_fract_x
_atom_site_fract_y
_atom_site_fract_z
_atom_type_partial_charge
O1    O     O_R   0.506770 0.599700 0.449550 -0.545451
O2    O     O_R   0.179980 0.595740 0.587960 -0.553136
O3    O     O_R   0.004580 0.400300 0.550450 -0.529068
C1    C     C_R   0.348374 0.616466 0.615456 0.711921
O4    O     O_R   0.177380 0.611700 0.452380 -0.545774
O5    O     O_R   0.001970 0.416370 0.413900 -0.545485
C2    C     C_R   0.345367 0.638293 0.435656 0.676418
O6    O     O_R   0.509390 0.583630 0.586100 -0.519191
O7    O     O_3   0.337530 0.435890 0.487530 -0.371076
V1    V     V_3+5 0.064660 0.511890 0.502310 1.473734
O8    O     O_R   0.671950 0.404260 0.412040 -0.543417
C3    C     C_R   0.840156 0.382869 0.384802 0.711362
O9    O     O_R   0.674540 0.388300 0.547620 -0.537548
C4    C     C_R   0.843945 0.361631 0.564203 0.829662
V2    V     V_3+5 0.564030 0.488110 0.497690 1.491379
O10   O     O_3   0.841030 0.564110 0.512470 -0.378870
C5    C     C_R   0.941328 0.115147 0.612581 -0.244033
H1    H     H_    0.981785 0.038635 0.587850 0.140257
C6    C     C_R   0.857264 0.284217 0.603853 -0.212087
C7    C     C_R   0.823953 0.316019 0.931244 -0.331172
C8    C     C_R   0.817218 0.393419 0.896706 0.665995
C9    C     C_R   0.838233 0.372727 0.826481 0.517311
C10   C     C_R   0.860175 0.271244 0.788370 -0.123121
C11   C     C_R   0.879169 0.193338 0.825150 -0.005081
C12   C     C_R   0.869811 0.243858 0.715788 0.131985
C13   C     C_R   0.918445 0.142713 0.683122 0.053381
C14   C     C_R   0.943352 0.069364 0.720785 -0.172788
C15   C     C_R   0.920443 0.093659 0.790388 -0.118871
C16   C     C_R   0.829683 0.311982 0.673897 -0.239960
C17   C     C_R   0.915410 0.186141 0.573344 0.610472
C18   C     C_R   0.858431 0.216682 0.896451 -0.179356
H2    H     H_    0.774869 0.386816 0.693389 0.243401
H3    H     H_    0.807169 0.333997 0.985780 0.186040
H4    H     H_    0.939109 0.033528 0.816998 0.100769
C19   C     C_R   0.711945 0.252924 0.202894 0.030387
C20   C     C_R   0.867678 0.188376 0.182717 -0.050395
C21   C     C_R   0.021074 0.194057 0.228976 -0.185716
H5    H     H_    0.141862 0.144344 0.216053 0.183818
C22   C     C_R   0.013136 0.257965 0.294241 -0.150086
H6    H     H_    0.129895 0.256593 0.329446 0.140476
C23   C     C_R   0.850180 0.317549 0.315504 -0.058575
C24   C     C_R   0.703462 0.316231 0.267656 0.000743
C25   C     C_3   0.495158 0.295881 0.273879 -0.443920
C26   C     C_3   0.505183 0.226124 0.203999 0.478909
H7    H     H_    0.406845 0.364451 0.275163 0.123886
H8    H     H_    0.466048 0.255735 0.314931 0.203246
H9    H     H_    0.417932 0.250739 0.164536 0.062505
C27   C     C_R   0.506764 0.751218 0.705618 -0.023615
C28   C     C_R   0.352206 0.686178 0.683353 -0.061102
C29   C     C_R   0.194429 0.691737 0.727048 -0.134803
H10   H     H_    0.074654 0.640938 0.712344 0.208443
C30   C     C_R   0.195879 0.757102 0.791874 -0.152297
H11   H     H_    0.076906 0.755214 0.825388 0.153546
C31   C     C_R   0.356347 0.818319 0.815182 -0.067472
C32   C     C_R   0.508948 0.815800 0.770054 0.004563
C33   C     C_3   0.715220 0.795041 0.780744 -0.416334
C34   C     C_3   0.711767 0.724123 0.711212 0.516254
H12   H     H_    0.737241 0.755852 0.822843 0.222430
H13   H     H_    0.806429 0.863059 0.783191 0.102919
C35   C     C_R   0.289837 0.888097 0.387935 -0.128651
H14   H     H_    0.287852 0.838662 0.481218 0.106431
H15   H     H_    0.251285 0.010710 0.303845 0.151203
H16   H     H_    0.257962 0.965716 0.412996 0.153165
C36   C     C_R   0.349135 0.715794 0.395962 -0.037583
C37   C     C_R   0.401423 0.683308 0.069810 -0.201295
C38   C     C_R   0.416731 0.607441 0.105577 0.711934
C39   C     C_R   0.398416 0.630317 0.175835 -0.266130
C40   C     C_R   0.361996 0.730644 0.212295 -0.001541
C41   C     C_R   0.339764 0.807340 0.174869 0.040683
C42   C     C_R   0.347944 0.757577 0.284522 0.110461
C43   C     C_R   0.307813 0.859779 0.317235 0.110752
C44   C     C_R   0.283184 0.932870 0.279261 -0.153148
C45   C     C_R   0.298621 0.907140 0.209288 -0.110411
C46   C     C_R   0.370707 0.686692 0.325659 -0.205947
C47   C     C_R   0.308145 0.816251 0.426926 -0.167399
C48   C     C_R   0.362645 0.782954 0.103616 -0.190683
H17   H     H_    0.399452 0.607769 0.304785 0.096381
H18   H     H_    0.421507 0.664502 0.015427 0.169863
H19   H     H_    0.414040 0.567677 0.199961 0.135761
O11   O     O_R   0.203450 0.916320 0.913910 -0.550663
O12   O     O_R   0.535520 0.888300 0.047620 -0.529033
O13   O     O_R   0.710860 0.083650 0.086100 -0.514430
C49   C     C_R   0.367433 0.861577 0.064319 0.752165
O14   O     O_R   0.532860 0.904250 0.912040 -0.542767
O15   O     O_R   0.708190 0.099710 0.949550 -0.542410
C50   C     C_R   0.364210 0.883123 0.884689 0.692982
O16   O     O_R   0.206120 0.900260 0.050460 -0.540990
O17   O     O_3   0.375280 0.064080 0.012470 -0.367356
V3    V     V_3+5 0.648180 0.988110 0.997690 1.501548
O18   O     O_R   0.038220 0.111740 0.952370 -0.542045
C51   C     C_R   0.868985 0.138315 0.935742 0.738553
O19   O     O_R   0.040880 0.095790 0.087940 -0.549943
C52   C     C_R   0.872974 0.117287 0.115215 0.710569
V4    V     V_3+5 0.148800 0.011950 0.002300 1.466167
O20   O     O_3   0.871820 0.935920 0.987530 -0.375714
F1    F     F_    0.945205 0.159029 0.505531 -0.702425
F2    F     F_    0.482125 0.125419 0.205893 -0.707027
F3    F     F_    0.731368 0.623558 0.714386 -0.644502
H20   H     H_    0.978610 0.992021 0.696114 0.110391
H21   H     H_    0.804714 0.748066 0.673289 0.012266
F4    F     F_    0.453415 0.510965 0.072018 -0.661522
H22   H     H_    0.276646 0.966327 0.182201 0.167016
F5    F     F_    0.850841 0.454287 0.798547 -0.630770
F6    F     F_    0.793871 0.490323 0.931952 -0.610318

loop_
_geom_bond_atom_site_label_1
_geom_bond_atom_site_label_2
_ccdc_geom_bond_type
C27   C32   A    
C49   O16   A    
C32   C33   S    
C23   C24   A    
C19   C20   A    
C1    O6    A    
O15   C51   A    
C27   C34   S    
C22   C23   A    
H14   C47   S    
C14   H20   S    
C13   C14   A    
C3    C23   S    
C37   C48   A    
C35   H16   S    
C5    C13   A    
C20   C21   A    
O14   C50   A    
C16   H2    S    
O5    C3    A    
V2    O10   S    
O16   V4    S    
C33   C34   S    
C41   C48   A    
C19   C24   A    
O11   C50   A    
C8    F6    S    
O8    V2    S    
C20   C52   S    
C40   C41   A    
C46   H17   S    
C42   C46   A    
C29   C30   A    
C10   C11   A    
C41   C45   A    
C42   C43   A    
O1    V2    S    
O7    V1    S    
C26   H9    S    
O12   V3    S    
C38   C39   A    
C15   H4    S    
O13   C52   A    
C8    C9    A    
C5    C17   A    
C38   F4    S    
C48   C49   S    
O12   C49   A    
C30   C31   A    
O18   V4    S    
C12   C16   A    
O17   V4    S    
C39   C40   A    
C39   H19   S    
C22   H6    S    
O4    C2    A    
O15   V3    S    
C35   C43   A    
C29   H10   S    
C12   C13   A    
C34   H21   S    
C9    F5    S    
V3    O20   S    
O2    C1    A    
C25   C26   S    
C21   H5    S    
C26   F2    S    
O19   V4    S    
C5    H1    S    
H15   C44   S    
O17   V3    S    
C19   C26   S    
C25   H7    S    
O3    C4    A    
C7    H3    S    
C45   H22   S    
C28   C29   A    
O6    V2    S    
C18   C51   S    
O9    V2    S    
O14   V3    S    
O11   V4    S    
O2    V1    S    
C30   H11   S    
C31   C50   S    
C31   C32   A    
C27   C28   A    
C37   H18   S    
O1    C2    A    
C4    C6    S    
C11   C15   A    
C44   C45   A    
O5    V1    S    
O8    C3    A    
C35   C47   A    
C33   H13   S    
C1    C28   S    
O7    V2    S    
C11   C18   A    
O4    V1    S    
C21   C22   A    
O3    V1    S    
V1    O10   S    
O18   C51   A    
O13   V3    S    
C34   F3    S    
O19   C52   A    
C36   C47   A    
C33   H12   S    
C10   C12   A    
V4    O20   S    
C25   H8    S    
C2    C36   S    
C17   F1    S    
C43   C44   A    
C7    C8    A    
C40   C42   A    
C37   C38   A    
C24   C25   S    
C14   C15   A    
C36   C46   A    
C9    C10   A    
O9    C4    A    
C6    C17   A    
C7    C18   A    
C6    C16   A    
