data_mof_unit_19553.cif
_audit_creation_date              2012-12-11T14:52:31-0500
_audit_creation_method            fapswitch 2.2
_symmetry_space_group_name_H-M    P1
_symmetry_Int_Tables_number       1
_space_group_crystal_system       triclinic
_cell_length_a                    18.789983
_cell_length_b                    10.974836
_cell_length_c                    18.821168
_cell_angle_alpha                 90.014119
_cell_angle_beta                  90.861129
_cell_angle_gamma                 89.925516
_cell_volume                      3880.80272803

loop_
_atom_site_label
_atom_site_type_symbol
_atom_type_description
_atom_site_fract_x
_atom_site_fract_y
_atom_site_fract_z
_atom_type_partial_charge
C1    C     C_R   0.272830 0.039766 0.854833 0.548121
C2    C     C_R   0.727550 0.040682 0.145371 0.543115
C3    C     C_R   0.772830 0.539766 0.854833 0.548121
C4    C     C_R   0.227550 0.540682 0.145371 0.543115
C5    C     C_3   0.551716 0.763906 0.967508 -0.131688
C6    C     C_3   0.499128 0.713773 0.022438 -0.108940
C7    C     C_3   0.051716 0.263906 0.967508 -0.131688
C8    C     C_3   0.999128 0.213773 0.022438 -0.108940
C9    C     C_R   0.306829 0.537437 0.961464 -0.126543
C10   C     C_R   0.691464 0.542917 0.037667 -0.114054
C11   C     C_R   0.806829 0.037437 0.961464 -0.126543
C12   C     C_R   0.191464 0.042917 0.037667 -0.114054
C13   C     C_R   0.304357 0.526664 0.035528 -0.015100
C14   C     C_R   0.695253 0.528657 0.963946 -0.023387
C15   C     C_R   0.804357 0.026664 0.035528 -0.015100
C16   C     C_R   0.195252 0.028657 0.963946 -0.023387
C17   C     C_R   0.243371 0.570719 0.071335 0.036391
C18   C     C_R   0.757656 0.568133 0.928992 0.041275
C19   C     C_R   0.743371 0.070719 0.071335 0.036391
C20   C     C_R   0.257656 0.068133 0.928992 0.041275
C21   C     C_R   0.187844 0.625298 0.031931 -0.160619
C22   C     C_R   0.814186 0.618198 0.968928 -0.146581
C23   C     C_R   0.687844 0.125298 0.031931 -0.160619
C24   C     C_R   0.314186 0.118198 0.968928 -0.146581
C25   C     C_R   0.189871 0.630161 0.959192 -0.149871
C26   C     C_R   0.810481 0.627485 0.041314 -0.156745
C27   C     C_R   0.689871 0.130161 0.959192 -0.149871
C28   C     C_R   0.310481 0.127485 0.041314 -0.156745
C29   C     C_R   0.250364 0.591330 0.923494 0.012105
C30   C     C_R   0.748732 0.593164 0.076171 0.015382
C31   C     C_R   0.750364 0.091330 0.923494 0.012105
C32   C     C_R   0.248732 0.093164 0.076171 0.015382
C33   C     C_R   0.442093 0.757061 0.523934 -0.122129
C34   C     C_R   0.454781 0.759378 0.451664 -0.147787
C35   C     C_R   0.942093 0.257061 0.523934 -0.122129
C36   C     C_R   0.954781 0.259378 0.451664 -0.147788
C37   C     C_R   0.507711 0.835564 0.425883 0.022380
C38   C     C_R   0.483217 0.828674 0.570833 0.036453
C39   C     C_R   0.007711 0.335564 0.425883 0.022380
C40   C     C_R   0.983217 0.328674 0.570833 0.036453
C41   C     C_R   0.547632 0.909725 0.472631 -0.138850
C42   C     C_R   0.535262 0.906149 0.545169 -0.156385
C43   C     C_R   0.047632 0.409726 0.472631 -0.138850
C44   C     C_R   0.035262 0.406149 0.545169 -0.156385
C45   C     C_R   0.469730 0.821936 0.855855 0.544961
C46   C     C_R   0.531289 0.821271 0.143546 0.545948
C47   C     C_R   0.969730 0.321936 0.855855 0.544961
C48   C     C_R   0.031289 0.321271 0.143546 0.545948
C49   C     C_R   0.189747 0.645130 0.531940 -0.010530
C50   C     C_R   0.820941 0.582752 0.455182 -0.024848
C51   C     C_R   0.689747 0.145130 0.531940 -0.010530
C52   C     C_R   0.320941 0.082752 0.455182 -0.024848
C53   C     C_R   0.197652 0.654541 0.459888 -0.125171
C54   C     C_R   0.824591 0.583119 0.528300 -0.116461
C55   C     C_R   0.697652 0.154541 0.459888 -0.125171
C56   C     C_R   0.324591 0.083119 0.528300 -0.116461
C57   C     C_R   0.247185 0.582208 0.425625 -0.008480
C58   C     C_R   0.763803 0.560827 0.568509 0.007648
C59   C     C_R   0.747185 0.082208 0.425625 -0.008480
C60   C     C_R   0.263803 0.060827 0.568509 0.007648
C61   C     C_R   0.296782 0.513185 0.464782 -0.126374
C62   C     C_R   0.700017 0.528676 0.535391 -0.118557
C63   C     C_R   0.796782 0.013185 0.464782 -0.126374
C64   C     C_R   0.200017 0.028676 0.535391 -0.118557
C65   C     C_R   0.296218 0.514938 0.538643 -0.039942
C66   C     C_R   0.694829 0.526881 0.461849 -0.019002
C67   C     C_R   0.796218 0.014938 0.538643 -0.039942
C68   C     C_R   0.194829 0.026881 0.461849 -0.019002
C69   C     C_R   0.244789 0.587736 0.572879 0.047780
C70   C     C_R   0.753671 0.569232 0.421837 0.050749
C71   C     C_R   0.744789 0.087736 0.572879 0.047780
C72   C     C_R   0.253671 0.069232 0.421837 0.050749
C73   C     C_R   0.260402 0.635618 0.851478 0.543270
C74   C     C_R   0.739296 0.636518 0.148275 0.543757
C75   C     C_R   0.760402 0.135618 0.851478 0.543270
C76   C     C_R   0.239296 0.136518 0.148275 0.543757
C77   C     C_R   0.273543 0.040918 0.643534 0.545501
C78   C     C_R   0.729337 0.046596 0.353857 0.542024
C79   C     C_R   0.773543 0.540918 0.643534 0.545501
C80   C     C_R   0.229337 0.546596 0.353857 0.542024
C81   C     C_R   0.467452 0.822884 0.645649 0.541071
C82   C     C_R   0.530806 0.824019 0.353300 0.541459
C83   C     C_R   0.967452 0.322884 0.645649 0.541071
C84   C     C_R   0.030805 0.324019 0.353300 0.541459
C85   C     C_R   0.258511 0.634206 0.644270 0.545882
C86   C     C_R   0.741106 0.631570 0.354502 0.551212
C87   C     C_R   0.758511 0.134206 0.644270 0.545882
C88   C     C_R   0.241106 0.131570 0.354502 0.551212
C89   C     C_3   0.450094 0.895539 0.031855 -0.134930
C90   C     C_3   0.502593 0.945610 0.976230 -0.117966
C91   C     C_3   0.950094 0.395539 0.031855 -0.134930
C92   C     C_3   0.002593 0.445610 0.976230 -0.117966
C93   C     C_3   0.437163 0.781560 0.985269 -0.105777
C94   C     C_3   0.564622 0.877710 0.014090 -0.114294
C95   C     C_3   0.937163 0.281560 0.985269 -0.105777
C96   C     C_3   0.064622 0.377710 0.014090 -0.114294
C97   C     C_3   0.490291 0.830992 0.930868 0.054562
C98   C     C_3   0.511532 0.827691 0.068205 0.053298
C99   C     C_3   0.990291 0.330992 0.930868 0.054562
C100  C     C_3   0.011532 0.327691 0.068205 0.053298
Cr1   Cr    Cr6+3 0.229630 0.835900 0.747350 0.998584
Cr2   Cr    Cr6+3 0.770370 0.835900 0.252650 0.997546
Cr3   Cr    Cr6+3 0.729630 0.335900 0.747350 0.998584
Cr4   Cr    Cr6+3 0.270370 0.335900 0.252650 0.997546
Cr5   Cr    Cr6+3 0.387410 0.989850 0.750850 1.007524
Cr6   Cr    Cr6+3 0.612590 0.989850 0.249150 1.005913
Cr7   Cr    Cr6+3 0.887410 0.489850 0.750850 1.007524
Cr8   Cr    Cr6+3 0.112590 0.489850 0.249150 1.005913
Cr9   Cr    Cr6+3 0.385800 0.677120 0.749340 1.001451
Cr10  Cr    Cr6+3 0.614200 0.677120 0.250660 0.998870
Cr11  Cr    Cr6+3 0.885800 0.177120 0.749340 1.001451
Cr12  Cr    Cr6+3 0.114200 0.177120 0.250660 0.998870
H1    H     H_    0.383927 0.744326 0.971739 0.130977
H2    H     H_    0.617929 0.913833 0.028159 0.131717
H3    H     H_    0.883927 0.244326 0.971739 0.130977
H4    H     H_    0.117929 0.413833 0.028159 0.131717
H5    H     H_    0.158210 0.705931 0.429685 0.137433
H6    H     H_    0.876122 0.597483 0.553645 0.144787
H7    H     H_    0.658210 0.205931 0.429685 0.137433
H8    H     H_    0.376122 0.097483 0.553645 0.144787
H9    H     H_    0.333680 0.453424 0.437931 0.137456
H10   H     H_    0.654548 0.503767 0.566985 0.120726
H11   H     H_    0.833680 0.953424 0.437931 0.137456
H12   H     H_    0.154548 0.003767 0.566985 0.120726
H13   H     H_    0.408717 0.946584 0.060746 0.115584
H14   H     H_    0.504817 0.040400 0.955820 0.108100
H15   H     H_    0.908717 0.446584 0.060746 0.115584
H16   H     H_    0.004817 0.540400 0.955820 0.108100
H17   H     H_    0.594328 0.715302 0.939249 0.121416
H18   H     H_    0.498073 0.618691 0.042232 0.116707
H19   H     H_    0.094328 0.215302 0.939249 0.121416
H20   H     H_    0.998073 0.118691 0.042232 0.116707
H21   H     H_    0.354268 0.509284 0.933772 0.130590
H22   H     H_    0.643030 0.518368 0.064722 0.129852
H23   H     H_    0.854268 0.009284 0.933772 0.130590
H24   H     H_    0.143030 0.018368 0.064722 0.129852
H25   H     H_    0.139996 0.658980 0.056690 0.139366
H26   H     H_    0.863359 0.647178 0.944847 0.138319
H27   H     H_    0.639996 0.158980 0.056690 0.139366
H28   H     H_    0.363358 0.147178 0.944847 0.138319
H29   H     H_    0.144820 0.670190 0.931247 0.125964
H30   H     H_    0.855692 0.666120 0.069656 0.124560
H31   H     H_    0.644820 0.170190 0.931247 0.125964
H32   H     H_    0.355692 0.166120 0.069656 0.124560
H33   H     H_    0.400287 0.699008 0.543508 0.140978
H34   H     H_    0.424505 0.700546 0.416244 0.117928
H35   H     H_    0.900287 0.199008 0.543508 0.140978
H36   H     H_    0.924505 0.200546 0.416244 0.117928
H37   H     H_    0.590438 0.966005 0.453307 0.147481
H38   H     H_    0.567572 0.959299 0.581432 0.110586
H39   H     H_    0.090438 0.466006 0.453307 0.147481
H40   H     H_    0.067572 0.459298 0.581432 0.110586
O1    O     O_R   0.214270 0.709000 0.827470 -0.534042
O2    O     O_R   0.785730 0.709000 0.172530 -0.537100
O3    O     O_R   0.714270 0.209000 0.827470 -0.534042
O4    O     O_R   0.285730 0.209000 0.172530 -0.537100
O5    O     O_R   0.445950 0.919440 0.676520 -0.506219
O6    O     O_R   0.554050 0.919440 0.323480 -0.507506
O7    O     O_R   0.945950 0.419440 0.676520 -0.506219
O8    O     O_R   0.054050 0.419440 0.323480 -0.507506
O9    O     O_R   0.456730 0.717630 0.669840 -0.527175
O10   O     O_R   0.543270 0.717630 0.330160 -0.529428
O11   O     O_R   0.956730 0.217630 0.669840 -0.527175
O12   O     O_R   0.043270 0.217630 0.330160 -0.529428
O13   O     O_R   0.320620 0.625640 0.672920 -0.510507
O14   O     O_R   0.679380 0.625640 0.327080 -0.509699
O15   O     O_R   0.820620 0.125640 0.672920 -0.510507
O16   O     O_R   0.179380 0.125640 0.327080 -0.509699
O17   O     O_3   0.334280 0.834290 0.749180 -0.243705
O18   O     O_3   0.665720 0.834290 0.250820 -0.240037
O19   O     O_3   0.834280 0.334290 0.749180 -0.243705
O20   O     O_3   0.165720 0.334290 0.250820 -0.240037
O21   O     O_R   0.236160 0.958490 0.823130 -0.506914
O22   O     O_R   0.763840 0.958490 0.176870 -0.508006
O23   O     O_R   0.736160 0.458490 0.823130 -0.506914
O24   O     O_R   0.263840 0.458490 0.176870 -0.508006
O25   O     O_R   0.332080 0.075470 0.831280 -0.528085
O26   O     O_R   0.667920 0.075470 0.168720 -0.529455
O27   O     O_R   0.832080 0.575470 0.831280 -0.528085
O28   O     O_R   0.167920 0.575470 0.168720 -0.529455
O29   O     O_R   0.446300 0.918110 0.826620 -0.505502
O30   O     O_R   0.553700 0.918110 0.173380 -0.505195
O31   O     O_R   0.946300 0.418110 0.826620 -0.505502
O32   O     O_R   0.053700 0.418110 0.173380 -0.505195
O33   O     O_R   0.457110 0.716200 0.831760 -0.523566
O34   O     O_R   0.542890 0.716200 0.168240 -0.528243
O35   O     O_R   0.957110 0.216200 0.831760 -0.523566
O36   O     O_R   0.042890 0.216200 0.168240 -0.528243
O37   O     O_R   0.320980 0.624310 0.823030 -0.508366
O38   O     O_R   0.679020 0.624310 0.176970 -0.508553
O39   O     O_R   0.820980 0.124310 0.823030 -0.508366
O40   O     O_R   0.179020 0.124310 0.176970 -0.508553
O41   O     O_R   0.213890 0.710430 0.665540 -0.526895
O42   O     O_R   0.786110 0.710430 0.334460 -0.523764
O43   O     O_R   0.713890 0.210430 0.665540 -0.526895
O44   O     O_R   0.286110 0.210430 0.334460 -0.523764
O45   O     O_R   0.235810 0.959820 0.673020 -0.504778
O46   O     O_R   0.764190 0.959820 0.326980 -0.504748
O47   O     O_R   0.735810 0.459820 0.673020 -0.504778
O48   O     O_R   0.264190 0.459820 0.326980 -0.504748
O49   O     O_R   0.331700 0.076900 0.669350 -0.531111
O50   O     O_R   0.668300 0.076900 0.330650 -0.531385
O51   O     O_R   0.831700 0.576900 0.669350 -0.531111
O52   O     O_R   0.168300 0.576900 0.330650 -0.531385
C101  C     C_3   0.121301 0.696863 0.561445 -0.378132
H41   H     H_    0.076453 0.685841 0.522781 0.097879
H42   H     H_    0.105163 0.648723 0.610398 0.147491
H43   H     H_    0.127700 0.795249 0.572799 0.153931
C102  C     C_3   0.889093 0.601618 0.415131 -0.379468
H44   H     H_    0.934673 0.560717 0.444526 0.129244
H45   H     H_    0.886298 0.557033 0.362177 0.147098
H46   H     H_    0.899872 0.700529 0.409263 0.143867
C103  C     C_3   0.621301 0.196863 0.561445 -0.378132
H47   H     H_    0.576453 0.185841 0.522781 0.097879
H48   H     H_    0.605163 0.148723 0.610398 0.147491
H49   H     H_    0.627700 0.295249 0.572799 0.153931
C104  C     C_3   0.389093 0.101618 0.415131 -0.379468
H50   H     H_    0.434673 0.060717 0.444526 0.129244
H51   H     H_    0.386298 0.057033 0.362177 0.147098
H52   H     H_    0.399872 0.200529 0.409263 0.143867
C105  C     C_3   0.348231 0.434701 0.578858 -0.385049
H53   H     H_    0.321927 0.392264 0.625139 0.145704
H54   H     H_    0.367979 0.359490 0.544848 0.115927
H55   H     H_    0.394934 0.488641 0.597103 0.157123
C106  C     C_3   0.625827 0.482121 0.429147 -0.374124
H56   H     H_    0.589503 0.559991 0.419160 0.184410
H57   H     H_    0.635874 0.431196 0.379299 0.139832
H58   H     H_    0.598307 0.418267 0.465270 0.094090
C107  C     C_3   0.848231 0.934701 0.578858 -0.385049
H59   H     H_    0.821927 0.892264 0.625139 0.145704
H60   H     H_    0.867979 0.859490 0.544848 0.115927
H61   H     H_    0.894934 0.988641 0.597103 0.157123
C108  C     C_3   0.125827 0.982121 0.429147 -0.374124
H62   H     H_    0.089503 0.059992 0.419160 0.184410
H63   H     H_    0.135874 0.931196 0.379299 0.139832
H64   H     H_    0.098307 0.918267 0.465270 0.094090
C109  C     C_3   0.367799 0.472237 0.073976 -0.385319
H65   H     H_    0.353859 0.382647 0.096799 0.175106
H66   H     H_    0.412831 0.456184 0.037598 0.093591
H67   H     H_    0.386462 0.534923 0.116649 0.140128
C110  C     C_3   0.632238 0.473658 0.925006 -0.388622
H68   H     H_    0.645672 0.380938 0.906412 0.171626
H69   H     H_    0.585174 0.465742 0.959737 0.100139
H70   H     H_    0.616664 0.531119 0.878787 0.139764
C111  C     C_3   0.867799 0.972237 0.073976 -0.385319
H71   H     H_    0.853859 0.882647 0.096799 0.175106
H72   H     H_    0.912831 0.956184 0.037598 0.093591
H73   H     H_    0.886462 0.034923 0.116649 0.140128
C112  C     C_3   0.132238 0.973658 0.925006 -0.388622
H74   H     H_    0.145672 0.880938 0.906412 0.171626
H75   H     H_    0.085174 0.965742 0.959737 0.100139
H76   H     H_    0.116664 0.031119 0.878787 0.139764

loop_
_geom_bond_atom_site_label_1
_geom_bond_atom_site_label_2
_ccdc_geom_bond_type
Cr2   O18   S    
C49   C53   A    
C111  H72   S    
C58   C62   A    
C55   C59   A    
C63   H11   S    
C34   C37   A    
C56   H8    S    
C41   C42   A    
C14   C18   A    
Cr1   O21   S    
C35   C36   A    
C86   O14   A    
C21   H25   S    
C6    H18   S    
C45   O33   A    
C106  H58   S    
C65   C105  S    
C5    C94   S    
C94   H2    S    
C45   O29   A    
C7    C8    S    
Cr4   O24   S    
C55   H7    S    
C103  H47   S    
C24   H28   S    
C104  H52   S    
C15   C19   A    
C7    C96   S    
C1    O21   A    
C112  H74   S    
C50   C54   A    
C91   H15   S    
C37   C41   A    
C52   C72   A    
C12   H24   S    
C64   C68   A    
C23   H27   S    
Cr9   O17   S    
C106  H56   S    
C39   C84   S    
C48   O36   A    
C105  H55   S    
C83   O11   A    
C88   O44   A    
Cr2   O46   S    
C5    C6    S    
C30   C74   S    
C53   H5    S    
C101  H43   S    
C41   H37   S    
C94   C98   S    
C95   C99   S    
Cr12  O16   S    
C92   H16   S    
C92   C96   S    
C102  H46   S    
C47   C99   S    
Cr8   O28   S    
C3    C18   S    
C61   H9    S    
C110  H68   S    
C9    H21   S    
Cr1   O45   S    
Cr10  O18   S    
C9    C13   A    
Cr6   O30   S    
C3    O27   A    
C102  H45   S    
C74   O38   A    
C52   C56   A    
C11   C15   A    
C36   H36   S    
C87   O15   A    
C15   C111  S    
C50   C102  S    
C95   H3    S    
C88   O16   A    
C8    H20   S    
C27   H31   S    
Cr1   O17   S    
C28   H32   S    
C23   C27   A    
C91   C100  S    
C108  H62   S    
Cr2   O2    S    
C90   C97   S    
C7    H19   S    
C84   O12   A    
C111  H73   S    
C9    C29   A    
Cr6   O26   S    
Cr4   O20   S    
C51   C103  S    
C5    H17   S    
C46   C98   S    
C11   C31   A    
C105  H54   S    
C49   C69   A    
C109  H65   S    
C12   C32   A    
Cr3   O19   S    
Cr4   O48   S    
C57   C80   S    
C40   C83   S    
C8    C95   S    
C1    O25   A    
C4    O28   A    
C48   C100  S    
C75   O39   A    
Cr2   O42   S    
C59   C78   S    
Cr8   O32   S    
C72   C88   S    
C107  H59   S    
Cr1   O41   S    
C90   C94   S    
C26   H30   S    
C103  H48   S    
Cr10  O10   S    
C33   C34   A    
Cr12  O12   S    
C63   C67   A    
C60   C77   S    
C112  H75   S    
C81   O5    A    
C62   C66   A    
C27   C31   A    
C6    C98   S    
C12   C16   A    
Cr11  O39   S    
C28   C32   A    
Cr11  O11   S    
C47   O31   A    
C10   C14   A    
Cr9   O37   S    
C91   C92   S    
Cr3   O43   S    
C53   C57   A    
C89   H13   S    
C82   O10   A    
C51   C55   A    
C78   O50   A    
C104  H50   S    
Cr6   O6    S    
C91   C95   S    
Cr10  O38   S    
C17   C21   A    
C56   C60   A    
Cr7   O31   S    
C68   C72   A    
C110  H69   S    
C74   O2    A    
C7    C99   S    
C19   C23   A    
C43   C44   A    
Cr7   O51   S    
C105  H53   S    
C76   O40   A    
C11   H23   S    
Cr6   O50   S    
C14   C110  S    
Cr3   O47   S    
C42   H38   S    
Cr5   O49   S    
C45   C97   S    
Cr1   O1    S    
C16   C20   A    
C6    C93   S    
Cr5   O5    S    
Cr7   O7    S    
Cr3   O23   S    
C102  H44   S    
C52   C104  S    
C83   O7    A    
C35   H35   S    
C46   O34   A    
C108  H63   S    
Cr9   O13   S    
Cr12  O40   S    
C71   C87   S    
C4    C17   S    
C58   C79   S    
C101  H41   S    
Cr3   O3    S    
C49   C101  S    
C26   C30   A    
C79   O51   A    
C109  H66   S    
C38   C81   S    
C22   C26   A    
Cr5   O17   S    
C10   C30   A    
Cr4   O4    S    
Cr11  O15   S    
C47   O35   A    
C70   C86   S    
C93   C97   S    
C31   C75   S    
C62   H10   S    
C69   C85   S    
Cr5   O25   S    
C48   O32   A    
Cr12  O36   S    
C54   C58   A    
C103  H49   S    
C3    O23   A    
C59   C63   A    
C65   C69   A    
C21   C25   A    
Cr10  O34   S    
C112  H76   S    
C79   O47   A    
Cr7   O27   S    
C2    C19   S    
C18   C22   A    
C81   O9    A    
C36   C39   A    
C25   H29   S    
C24   C28   A    
C111  H71   S    
C1    C20   S    
C77   O49   A    
C32   C76   S    
C13   C109  S    
C16   C112  S    
C51   C71   A    
C57   C61   A    
C84   O8    A    
Cr8   O8    S    
Cr7   O19   S    
C90   H14   S    
Cr2   O22   S    
C2    O26   A    
C22   H26   S    
Cr11  O35   S    
C33   C38   A    
C44   H40   S    
C13   C17   A    
C89   C98   S    
C60   C64   A    
C110  H70   S    
Cr9   O33   S    
C46   O30   A    
C54   H6    S    
C35   C40   A    
C8    C100  S    
C85   O13   A    
Cr8   O52   S    
C64   H12   S    
C86   O42   A    
C25   C29   A    
Cr10  O14   S    
C85   O41   A    
Cr12  O20   S    
C43   H39   S    
Cr8   O20   S    
C82   O6    A    
C96   C100  S    
C66   C106  S    
C106  H57   S    
C76   O4    A    
C93   H1    S    
C67   C71   A    
C61   C65   A    
C89   C93   S    
C104  H51   S    
C37   C82   S    
C108  H64   S    
C73   O37   A    
C50   C70   A    
C4    O24   A    
C68   C108  S    
C87   O43   A    
C107  H61   S    
C38   C42   A    
C75   O3    A    
C5    C97   S    
C40   C44   A    
C10   H22   S    
C29   C73   S    
C66   C70   A    
C67   C107  S    
C107  H60   S    
Cr6   O18   S    
C109  H67   S    
C73   O1    A    
C34   H34   S    
C96   H4    S    
Cr9   O9    S    
C78   O46   A    
Cr5   O29   S    
C89   C90   S    
C80   O52   A    
C101  H42   S    
C77   O45   A    
C39   C43   A    
C20   C24   A    
C2    O22   A    
C33   H33   S    
C92   C99   S    
Cr4   O44   S    
Cr11  O19   S    
C80   O48   A    
