data_mof_unit_53978.cif
_audit_creation_date              2013-03-05T15:40:19-0500
_audit_creation_method            fapswitch 2.2
_symmetry_space_group_name_H-M    P1
_symmetry_Int_Tables_number       1
_space_group_crystal_system       triclinic
_cell_length_a                    11.394069
_cell_length_b                    11.382584
_cell_length_c                    18.850479
_cell_angle_alpha                 89.57648
_cell_angle_beta                  90.197212
_cell_angle_gamma                 120.102995
_cell_volume                      2114.99419087

loop_
_atom_site_label
_atom_site_type_symbol
_atom_site_description
_atom_site_fract_x
_atom_site_fract_y
_atom_site_fract_z
_atom_type_partial_charge
O1    O     O_R   0.434100 0.092480 0.829780 -0.466103
O2    O     O_R   0.907520 0.341620 0.829780 -0.463038
O3    O     O_R   0.658380 0.565900 0.829780 -0.467156
O4    O     O_R   0.092480 0.434100 0.170220 -0.467624
O5    O     O_R   0.341620 0.907520 0.170220 -0.461552
O6    O     O_R   0.565900 0.658380 0.170220 -0.463977
O7    O     O_R   0.477510 0.362730 0.824640 -0.488960
O8    O     O_R   0.637270 0.114780 0.824640 -0.492886
O9    O     O_R   0.885220 0.522490 0.824640 -0.493883
O10   O     O_R   0.362730 0.477510 0.175360 -0.490245
O11   O     O_R   0.114780 0.637270 0.175360 -0.489491
O12   O     O_R   0.522490 0.885220 0.175360 -0.494574
C1    C     C_R   0.544757 0.474870 0.854106 0.547185
C2    C     C_R   0.524941 0.069604 0.854082 0.543672
C3    C     C_R   0.930051 0.454904 0.854147 0.545490
C4    C     C_R   0.475053 0.544943 0.145907 0.548508
C5    C     C_R   0.069606 0.525043 0.145953 0.545605
C6    C     C_R   0.455002 0.930073 0.145822 0.545046
O13   O     O_R   0.432250 0.092620 0.670380 -0.450832
O14   O     O_R   0.907380 0.339630 0.670380 -0.452617
O15   O     O_R   0.660370 0.567750 0.670380 -0.454971
O16   O     O_R   0.092620 0.432250 0.329620 -0.453896
O17   O     O_R   0.339630 0.907380 0.329620 -0.449997
O18   O     O_R   0.567750 0.660370 0.329620 -0.456789
O19   O     O_R   0.475790 0.362860 0.676880 -0.468375
O20   O     O_R   0.637140 0.112930 0.676880 -0.490639
O21   O     O_R   0.887070 0.524210 0.676880 -0.483803
O22   O     O_R   0.362860 0.475790 0.323120 -0.474626
O23   O     O_R   0.112930 0.637140 0.323120 -0.479068
O24   O     O_R   0.524210 0.887070 0.323120 -0.495861
C7    C     C_R   0.546869 0.479182 0.646699 0.574010
C8    C     C_R   0.521296 0.068505 0.646690 0.554762
C9    C     C_R   0.940253 0.459152 0.650319 0.565624
C10   C     C_R   0.481352 0.540855 0.349670 0.578104
C11   C     C_R   0.068180 0.520951 0.353336 0.571844
C12   C     C_R   0.458797 0.939848 0.349685 0.564643
C13   C     C_2   0.012501 0.508407 0.583550 -0.103931
C14   C     C_2   0.519531 0.495346 0.572547 -0.113307
C15   C     C_2   0.506521 0.026633 0.572559 -0.127501
C16   C     C_2   0.507094 0.010562 0.416620 -0.099682
C17   C     C_2   0.504741 0.491643 0.416477 -0.075172
C18   C     C_2   0.025487 0.505349 0.427483 -0.110925
C19   C     C_2   0.035636 0.414366 0.470820 0.131833
C20   C     C_2   0.621183 0.567869 0.451825 0.147003
C21   C     C_2   0.431921 0.052071 0.451666 0.151065
C22   C     C_2   0.414011 0.034267 0.529574 0.134613
C23   C     C_2   0.621056 0.586444 0.529522 0.128344
C24   C     C_2   0.053605 0.432833 0.548617 0.146757
Cr1   Cr    Cr6+3 0.464030 0.233680 0.750360 1.174676
Cr2   Cr    Cr6+3 0.766320 0.230350 0.750360 1.159303
Cr3   Cr    Cr6+3 0.769650 0.535970 0.750360 1.163801
Cr4   Cr    Cr6+3 0.233680 0.464030 0.249640 1.174741
Cr5   Cr    Cr6+3 0.230350 0.766320 0.249640 1.172258
Cr6   Cr    Cr6+3 0.535970 0.769650 0.249640 1.159608
H1    H     H_    0.020520 0.591022 0.448161 0.126858
H2    H     H_    0.413107 0.416433 0.442548 0.139268
H3    H     H_    0.580338 0.991536 0.443018 0.111342
H4    H     H_    0.593439 0.024414 0.551461 0.115325
H5    H     H_    0.428547 0.410116 0.551643 0.142565
H6    H     H_    0.995088 0.582756 0.557111 0.132417
O25   O     O_3   0.666667 0.333333 0.749450 -0.334154
O26   O     O_3   0.333333 0.666667 0.250550 -0.335596
C25   C     C_2   0.003101 0.508052 0.920830 0.251682
C26   C     C_2   0.491577 0.494556 0.920735 0.253116
C27   C     C_2   0.505151 0.996076 0.920804 0.252284
C28   C     C_2   0.508326 0.003018 0.078958 0.251469
C29   C     C_2   0.495064 0.491588 0.079467 0.251800
C30   C     C_2   0.996352 0.505239 0.079287 0.252137
C31   C     C_2   0.022254 0.613410 0.036949 0.171860
C32   C     C_2   0.386953 0.408495 0.037665 0.170804
C33   C     C_2   0.590844 0.977362 0.037435 0.172690
C34   C     C_2   0.613277 0.021931 0.962762 0.172843
C35   C     C_2   0.408989 0.386311 0.962982 0.170437
C36   C     C_2   0.977856 0.590951 0.962287 0.172706
N1    N     N_R   0.030220 0.294912 0.442153 0.148701
O27   O     O_R   0.919519 0.202000 0.412231 -0.269747
O28   O     O_R   0.136911 0.281193 0.443786 -0.230512
N2    N     N_R   0.745859 0.646849 0.412774 0.120031
O29   O     O_R   0.779055 0.589230 0.363563 -0.330383
O30   O     O_R   0.815635 0.778304 0.419104 -0.190000
N3    N     N_R   0.353492 0.098210 0.412311 0.119563
O31   O     O_R   0.222379 0.037735 0.419748 -0.174043
O32   O     O_R   0.410631 0.186782 0.361370 -0.332654
N4    N     N_R   0.293596 0.026213 0.558713 0.149565
O33   O     O_R   0.202328 0.914538 0.589128 -0.261571
O34   O     O_R   0.278053 0.131939 0.557660 -0.226196
N5    N     N_R   0.734892 0.706246 0.558472 0.149833
O35   O     O_R   0.716473 0.798388 0.588434 -0.270204
O36   O     O_R   0.855654 0.720749 0.557336 -0.240231
N6    N     N_R   0.099697 0.354430 0.588123 0.123712
O37   O     O_R   0.038479 0.223013 0.581779 -0.178083
O38   O     O_R   0.190477 0.412457 0.637623 -0.335356
N7    N     N_R   0.077246 0.749414 0.064160 0.088956
O39   O     O_R   0.160218 0.852417 0.025321 -0.174762
O40   O     O_R   0.016970 0.771757 0.116471 -0.288310
N8    N     N_R   0.251004 0.327512 0.065436 0.088963
O41   O     O_R   0.148230 0.307817 0.026817 -0.176659
O42   O     O_R   0.228320 0.244712 0.118320 -0.288203
N9    N     N_R   0.671214 0.921884 0.065443 0.089689
O43   O     O_R   0.689020 0.837301 0.027571 -0.177642
O44   O     O_R   0.755345 0.982919 0.117293 -0.291708
N10   N     N_R   0.749288 0.077569 0.935236 0.089757
O45   O     O_R   0.851823 0.161705 0.973514 -0.176818
O46   O     O_R   0.772285 0.017049 0.883358 -0.291856
N11   N     N_R   0.327443 0.250453 0.935548 0.088853
O47   O     O_R   0.306398 0.147143 0.974483 -0.174573
O48   O     O_R   0.245236 0.228625 0.882781 -0.289385
N12   N     N_R   0.922540 0.671496 0.934198 0.089757
O49   O     O_R   0.838240 0.689597 0.972242 -0.177142
O50   O     O_R   0.983374 0.755457 0.881889 -0.292191
O51   O     O_3   0.909972 0.375194 0.055022 -0.519274
C37   C     C_3   0.826905 0.291343 0.110462 -0.025559
H7    H     H_    0.729688 0.220599 0.086817 0.146908
H8    H     H_    0.805061 0.345669 0.152749 0.042350
H9    H     H_    0.871665 0.233398 0.134162 0.236217
O52   O     O_3   0.625077 0.535483 0.055039 -0.520651
C38   C     C_3   0.708559 0.536195 0.110587 -0.021906
H10   H     H_    0.778771 0.508807 0.087374 0.145500
H11   H     H_    0.653918 0.460337 0.153561 0.049713
H12   H     H_    0.766881 0.639248 0.133403 0.240901
O53   O     O_3   0.465138 0.089520 0.053920 -0.520029
C39   C     C_3   0.467816 0.174665 0.108578 -0.025735
H13   H     H_    0.499285 0.273155 0.084249 0.145430
H14   H     H_    0.542295 0.193672 0.151759 0.045231
H15   H     H_    0.365110 0.132977 0.131584 0.240641
O54   O     O_3   0.375277 0.909173 0.945415 -0.519485
C40   C     C_3   0.292265 0.825506 0.890311 -0.027949
H16   H     H_    0.347252 0.805384 0.847618 0.036762
H17   H     H_    0.232927 0.868930 0.866934 0.236553
H18   H     H_    0.223285 0.727460 0.914247 0.147168
O55   O     O_3   0.535631 0.624592 0.944956 -0.518130
C41   C     C_3   0.535716 0.708263 0.889467 -0.025661
H19   H     H_    0.508924 0.778606 0.912991 0.147715
H20   H     H_    0.459295 0.653687 0.847063 0.040441
H21   H     H_    0.638351 0.766634 0.865897 0.236167
O56   O     O_3   0.089443 0.464611 0.945755 -0.520406
C42   C     C_3   0.172872 0.464818 0.890668 -0.021952
H22   H     H_    0.270791 0.493433 0.914360 0.146359
H23   H     H_    0.193519 0.540218 0.847488 0.043380
H24   H     H_    0.128818 0.361805 0.867957 0.241287

loop_
_geom_bond_atom_site_label_1
_geom_bond_atom_site_label_2
_geom_bond_distance
_ccdc_geom_bond_type
O19   C7    1.284157 A    
N5    O35   1.301313 A    
O20   C8    1.285049 A    
N7    O39   1.297922 A    
O51   C37   1.408845 S    
O9    Cr3   1.976092 S    
C29   O52   1.383838 S    
O10   Cr4   1.982653 S    
C37   H8    1.114811 S    
N3    O31   1.301433 A    
C21   C22   1.481789 S    
O21   C9    1.274347 A    
O16   C11   1.259505 A    
O24   Cr6   1.982722 S    
O54   C40   1.408857 S    
O23   Cr5   1.969750 S    
O4    Cr4   2.094495 S    
O5    Cr5   2.089339 S    
N4    O34   1.301310 A    
C31   N7    1.445252 S    
O20   Cr2   1.977716 S    
N2    O30   1.301499 A    
O18   Cr6   2.090875 S    
N12   O49   1.297989 A    
C8    C15   1.461494 S    
C11   C18   1.461537 S    
O14   Cr2   2.094529 S    
O2    Cr2   2.097919 S    
N6    O38   1.301521 A    
N9    O43   1.298008 A    
C41   H19   1.087329 S    
N8    O42   1.300917 A    
C26   C35   1.365804 D    
C19   C24   1.481909 S    
O3    C1    1.269409 A    
C20   C23   1.481452 S    
N11   O48   1.300883 A    
O22   C10   1.272634 A    
N7    O40   1.300884 A    
C24   N6    1.443766 S    
C36   N12   1.445086 S    
C10   C17   1.451796 S    
O6    Cr6   2.103938 S    
O13   C8    1.260346 A    
C37   H7    1.086858 S    
N3    O32   1.301531 A    
O21   Cr3   1.980305 S    
O17   Cr5   2.102111 S    
C19   N1    1.439124 S    
C16   C21   1.344526 D    
C42   H24   1.107093 S    
Cr1   O25   1.997660 S    
C12   C16   1.452123 S    
N4    O33   1.301275 A    
O7    Cr1   1.986085 S    
C38   H12   1.107293 S    
O3    Cr3   2.102050 S    
N2    O29   1.301543 A    
C30   C31   1.364795 D    
O5    C6    1.271238 A    
Cr6   O26   1.997567 S    
C15   H4    1.080538 S    
C33   N9    1.444968 S    
C9    C13   1.452540 S    
C30   O51   1.383668 S    
C23   N5    1.439316 S    
C32   N8    1.445455 S    
N1    O27   1.301305 A    
C40   H17   1.107041 S    
C17   H2    1.079451 S    
C18   H1    1.080397 S    
O15   C7    1.258150 A    
Cr5   O26   1.999634 S    
O13   Cr1   2.104999 S    
C35   N11   1.445453 S    
C28   C33   1.365945 D    
C26   O55   1.383611 S    
N8    O41   1.297969 A    
C32   C35   1.476499 S    
O53   C39   1.409490 S    
C28   O53   1.382724 S    
C31   C36   1.474041 S    
C4    C29   1.463394 S    
C13   C24   1.344471 D    
N10   O46   1.300905 A    
O2    C3    1.271017 A    
N1    O28   1.301234 A    
C14   C23   1.364534 D    
C15   C22   1.363866 D    
C22   N4    1.439033 S    
O4    C5    1.269468 A    
N9    O44   1.300921 A    
N5    O36   1.301267 A    
C17   C20   1.343436 D    
C18   C19   1.363904 D    
O14   C9    1.271370 A    
C39   H14   1.115001 S    
C40   H16   1.114813 S    
O8    Cr2   1.974795 S    
O15   Cr3   2.094068 S    
O16   Cr4   2.100606 S    
N11   O47   1.297911 A    
O11   C5    1.246194 A    
C5    C30   1.461157 S    
O8    C2    1.245398 A    
C16   H3    1.080674 S    
C42   H23   1.114859 S    
C21   N3    1.444010 S    
O56   C42   1.409433 S    
O11   Cr5   1.982354 S    
C25   C36   1.366955 D    
C6    C28   1.459789 S    
C27   C34   1.364921 D    
C42   H22   1.088347 S    
O23   C11   1.283718 A    
C7    C14   1.461304 S    
O24   C12   1.274099 A    
C29   C32   1.366933 D    
C25   O56   1.383632 S    
C39   H15   1.107303 S    
C38   H11   1.115031 S    
O9    C3    1.244207 A    
C40   H18   1.087175 S    
C33   C34   1.471727 S    
Cr4   O26   1.995739 S    
C38   H10   1.087775 S    
C27   O54   1.383152 S    
Cr3   O25   1.995690 S    
O22   Cr4   1.973329 S    
N6    O37   1.301484 A    
C1    C26   1.463045 S    
C34   N10   1.445026 S    
C41   H21   1.107354 S    
C20   N2    1.443762 S    
C2    C27   1.459562 S    
N12   O50   1.300913 A    
O52   C38   1.409541 S    
N10   O45   1.297992 A    
O19   Cr1   1.967780 S    
C13   H6    1.079575 S    
O6    C4    1.270236 A    
C14   H5    1.079408 S    
O7    C1    1.245550 A    
C41   H20   1.114902 S    
O17   C12   1.272172 A    
O12   C6    1.244449 A    
Cr2   O25   1.999590 S    
C3    C25   1.462115 S    
O18   C10   1.270510 A    
O10   C4    1.244394 A    
O1    C2    1.270555 A    
C39   H13   1.089028 S    
O1    Cr1   2.087801 S    
C37   H9    1.107345 S    
O12   Cr6   1.971968 S    
O55   C41   1.409081 S    
