data_mof_unit_58849.cif
_audit_creation_date              2012-12-10T18:33:37-0500
_audit_creation_method            fapswitch 2.2
_symmetry_space_group_name_H-M    P1
_symmetry_Int_Tables_number       1
_space_group_crystal_system       triclinic
_cell_length_a                    10.515174
_cell_length_b                    15.009096
_cell_length_c                    15.468802
_cell_angle_alpha                 82.342193
_cell_angle_beta                  89.835162
_cell_angle_gamma                 104.644355
_cell_volume                      2339.25852464

loop_
_atom_site_label
_atom_site_type_symbol
_atom_type_description
_atom_site_fract_x
_atom_site_fract_y
_atom_site_fract_z
_atom_type_partial_charge
C1    C     C_R   0.477939 0.441864 0.662177 0.868075
C2    C     C_R   0.515310 0.557963 0.337821 0.879948
C3    C     C_R   0.442156 0.471594 0.810868 -0.231083
C4    C     C_R   0.470530 0.524874 0.188996 -0.254751
C5    C     C_R   0.404223 0.443559 0.898689 0.089917
C6    C     C_R   0.437802 0.548336 0.103337 0.086652
C7    C     C_R   0.375164 0.347429 0.931053 0.175676
C8    C     C_R   0.449784 0.643263 0.071966 0.179999
C9    C     C_R   0.405298 0.509605 0.956194 0.068637
C10   C     C_R   0.402413 0.480095 0.046806 0.070873
C11   C     C_R   0.366183 0.383577 0.077654 -0.224993
C12   C     C_R   0.412073 0.604223 0.926413 -0.223841
C13   C     C_R   0.350232 0.318275 0.020146 -0.232026
C14   C     C_R   0.431284 0.669628 0.984073 -0.237940
C15   C     C_R   0.693236 0.841905 0.638796 -0.271425
C16   C     C_R   0.308600 0.158678 0.359949 -0.271991
C17   C     C_R   0.661269 0.753069 0.615765 -0.005925
C18   C     C_R   0.339779 0.247277 0.383563 -0.004434
C19   C     C_R   0.515340 0.794056 0.510208 -0.008645
C20   C     C_R   0.484489 0.205859 0.489804 -0.007661
C21   C     C_R   0.542576 0.885762 0.530764 -0.038928
C22   C     C_R   0.458412 0.114507 0.468440 -0.038935
C23   C     C_R   0.742461 0.500931 0.500407 0.935393
C24   C     C_R   0.257556 0.499059 0.499619 0.930997
C25   C     C_R   0.634464 0.909138 0.596532 0.050875
C26   C     C_R   0.367274 0.091377 0.402207 0.053026
C27   C     C_R   0.483093 0.954283 0.488061 0.005800
C28   C     C_R   0.518335 0.046098 0.510822 0.005263
C29   C     C_R   0.612330 0.066726 0.575168 -0.313338
C30   C     C_R   0.389897 0.933888 0.423188 -0.313395
C31   C     C_R   0.666840 0.999099 0.619268 0.531484
C32   C     C_R   0.335709 0.001635 0.378931 0.532384
C33   C     C_3   0.931560 0.430064 0.560209 -0.306055
C34   C     C_3   0.068533 0.569911 0.439867 -0.305523
C35   C     C_3   0.046316 0.511054 0.577603 0.504161
C36   C     C_3   0.953791 0.488919 0.422475 0.504149
C37   C     C_3   0.122179 0.497779 0.498619 -0.080358
C38   C     C_3   0.877887 0.502197 0.501450 -0.083105
C39   C     C_3   0.008753 0.416475 0.479276 -0.256986
C40   C     C_3   0.991343 0.583503 0.520802 -0.258836
C41   C     C_R   0.445273 0.406980 0.754435 -0.049300
C42   C     C_R   0.502242 0.591161 0.245883 -0.050842
C43   C     C_R   0.375103 0.282065 0.874045 -0.201524
C44   C     C_R   0.482621 0.710514 0.128798 -0.204038
C45   C     C_R   0.409544 0.311728 0.785837 -0.192688
C46   C     C_R   0.507314 0.684371 0.215882 -0.198531
H1    H     H_    0.549763 0.230073 0.539849 0.120259
H2    H     H_    0.448984 0.769462 0.460839 0.120634
H3    H     H_    0.295457 0.299779 0.351196 0.128057
H4    H     H_    0.705930 0.700684 0.647966 0.132584
H5    H     H_    0.763385 0.857493 0.689267 0.190538
H6    H     H_    0.239258 0.143363 0.308972 0.188285
H7    H     H_    0.647402 0.135239 0.593184 0.155695
H8    H     H_    0.355604 0.865573 0.404610 0.155073
H9    H     H_    0.872842 0.374958 0.610251 0.160052
H10   H     H_    0.127309 0.624985 0.389818 0.161606
H11   H     H_    0.019235 0.349689 0.460649 0.172465
H12   H     H_    0.980886 0.650296 0.539427 0.172204
H13   H     H_    0.324372 0.244945 0.045899 0.143552
H14   H     H_    0.437069 0.741599 0.959134 0.143515
H15   H     H_    0.474973 0.454734 0.211973 0.167044
H16   H     H_    0.474958 0.544490 0.785972 0.161015
H17   H     H_    0.529793 0.736615 0.259451 0.155783
H18   H     H_    0.409484 0.260529 0.742668 0.157181
H19   H     H_    0.350940 0.208335 0.897995 0.134424
H20   H     H_    0.489604 0.783088 0.105827 0.131513
H21   H     H_    0.347146 0.356820 0.146071 0.142265
H22   H     H_    0.399813 0.629058 0.858970 0.158665
N1    N     N_R   0.574200 0.731700 0.552740 -0.099710
N2    N     N_R   0.425800 0.268300 0.447260 -0.098540
O1    O     O_R   0.462600 0.383110 0.605620 -0.626935
O2    O     O_R   0.537400 0.616890 0.394380 -0.626015
O3    O     O_R   0.510210 0.531900 0.639510 -0.620187
O4    O     O_R   0.489790 0.468100 0.360490 -0.617665
O5    O     O_R   0.662240 0.425610 0.483080 -0.594657
O6    O     O_R   0.337760 0.574390 0.516920 -0.597614
O7    O     O_R   0.709860 0.574400 0.516970 -0.633619
O8    O     O_R   0.290140 0.425600 0.483030 -0.635537
Zn1   Zn    Zn3+2 0.468210 0.400660 0.477370 0.959557
Zn2   Zn    Zn3+2 0.531790 0.599340 0.522630 0.957720
O9    O     O_3   0.101549 0.522205 0.658815 -0.758274
H23   H     H_    0.029840 0.529342 0.696903 0.323752
O10   O     O_3   0.898724 0.477737 0.341228 -0.755659
H24   H     H_    0.970558 0.470670 0.303202 0.325135
O11   O     O_3   0.760155 0.023417 0.680696 -0.604206
C47   C     C_3   0.694781 0.025945 0.759716 -0.346119
H25   H     H_    0.625026 0.957646 0.783359 0.156757
H26   H     H_    0.642492 0.082217 0.753087 0.162641
H27   H     H_    0.769125 0.040990 0.810087 0.202163
O12   O     O_3   0.243331 0.977611 0.316863 -0.603748
C48   C     C_3   0.309760 0.974895 0.238302 -0.349516
H28   H     H_    0.361308 0.918210 0.245334 0.162966
H29   H     H_    0.380335 0.042979 0.215116 0.158263
H30   H     H_    0.236206 0.960357 0.187374 0.200426

loop_
_geom_bond_atom_site_label_1
_geom_bond_atom_site_label_2
_ccdc_geom_bond_type
C18   N2    A    
C38   C40   S    
C17   N1    A    
C31   O11   S    
C34   C37   S    
C11   C13   A    
C44   H20   S    
O1    Zn1   S    
O9    H23   S    
C35   O9    S    
O11   C47   S    
C34   H10   S    
C12   H22   S    
C1    O1    A    
C29   H7    S    
C34   C40   S    
C28   C29   A    
C35   C37   S    
C47   H26   S    
O7    Zn2   S    
C36   O10   S    
C39   H11   S    
C42   C46   A    
C32   O12   S    
C44   C46   A    
C15   H5    S    
C9    C10   A    
C2    O4    A    
C21   C27   A    
C22   C28   A    
C27   C30   A    
C29   C31   A    
C20   N2    A    
C2    O2    A    
C11   H21   S    
C16   C26   A    
C40   H12   S    
O6    Zn2   S    
C4    C6    A    
C23   O5    A    
C48   H28   S    
C5    C7    A    
C47   H25   S    
C24   O6    A    
C6    C8    A    
C4    H15   S    
C5    C9    A    
C48   H29   S    
C30   H8    S    
O10   H24   S    
C43   H19   S    
C24   C37   S    
C33   H9    S    
C16   C18   A    
C33   C39   S    
C23   O7    A    
C43   C45   A    
C8    C44   A    
C13   H13   S    
C1    C41   S    
C12   C14   A    
C7    C43   A    
O4    Zn1   S    
C19   N1    A    
C3    H16   S    
C24   O8    A    
C15   C17   A    
C21   C25   A    
C3    C41   A    
C8    C14   A    
C19   C21   A    
N2    Zn1   S    
C19   H2    S    
C25   C31   A    
C36   C39   S    
C16   H6    S    
C20   C22   A    
C3    C5    A    
C47   H27   S    
C17   H4    S    
C6    C10   A    
C26   C32   A    
C23   C38   S    
C14   H14   S    
C45   H18   S    
C33   C38   S    
C46   H17   S    
C1    O3    A    
C36   C38   S    
C35   C40   S    
C37   C39   S    
C48   H30   S    
C30   C32   A    
O8    Zn1   S    
O12   C48   S    
C4    C42   A    
C2    C42   S    
C33   C35   S    
O3    Zn2   S    
C34   C36   S    
C9    C12   A    
C20   H1    S    
C15   C25   A    
C10   C11   A    
C7    C13   A    
O2    Zn2   S    
C22   C26   A    
C27   C28   A    
C41   C45   A    
N1    Zn2   S    
O5    Zn1   S    
C18   H3    S    
