data_mof_unit_59224.cif
_audit_creation_date              2013-03-05T15:39:27-0500
_audit_creation_method            fapswitch 2.2
_symmetry_space_group_name_H-M    P1
_symmetry_Int_Tables_number       1
_space_group_crystal_system       triclinic
_cell_length_a                    10.881946
_cell_length_b                    10.862594
_cell_length_c                    10.88426
_cell_angle_alpha                 80.897267
_cell_angle_beta                  98.561959
_cell_angle_gamma                 89.912481
_cell_volume                      1255.81128584

loop_
_atom_site_label
_atom_site_type_symbol
_atom_site_description
_atom_site_fract_x
_atom_site_fract_y
_atom_site_fract_z
_atom_type_partial_charge
Zn1   Zn    Zn3+2 0.396020 0.396030 0.603970 1.052334
Zn2   Zn    Zn3+2 0.618560 0.587010 0.606350 1.020725
Zn3   Zn    Zn3+2 0.396030 0.620930 0.379070 1.046704
Zn4   Zn    Zn3+2 0.589390 0.396030 0.410610 1.038368
O1    O     O_3   0.500000 0.500000 0.500000 -0.529246
O2    O     O_R   0.767360 0.410530 0.454140 -0.635316
O3    O     O_R   0.222430 0.443930 0.556060 -0.595320
O4    O     O_R   0.597340 0.544190 0.781580 -0.641288
O5    O     O_R   0.412870 0.601350 0.208220 -0.652686
O6    O     O_R   0.597340 0.765700 0.560080 -0.654970
O7    O     O_R   0.548200 0.222430 0.451790 -0.621486
O8    O     O_R   0.441590 0.789440 0.401000 -0.606328
O9    O     O_R   0.412860 0.222430 0.587130 -0.605756
O10   O     O_R   0.441590 0.410520 0.779910 -0.603972
O11   O     O_R   0.548210 0.443940 0.230290 -0.591009
O12   O     O_R   0.787780 0.544200 0.591150 -0.641117
O13   O     O_R   0.222430 0.601350 0.398650 -0.595821
C1    C     C_R   0.834354 0.471892 0.528031 0.824578
C2    C     C_R   0.163967 0.528691 0.473411 0.850643
C3    C     C_R   0.524287 0.472984 0.838287 0.867161
C4    C     C_R   0.475855 0.526872 0.160039 0.836589
C5    C     C_R   0.524029 0.834625 0.474642 0.841720
C6    C     C_R   0.477887 0.164139 0.524294 0.815253
C7    C     C_2   0.475171 0.028472 0.537868 0.055423
C8    C     C_2   0.531543 0.968285 0.460987 0.201784
C9    C     C_2   0.028206 0.537923 0.460657 0.022078
C10   C     C_2   0.967668 0.459364 0.539967 0.225022
C11   C     C_2   0.459567 0.529199 0.023631 0.146345
C12   C     C_2   0.540050 0.465080 0.972600 0.085662
N1    N     N_R   0.415869 0.961369 0.637150 0.165941
O14   O     O_R   0.436061 0.991715 0.749227 -0.413804
O15   O     O_R   0.330017 0.881934 0.611925 -0.442035
O16   O     O_3   0.572978 0.033172 0.354366 -0.622046
C13   C     C_3   0.695097 0.993834 0.345147 0.154624
H1    H     H_    0.711246 0.025933 0.246890 0.198253
H2    H     H_    0.708170 0.890563 0.361238 0.123334
C14   C     C_3   0.791893 0.053643 0.433539 -0.419000
H3    H     H_    0.784318 0.156731 0.406913 0.266240
H4    H     H_    0.774062 0.028656 0.532150 0.207919
C15   C     C_3   0.923595 0.010003 0.426591 -0.808908
H5    H     H_    0.934703 0.908023 0.459869 0.296350
H6    H     H_    0.991539 0.058249 0.487977 0.249233
H7    H     H_    0.943827 0.031621 0.328508 0.282806
N2    N     N_R   0.962617 0.630605 0.362317 0.173533
O17   O     O_R   0.011909 0.738114 0.332052 -0.378539
O18   O     O_R   0.859968 0.604516 0.294747 -0.358828
O19   O     O_3   0.032829 0.383525 0.645301 -0.611419
C16   C     C_3   0.979626 0.264755 0.669840 0.068448
H8    H     H_    0.056968 0.194104 0.694269 0.188013
H9    H     H_    0.919216 0.238073 0.586764 0.120172
C17   C     C_3   0.909331 0.257455 0.782658 -0.322979
H10   H     H_    0.975661 0.269589 0.867730 0.257445
H11   H     H_    0.837344 0.333237 0.765592 0.229688
C18   C     C_3   0.846224 0.132445 0.807019 -0.889074
H12   H     H_    0.773724 0.122363 0.726123 0.244238
H13   H     H_    0.801094 0.127649 0.892599 0.304937
H14   H     H_    0.915531 0.054308 0.821786 0.260680
O20   O     O_3   0.349924 0.578797 0.950326 -0.650382
C19   C     C_3   0.348656 0.710659 0.933987 0.126284
H15   H     H_    0.366380 0.745741 0.837016 0.215311
H16   H     H_    0.420511 0.750655 0.999927 0.143491
C20   C     C_3   0.219956 0.756995 0.949786 -0.292582
H17   H     H_    0.147876 0.719590 0.882787 0.242547
H18   H     H_    0.202317 0.721899 0.047052 0.255574
C21   C     C_3   0.208832 0.899136 0.926200 -0.833813
H19   H     H_    0.282498 0.939255 0.989180 0.280609
H20   H     H_    0.116796 0.928734 0.945402 0.253638
H21   H     H_    0.216451 0.935873 0.826564 0.304715
N3    N     N_R   0.658460 0.417042 0.040292 0.202023
O21   O     O_R   0.699372 0.309072 0.024068 -0.408427
O22   O     O_R   0.736238 0.492015 0.091235 -0.320289

loop_
_geom_bond_atom_site_label_1
_geom_bond_atom_site_label_2
_geom_bond_distance
_ccdc_geom_bond_type
C10   O19   1.397568 S    
C6    C7    1.458438 S    
C15   H5    1.110195 S    
C14   H3    1.111152 S    
Zn3   O5    1.939932 S    
C11   O20   1.388884 S    
Zn1   O10   1.936664 S    
C13   C14   1.534697 S    
Zn2   O12   1.935711 S    
C13   H2    1.113218 S    
O19   C16   1.417845 S    
N1    O14   1.301024 A    
C21   H21   1.110007 S    
C15   H7    1.110921 S    
C17   C18   1.526114 S    
Zn4   O11   1.933357 S    
C15   H6    1.110229 S    
O16   C13   1.417800 S    
C9    N2    1.448455 S    
C19   H15   1.109043 S    
C14   H4    1.110544 S    
O4    C3    1.268111 A    
O6    C5    1.272296 A    
Zn4   O7    1.937218 S    
N1    O15   1.301446 A    
O5    C4    1.280190 A    
C9    C10   1.358424 D    
C20   H17   1.111993 S    
O3    C2    1.275713 A    
Zn1   O1    1.953764 S    
C16   H9    1.113676 S    
C16   H8    1.111242 S    
O13   C2    1.281512 A    
C4    C11   1.464964 S    
N2    O18   1.300474 A    
Zn3   O13   1.940652 S    
C14   C15   1.525114 S    
C12   N3    1.438429 S    
C3    C12   1.435104 S    
C21   H19   1.111044 S    
N3    O21   1.300870 A    
O2    C1    1.272449 A    
C18   H13   1.110171 S    
C19   H16   1.117082 S    
Zn2   O1    1.950117 S    
Zn1   O9    1.934301 S    
C1    C10   1.441403 S    
C7    N1    1.440600 S    
Zn4   O2    1.936820 S    
C17   H10   1.111588 S    
Zn2   O6    1.931133 S    
O8    C5    1.264864 A    
O11   C4    1.271521 A    
C7    C8    1.352296 D    
O9    C6    1.284197 A    
O10   C3    1.281389 A    
O12   C1    1.272380 A    
C13   H1    1.111019 S    
O7    C6    1.277613 A    
N3    O22   1.300886 A    
C2    C9    1.464912 S    
C18   H12   1.110688 S    
C11   C12   1.351316 D    
C19   C20   1.530128 S    
C20   H18   1.111750 S    
Zn3   O8    1.938846 S    
C20   C21   1.526206 S    
C17   H11   1.110012 S    
O20   C19   1.414951 S    
Zn1   O3    1.931013 S    
C18   H14   1.110788 S    
C16   C17   1.532433 S    
Zn2   O4    1.938565 S    
N2    O17   1.301101 A    
C21   H20   1.110281 S    
C8    O16   1.394555 S    
Zn4   O1    1.947940 S    
Zn3   O1    1.934702 S    
C5    C8    1.439608 S    
