data_mof_unit_35442.cif
_audit_creation_date              2012-12-11T17:37:45-0500
_audit_creation_method            fapswitch 2.2
_symmetry_space_group_name_H-M    P1
_symmetry_Int_Tables_number       1
_space_group_crystal_system       triclinic
_cell_length_a                    13.034936
_cell_length_b                    12.994173
_cell_length_c                    15.567768
_cell_angle_alpha                 116.896255
_cell_angle_beta                  64.001052
_cell_angle_gamma                 97.601761
_cell_volume                      2106.44840301

loop_
_atom_site_label
_atom_site_type_symbol
_atom_type_description
_atom_site_fract_x
_atom_site_fract_y
_atom_site_fract_z
_atom_type_partial_charge
C1    C     C_R   0.001554 0.833591 0.052293 -0.097045
C2    C     C_R   0.308700 0.577073 0.787879 -0.144287
C3    C     C_R   0.259409 0.417622 0.048114 -0.146661
C4    C     C_R   0.689046 0.429431 0.214011 -0.083420
C5    C     C_R   0.039645 0.279463 0.685706 -0.126077
C6    C     C_R   0.361201 0.438607 0.978847 0.138162
C7    C     C_R   0.020141 0.170847 0.680290 0.060853
C8    C     C_R   0.311298 0.531845 0.689256 0.117629
C9    C     C_R   0.020202 0.145971 0.029362 0.078396
C10   C     C_R   0.427956 0.744678 0.359908 -0.037845
C11   C     C_R   0.323508 0.811496 0.416080 -0.187613
C12   C     C_R   0.683664 0.478636 0.314945 0.107855
C13   C     C_R   0.273856 0.836619 0.362930 0.126625
C14   C     C_R   0.333827 0.793429 0.251233 -0.166799
C15   C     C_R   0.436751 0.723955 0.194877 -0.134875
C16   C     C_R   0.754201 0.521936 0.896219 -0.166946
C17   C     C_R   0.483767 0.699425 0.249193 -0.047420
C18   C     C_R   0.140351 0.003873 0.524959 -0.254692
C19   C     C_R   0.035588 0.071099 0.584811 0.056905
C20   C     C_R   0.951955 0.051250 0.547021 0.047443
C21   C     C_R   0.973509 0.961363 0.449201 -0.240735
C22   C     C_R   0.075349 0.891076 0.390736 0.055782
C23   C     C_R   0.660716 0.463415 0.930494 0.162273
C24   C     C_R   0.162562 0.910659 0.425549 0.039409
C25   C     C_R   0.751084 0.098329 0.687588 -0.343774
C26   C     C_R   0.638839 0.146715 0.730954 0.594662
C27   C     C_R   0.617703 0.216829 0.692716 -0.128490
C28   C     C_R   0.015176 0.701540 0.301660 -0.213962
C29   C     C_R   0.707300 0.241749 0.614936 -0.223475
C30   C     C_R   0.818283 0.193004 0.571498 -0.142070
C31   C     C_R   0.840465 0.120048 0.606828 0.111853
C32   C     C_R   0.901278 0.327016 0.365833 -0.325967
C33   C     C_R   0.786812 0.337000 0.385688 -0.202881
C34   C     C_R   0.078247 0.794114 0.298257 -0.093995
C35   C     C_R   0.715023 0.434077 0.473309 0.157927
C36   C     C_R   0.755434 0.514817 0.546397 -0.275292
C37   C     C_R   0.869985 0.505773 0.525597 -0.259063
C38   C     C_R   0.944565 0.415348 0.432435 0.651934
C39   C     C_R   0.508999 0.477581 0.576375 -0.272676
C40   C     C_R   0.675596 0.423880 0.992692 -0.122190
C41   C     C_R   0.406961 0.526571 0.598497 -0.003322
C42   C     C_R   0.393115 0.557605 0.529479 -0.082696
C43   C     C_R   0.478266 0.515400 0.426218 0.447537
C44   C     C_R   0.587089 0.479246 0.406849 -0.123901
C45   C     C_R   0.337770 0.519865 0.954855 -0.123145
C46   C     C_R   0.602720 0.461131 0.483437 0.010700
C47   C     C_R   0.200106 0.654292 0.590030 0.527212
C48   C     C_R   0.124993 0.755874 0.652085 -0.289127
C49   C     C_R   0.162840 0.862861 0.701154 -0.140541
C50   C     C_R   0.276251 0.870179 0.687399 -0.104671
C51   C     C_R   0.351722 0.770451 0.625106 -0.270112
C52   C     C_R   0.096476 0.799771 0.206734 0.484056
C53   C     C_R   0.314795 0.661554 0.576036 0.097604
C54   C     C_2   0.473419 0.400392 0.954134 -0.135805
C55   C     C_2   0.564899 0.445643 0.904533 -0.238377
C56   C     C_R   0.958740 0.178860 0.781233 -0.129704
C57   C     C_2   0.839911 0.959297 0.083329 -0.190471
C58   C     C_2   0.828883 0.045290 0.177045 -0.186611
C59   C     C_R   0.787081 0.523682 0.312256 -0.143744
C60   C     C_R   0.903477 0.748289 0.954314 -0.138581
C61   C     C_R   0.916123 0.853228 0.029176 0.107865
C62   C     C_3   0.110407 0.454351 0.320027 0.236796
C63   C     C_3   0.165035 0.568027 0.355062 -0.850536
C64   C     C_3   0.403111 0.393375 0.314034 0.283612
C65   C     C_3   0.403321 0.353584 0.205633 -0.978677
C66   C     C_R   0.210678 0.484433 0.689717 -0.144502
C67   C     C_R   0.058518 0.251441 0.079426 -0.118992
C68   C     C_R   0.958990 0.168196 0.984762 -0.132301
H1    H     H_    0.029604 0.897133 0.109742 0.158790
H2    H     H_    0.465788 0.728084 0.402329 0.134461
H3    H     H_    0.281380 0.843623 0.501248 0.141987
H4    H     H_    0.630230 0.375841 0.185564 0.130439
H5    H     H_    0.303904 0.814612 0.206645 0.146167
H6    H     H_    0.480984 0.690666 0.109065 0.125921
H7    H     H_    0.204700 0.026237 0.555553 0.135042
H8    H     H_    0.908471 0.943386 0.419391 0.139539
H9    H     H_    0.767988 0.040151 0.713250 0.114395
H10   H     H_    0.531500 0.252893 0.723995 0.136556
H11   H     H_    0.690086 0.296765 0.586647 0.156463
H12   H     H_    0.920751 0.109906 0.802422 0.087533
H13   H     H_    0.886231 0.208994 0.508037 0.133832
H14   H     H_    0.775513 0.550869 0.835666 0.099128
H15   H     H_    0.958068 0.255108 0.295210 0.141245
H16   H     H_    0.755947 0.273752 0.329660 0.155202
H17   H     H_    0.700612 0.589825 0.614916 0.145445
H18   H     H_    0.902025 0.573614 0.578053 0.120996
H19   H     H_    0.516518 0.456451 0.633504 0.139091
H20   H     H_    0.036731 0.751912 0.663351 0.115350
H21   H     H_    0.104434 0.940210 0.749228 0.131742
H22   H     H_    0.305658 0.953133 0.725424 0.146758
H23   H     H_    0.186856 0.443460 0.624693 0.160026
H24   H     H_    0.983572 0.673270 0.363552 0.138353
H25   H     H_    0.438677 0.777442 0.617720 0.144022
H26   H     H_    0.476920 0.352952 0.994858 0.154790
H27   H     H_    0.563076 0.488229 0.859293 0.125276
H28   H     H_    0.786427 0.965711 0.048398 0.132780
H29   H     H_    0.877112 0.043608 0.218237 0.136161
H30   H     H_    0.629276 0.361142 0.019278 0.093799
H31   H     H_    0.813718 0.564774 0.375988 0.120390
H32   H     H_    0.841727 0.731970 0.921721 0.096941
H33   H     H_    0.396649 0.562219 0.909565 0.087318
H34   H     H_    0.098932 0.267314 0.131007 0.074460
H35   H     H_    0.577324 0.075280 0.827353 0.302681
H36   H     H_    0.050559 0.464948 0.290045 0.070187
H37   H     H_    0.177341 0.386648 0.251764 0.115422
H38   H     H_    0.237049 0.557850 0.370592 0.302182
H39   H     H_    0.199727 0.595892 0.290575 0.221476
H40   H     H_    0.100888 0.636058 0.428594 0.240234
H41   H     H_    0.313171 0.403013 0.373667 0.185114
H42   H     H_    0.449881 0.322633 0.308169 0.073609
H43   H     H_    0.488058 0.312255 0.140608 0.230116
H44   H     H_    0.341974 0.286381 0.194847 0.227216
H45   H     H_    0.907357 0.108044 0.949350 0.088489
H46   H     H_    0.380333 0.427410 0.198162 0.274609
H47   H     H_    0.077581 0.556284 0.576425 0.328744
H48   H     H_    0.177351 0.938136 0.225610 0.306873
H49   H     H_    0.369685 0.630420 0.814514 0.102943
H50   H     H_    0.250493 0.361321 0.084003 0.095530
H51   H     H_    0.073910 0.302577 0.620497 0.109604
H52   H     H_    0.564053 0.646696 0.205736 0.129095
N1    N     N_R   0.037320 0.720000 0.995830 -0.039655
N2    N     N_R   0.824900 0.517970 0.936430 -0.042869
N3    N     N_R   0.003190 0.648180 0.211390 -0.066091
N4    N     N_R   0.774330 0.457010 0.995830 -0.049944
N5    N     N_R   0.053760 0.709130 0.151980 -0.070285
N6    N     N_R   0.853840 0.498830 0.211390 -0.045142
N7    N     N_R   0.974250 0.667320 0.936430 -0.044594
N8    N     N_R   0.225670 0.542990 0.004170 -0.042510
N9    N     N_R   0.946240 0.290870 0.848020 -0.038472
N10   N     N_R   0.146160 0.501170 0.788610 -0.047168
N11   N     N_R   0.025750 0.332680 0.063570 -0.040669
N12   N     N_R   0.962680 0.280000 0.004170 -0.041490
N13   N     N_R   0.209230 0.553860 0.848010 -0.039462
N14   N     N_R   0.175100 0.482030 0.063570 -0.047922
N15   N     N_R   0.996810 0.351820 0.788610 -0.039470
N16   N     N_R   0.790770 0.446140 0.151990 -0.056367
Ni1   Ni    Ni4+2 0.130310 0.630310 0.000000 0.257136
Ni2   Ni    Ni4+2 0.869690 0.369690 0.000000 0.202240
Ni3   Ni    Ni4+2 0.985660 0.509480 0.863750 0.216730
Ni4   Ni    Ni4+2 0.014340 0.490520 0.136250 0.195801
O1    O     O_3   0.548178 0.125046 0.808482 -0.783606
O2    O     O_3   0.060807 0.419107 0.402725 -0.635898
O3    O     O_3   0.453365 0.500461 0.343744 -0.649866
O4    O     O_3   0.162216 0.547925 0.545442 -0.789845
O5    O     O_3   0.161948 0.874250 0.167586 -0.804132

loop_
_geom_bond_atom_site_label_1
_geom_bond_atom_site_label_2
_ccdc_geom_bond_type
C25   C31   A    
C8    C66   A    
C52   O5    S    
C6    C45   A    
C27   C29   A    
C59   H31   S    
C65   H46   S    
C54   C55   D    
C43   O3    S    
C35   C36   A    
C39   H19   S    
N13   Ni1   S    
C43   C44   A    
C27   H10   S    
C57   C58   D    
C28   N3    A    
C39   C41   A    
C62   H37   S    
C59   N6    A    
N15   Ni3   S    
C21   H8    S    
N6    Ni4   S    
C26   C27   A    
C18   H7    S    
C5    H51   S    
C18   C24   A    
N4    Ni2   S    
C36   C37   A    
C37   C38   A    
C6    C54   S    
N2    Ni3   S    
N1    N7    A    
C42   C53   S    
C40   H30   S    
C30   C31   A    
C11   H3    S    
N3    N5    A    
C10   C17   A    
N12   Ni2   S    
C23   C40   A    
C15   C17   A    
C18   C19   A    
C41   C42   A    
N1    Ni1   S    
C68   N12   A    
C16   N2    A    
C65   H43   S    
N11   Ni4   S    
C17   H52   S    
N9    N15   A    
C12   C59   A    
C50   H22   S    
N9    Ni2   S    
C19   C20   A    
C57   H28   S    
C48   H20   S    
C32   C38   A    
C4    C12   A    
C26   O1    S    
C56   N9    A    
C68   H45   S    
C4    N16   A    
C3    C6    A    
C28   C34   A    
C13   C14   A    
C38   O2    S    
C58   H29   S    
N7    Ni3   S    
C7    C56   A    
C62   O2    S    
C22   C34   S    
N10   Ni3   S    
H35   O1    S    
C2    H49   S    
C44   C46   A    
C62   H36   S    
C40   N4    A    
C67   N11   A    
C2    N13   A    
C14   H5    S    
C37   H18   S    
C8    C41   S    
C55   H27   S    
C5    C7    A    
N5    Ni1   S    
C25   C26   A    
C47   O4    S    
C1    H1    S    
C13   C24   S    
C60   C61   A    
C51   C53   A    
N8    Ni1   S    
C9    C67   A    
C65   H44   S    
C62   C63   S    
C3    H50   S    
N8    N14   A    
C64   H42   S    
C47   C48   A    
C29   H11   S    
C16   H14   S    
C50   C51   A    
C28   H24   S    
C63   H38   S    
C57   C61   S    
C45   H33   S    
C51   H25   S    
C39   C46   A    
C10   H2    S    
N16   Ni2   S    
C48   C49   A    
C16   C23   A    
C7    C19   S    
C25   H9    S    
N10   N13   A    
C42   C43   A    
N2    N4    A    
N11   N12   A    
C4    H4    S    
C5    N15   A    
C32   H15   S    
H47   O4    S    
N6    N16   A    
C60   N7    A    
C2    C8    A    
C49   H21   S    
C60   H32   S    
C1    C61   A    
C52   N5    A    
C23   C55   S    
C66   H23   S    
C64   O3    S    
C36   H17   S    
C34   C52   A    
C56   H12   S    
C47   C53   A    
C3    N14   A    
C64   C65   S    
C30   H13   S    
C9    C68   A    
C12   C44   S    
C32   C33   A    
N14   Ni4   S    
C11   C13   A    
C64   H41   S    
H48   O5    S    
N3    Ni4   S    
C33   C35   A    
C22   C24   A    
C33   H16   S    
C1    N1    A    
C54   H26   S    
C10   C11   A    
C29   C30   A    
C15   H6    S    
C20   C21   A    
C49   C50   A    
C14   C15   A    
C45   N8    A    
C63   H40   S    
C21   C22   A    
C35   C46   S    
C63   H39   S    
C67   H34   S    
C66   N10   A    
C20   C31   S    
