data_mof_unit_44299.cif
_audit_creation_date              2012-12-10T18:42:35-0500
_audit_creation_method            fapswitch 2.2
_symmetry_space_group_name_H-M    P1
_symmetry_Int_Tables_number       1
_space_group_crystal_system       triclinic
_cell_length_a                    8.65195
_cell_length_b                    10.619188
_cell_length_c                    9.918084
_cell_angle_alpha                 91.455726
_cell_angle_beta                  98.568088
_cell_angle_gamma                 92.198938
_cell_volume                      899.960560402

loop_
_atom_site_label
_atom_site_type_symbol
_atom_type_description
_atom_site_fract_x
_atom_site_fract_y
_atom_site_fract_z
_atom_type_partial_charge
C1    C     C_R   0.500963 0.260517 0.498335 0.862029
C2    C     C_R   0.373767 0.064049 0.536841 -0.181027
C3    C     C_R   0.499658 0.872042 0.505845 -0.100959
C4    C     C_R   0.500874 0.127959 0.494208 -0.100747
C5    C     C_R   0.589982 0.587110 0.088282 0.480064
C6    C     C_R   0.410017 0.412890 0.911717 0.479917
C7    C     C_R   0.590960 0.587127 0.944105 0.274856
C8    C     C_R   0.409035 0.412875 0.055894 0.274572
C9    C     C_2   0.767141 0.132077 0.415064 0.897205
C10   C     C_2   0.233900 0.867749 0.585374 0.897931
C11   C     C_R   0.499350 0.739486 0.501701 0.860440
C12   C     C_R   0.201947 0.502181 0.464896 0.853738
C13   C     C_R   0.798054 0.497820 0.535103 0.853931
C14   C     C_2   0.039183 0.521407 0.450591 0.209514
C15   C     C_2   0.960815 0.478573 0.549396 0.209465
C16   C     C_R   0.628697 0.065407 0.456253 -0.021751
C17   C     C_R   0.371979 0.934591 0.543915 -0.020121
C18   C     C_R   0.626797 0.935917 0.463271 -0.179875
H1    H     H_    0.723178 0.884276 0.434144 0.187635
H2    H     H_    0.307700 0.344847 0.200116 0.397745
H3    H     H_    0.277357 0.115622 0.566010 0.186271
H4    H     H_    0.048772 0.626345 0.291917 0.359068
H5    H     H_    0.951216 0.373617 0.708052 0.358444
H6    H     H_    0.001643 0.159341 0.445010 0.352241
H7    H     H_    0.999889 0.837047 0.553029 0.352180
H8    H     H_    0.739060 0.731560 0.125686 0.382478
H9    H     H_    0.260950 0.268435 0.874314 0.382365
H10   H     H_    0.692310 0.655151 0.799892 0.397778
N1    N     N_R   0.499960 0.499970 0.857200 -0.188200
N2    N     N_R   0.500040 0.500030 0.142800 -0.188121
O1    O     O_R   0.499990 0.316750 0.614620 -0.565908
O2    O     O_3   0.030932 0.405593 0.653793 -0.726872
O3    O     O_2   0.751377 0.205892 0.321914 -0.581794
O4    O     O_R   0.916496 0.108261 0.481658 -0.754883
O5    O     O_2   0.249835 0.796600 0.680967 -0.580598
O6    O     O_R   0.084796 0.888061 0.515969 -0.754780
O7    O     O_3   0.679366 0.673137 0.176800 -0.664742
O8    O     O_3   0.320634 0.326863 0.823199 -0.664795
O9    O     O_3   0.685456 0.676858 0.895232 -0.745519
O10   O     O_3   0.314528 0.323150 0.104764 -0.745724
O11   O     O_R   0.500010 0.683250 0.385380 -0.565535
O12   O     O_R   0.499990 0.316780 0.385290 -0.598867
O13   O     O_R   0.500010 0.683220 0.614710 -0.599850
O14   O     O_R   0.271750 0.499990 0.587840 -0.503888
O15   O     O_R   0.728250 0.500010 0.412160 -0.502814
O16   O     O_R   0.271750 0.500010 0.358510 -0.676294
O17   O     O_R   0.728250 0.499990 0.641490 -0.676682
O18   O     O_3   0.969055 0.594355 0.346168 -0.726496
Zn1   Zn    Zn3+2 0.500000 0.499980 0.653120 1.053167
Zn2   Zn    Zn3+2 0.500000 0.500020 0.346880 1.053807

loop_
_geom_bond_atom_site_label_1
_geom_bond_atom_site_label_2
_ccdc_geom_bond_type
O14   Zn1   S    
C4    C16   A    
H4    O18   S    
H9    O8    S    
C6    O8    S    
H8    O7    S    
C11   O13   A    
C10   O5    D    
C7    N1    A    
C5    O7    S    
O16   Zn2   S    
C2    C4    A    
C1    C4    S    
C8    N2    A    
H5    O2    S    
C2    H3    S    
N2    Zn2   S    
C15   O2    S    
O17   Zn1   S    
N1    Zn1   S    
C2    C17   A    
C9    O3    D    
O15   Zn2   S    
O12   Zn2   S    
C14   O18   S    
C12   O16   A    
C9    C16   S    
O1    Zn1   S    
C3    C17   A    
C13   C15   S    
C9    O4    S    
H2    O10   S    
C3    C11   S    
C10   C17   S    
C1    O12   A    
C1    O1    A    
C6    N1    A    
C18   H1    S    
C13   O15   A    
C3    C18   A    
C16   C18   A    
C5    N2    A    
C12   O14   A    
C5    C7    A    
O11   Zn2   S    
C7    O9    S    
C14   C15   D    
O13   Zn1   S    
C6    C8    A    
C8    O10   S    
H10   O9    S    
H7    O6    S    
C13   O17   A    
H6    O4    S    
C11   O11   A    
C12   C14   S    
C10   O6    S    
