data_mof_unit_32025.cif
_audit_creation_date              2012-10-26T19:59:09-0400
_audit_creation_method            fapswitch 2.2
_symmetry_space_group_name_H-M    P1
_symmetry_Int_Tables_number       1
_space_group_crystal_system       triclinic
_cell_length_a                    7.533433
_cell_length_b                    8.731632
_cell_length_c                    15.79586
_cell_angle_alpha                 93.36003
_cell_angle_beta                  76.157147
_cell_angle_gamma                 102.388464
_cell_volume                      985.340387366

loop_
_atom_site_label
_atom_site_type_symbol
_atom_type_description
_atom_site_fract_x
_atom_site_fract_y
_atom_site_fract_z
_atom_type_partial_charge
C1    C     C_R   0.540616 0.798955 0.506882 0.552119
C2    C     C_R   0.613588 0.517070 0.334310 0.521904
C3    C     C_R   0.318997 0.444992 0.759476 -0.009789
C4    C     C_R   0.674656 0.533490 0.239006 -0.027981
C5    C     C_R   0.096984 0.288086 0.875909 -0.120833
C6    C     C_R   0.912072 0.583132 0.105050 -0.121839
C7    C     C_R   0.148609 0.341658 0.790151 -0.102736
C8    C     C_R   0.862967 0.574306 0.195849 -0.112943
C9    C     C_R   0.438261 0.490919 0.816228 -0.087911
C10   C     C_R   0.536851 0.509492 0.190677 -0.123442
C11   C     C_R   0.382330 0.441188 0.903661 0.013509
C12   C     C_R   0.458059 0.201252 0.495240 0.582326
C13   C     C_R   0.582099 0.499859 0.099743 0.011550
C14   C     C_R   0.205278 0.348469 0.934792 -0.043432
C15   C     C_R   0.774641 0.539167 0.056670 -0.014163
C16   C     C_R   0.508222 0.465741 0.957697 -0.027318
C17   C     C_R   0.444783 0.451508 0.049255 -0.015924
C18   C     C_3   0.149956 0.180281 0.188864 -0.010665
C19   C     C_3   0.950459 0.125972 0.241645 -0.376935
C20   C     C_3   0.630132 0.190199 0.888896 -0.009450
C21   C     C_3   0.667167 0.059617 0.823210 -0.399378
C22   C     C_3   0.812325 0.012993 0.582240 -0.013255
C23   C     C_R   0.256147 0.369560 0.081990 0.248424
C24   C     C_3   0.930206 0.150844 0.618378 -0.347100
C25   C     C_3   0.427501 0.968048 0.343441 -0.014234
C26   C     C_3   0.311183 0.860407 0.288659 -0.357963
C27   C     C_R   0.692982 0.453750 0.920734 0.248187
C28   C     C_R   0.142490 0.313141 0.023316 -0.132289
C29   C     C_R   0.828267 0.517322 0.966549 -0.123292
C30   C     C_2   0.551766 0.965974 0.520244 0.210445
C31   C     C_2   0.447074 0.035656 0.482903 0.231216
C32   C     C_R   0.385983 0.482768 0.665829 0.537222
Cu1   Cu    Cu3+1 0.322120 0.483240 0.490330 0.942964
Cu2   Cu    Cu3+1 0.677880 0.516760 0.509670 0.956727
H1    H     H_    0.002209 0.245993 0.047813 0.124336
H2    H     H_    0.996614 0.385805 0.431306 0.239406
H3    H     H_    0.247512 0.165856 0.229063 0.146550
H4    H     H_    0.174405 0.101732 0.130699 0.107190
H5    H     H_    0.849830 0.142520 0.203540 0.143444
H6    H     H_    0.925018 0.999769 0.257489 0.085820
H7    H     H_    0.926905 0.194512 0.303335 0.154641
H8    H     H_    0.476625 0.178758 0.904708 0.147614
H9    H     H_    0.668111 0.165625 0.949961 0.110955
H10   H     H_    0.818656 0.064318 0.798639 0.134887
H11   H     H_    0.603007 0.944289 0.854994 0.094217
H12   H     H_    0.973975 0.536011 0.933939 0.136939
H13   H     H_    0.600696 0.067251 0.768493 0.189350
H14   H     H_    0.892616 0.991084 0.515117 0.173820
H15   H     H_    0.790403 0.911003 0.625316 0.158366
H16   H     H_    0.843306 0.209023 0.671552 0.188638
H17   H     H_    0.042992 0.112150 0.640289 0.097512
H18   H     H_    0.993130 0.237880 0.567217 0.208539
H19   H     H_    0.564606 0.932072 0.332747 0.106730
H20   H     H_    0.450851 0.090856 0.321017 0.121733
H21   H     H_    0.383955 0.871618 0.218623 0.077752
H22   H     H_    0.289808 0.736806 0.308725 0.186057
H23   H     H_    0.394640 0.501765 0.225460 0.196564
H24   H     H_    0.172685 0.891878 0.297866 0.147081
H25   H     H_    0.575423 0.563981 0.792370 0.140380
H26   H     H_    0.971393 0.599458 0.231999 0.148389
H27   H     H_    0.057856 0.299643 0.747457 0.148856
H28   H     H_    0.972511 0.200887 0.897468 0.134353
H29   H     H_    0.058478 0.615554 0.072411 0.117779
H30   H     H_    0.003637 0.614738 0.568423 0.245354
N1    N     N_2   0.945180 0.542040 0.524240 -0.254133
N2    N     N_2   0.054820 0.457960 0.475760 -0.279191
O1    O     O_R   0.384450 0.714270 0.493720 -0.461586
O2    O     O_3   0.728377 0.342052 0.855342 -0.563204
O3    O     O_3   0.638345 0.049142 0.582950 -0.597421
O4    O     O_3   0.330650 0.954206 0.431888 -0.568129
O5    O     O_R   0.615550 0.285730 0.506280 -0.479455
O6    O     O_R   0.684880 0.742590 0.510050 -0.533648
O7    O     O_R   0.315120 0.257410 0.489950 -0.515647
O8    O     O_R   0.265540 0.477900 0.617090 -0.523465
O9    O     O_R   0.734460 0.522100 0.382910 -0.506650
O10   O     O_R   0.565970 0.506210 0.633420 -0.492946
O11   O     O_R   0.434030 0.493790 0.366580 -0.513661
O12   O     O_3   0.180247 0.341606 0.169813 -0.587841

loop_
_geom_bond_atom_site_label_1
_geom_bond_atom_site_label_2
_ccdc_geom_bond_type
C24   H18   S    
C22   H14   S    
C27   C29   A    
C4    C8    A    
C26   H21   S    
C30   O3    S    
C17   C23   A    
C18   H3    S    
C25   H19   S    
C3    C7    A    
C32   O8    A    
C30   C31   D    
C11   C14   A    
H2    N2    S    
C18   C19   S    
C7    H27   S    
C27   O2    S    
C6    C15   A    
C31   O4    S    
C28   H1    S    
C16   C17   A    
C22   O3    S    
Cu2   O9    S    
C24   H17   S    
C12   O7    A    
Cu2   N1    S    
Cu1   N2    S    
C15   C29   A    
C21   H11   S    
C24   H16   S    
C1    O6    A    
C10   H23   S    
C25   H20   S    
C5    C7    A    
C6    C8    A    
C25   C26   S    
C9    H25   S    
C6    H29   S    
C2    C4    S    
C3    C9    A    
C21   H10   S    
C9    C11   A    
C11   C16   A    
C18   O12   S    
Cu1   Cu2   S    
C23   C28   A    
C26   H24   S    
C5    C14   A    
C19   H5    S    
C22   H15   S    
Cu1   O7    S    
C12   O5    A    
C13   C15   A    
C12   C31   S    
C22   C24   S    
C4    C10   A    
Cu2   O6    S    
C20   H9    S    
Cu1   O1    S    
C20   O2    S    
C10   C13   A    
C26   H22   S    
C32   O10   A    
C20   H8    S    
C13   C17   A    
C29   H12   S    
H30   N1    S    
C18   H4    S    
C2    O11   A    
C8    H26   S    
Cu1   O11   S    
C16   C27   A    
C1    C30   S    
C1    O1    A    
C5    H28   S    
C23   O12   S    
C3    C32   S    
C19   H6    S    
Cu1   O8    S    
C20   C21   S    
N1    N2    D    
C25   O4    S    
C14   C28   A    
Cu2   O5    S    
C2    O9    A    
C19   H7    S    
Cu2   O10   S    
C21   H13   S    
