data_mof_unit_57431.cif
_audit_creation_date              2012-12-10T19:12:19-0500
_audit_creation_method            fapswitch 2.2
_symmetry_space_group_name_H-M    P1
_symmetry_Int_Tables_number       1
_space_group_crystal_system       triclinic
_cell_length_a                    7.774571
_cell_length_b                    9.087508
_cell_length_c                    17.12363
_cell_angle_alpha                 89.525268
_cell_angle_beta                  95.069372
_cell_angle_gamma                 89.930698
_cell_volume                      1205.03384151

loop_
_atom_site_label
_atom_site_type_symbol
_atom_type_description
_atom_site_fract_x
_atom_site_fract_y
_atom_site_fract_z
_atom_type_partial_charge
C1    C     C_R   0.500021 0.219982 0.499937 0.855618
C2    C     C_R   0.500005 0.779995 0.500261 0.835971
C3    C     C_R   0.523916 0.497970 0.651920 0.793273
C4    C     C_R   0.476288 0.508040 0.348462 0.794731
C5    C     C_R   0.541565 0.488729 0.738944 -0.083805
C6    C     C_R   0.457732 0.517756 0.261901 -0.076654
C7    C     C_R   0.388216 0.478010 0.775716 -0.289022
C8    C     C_R   0.596615 0.466857 0.223046 -0.282807
C9    C     C_R   0.390538 0.469010 0.856236 -0.204028
C10   C     C_R   0.588769 0.466189 0.142285 -0.202124
C11   C     C_R   0.547047 0.456175 0.902880 0.331309
C12   C     C_R   0.438177 0.511509 0.096910 0.324277
C13   C     C_R   0.704516 0.453187 0.867614 0.062070
C14   C     C_R   0.294931 0.563418 0.134253 0.053328
C15   C     C_R   0.703941 0.485211 0.785801 0.052075
C16   C     C_R   0.306747 0.574612 0.217666 0.045986
C17   C     C_1   0.500030 0.065344 0.499984 -0.192231
C18   C     C_1   0.499898 0.934594 0.500101 -0.190416
Cu1   Cu    Cu3+1 0.669080 0.500010 0.500000 0.974808
Cu2   Cu    Cu3+1 0.330920 0.499990 0.500000 0.969823
H1    H     H_    0.713333 0.426181 0.255442 0.172765
H2    H     H_    0.263943 0.478860 0.741972 0.179900
H3    H     H_    0.701638 0.428328 0.115476 0.155672
H4    H     H_    0.268715 0.468571 0.882038 0.159469
N1    N     N_1   0.076820 0.499970 0.500010 -0.070450
N2    N     N_1   0.923180 0.500030 0.499990 -0.064055
N3    N     N_2   0.550290 0.446883 0.985711 -0.273353
N4    N     N_2   0.429737 0.513444 0.013487 -0.270173
O1    O     O_R   0.642760 0.288400 0.500000 -0.574630
O2    O     O_R   0.357240 0.711600 0.500000 -0.578296
O3    O     O_R   0.357190 0.288380 0.500000 -0.574401
O4    O     O_R   0.642810 0.711620 0.500000 -0.577732
O5    O     O_R   0.658410 0.498660 0.613920 -0.587693
O6    O     O_R   0.341590 0.501340 0.386080 -0.585441
O7    O     O_R   0.372840 0.498650 0.613930 -0.586621
O8    O     O_R   0.627160 0.501350 0.386070 -0.583989
C19   C     C_3   0.869841 0.413388 0.918176 -0.427419
C20   C     C_3   0.935578 0.260299 0.897348 -0.352196
C21   C     C_3   0.076554 0.204645 0.958325 -0.858942
H5    H     H_    0.186193 0.282628 0.964592 0.267869
H6    H     H_    0.024087 0.190722 0.016198 0.250072
H7    H     H_    0.125199 0.096555 0.939885 0.248600
H8    H     H_    0.826932 0.180462 0.894669 0.227324
H9    H     H_    0.987454 0.263435 0.838990 0.216158
H10   H     H_    0.969796 0.498280 0.912964 0.177071
H11   H     H_    0.849808 0.412048 0.981452 0.220672
C22   C     C_3   0.128706 0.598847 0.083830 -0.415297
C23   C     C_3   0.113178 0.763221 0.063072 -0.337991
C24   C     C_3   0.938189 0.798068 0.019083 -0.852039
H12   H     H_    0.925172 0.741561 0.961675 0.251756
H13   H     H_    0.831672 0.762787 0.054162 0.263117
H14   H     H_    0.926497 0.918329 0.008330 0.246939
H15   H     H_    0.128155 0.830988 0.116795 0.220817
H16   H     H_    0.217256 0.794745 0.025674 0.228572
H17   H     H_    0.123705 0.536111 0.028712 0.208379
H18   H     H_    0.014666 0.558110 0.112147 0.181072
C25   C     C_3   0.871875 0.528679 0.751413 -0.393279
C26   C     C_3   0.872288 0.694366 0.732004 -0.332705
C27   C     C_3   0.037868 0.741063 0.697080 -0.809576
H19   H     H_    0.150255 0.728023 0.741279 0.245125
H20   H     H_    0.058268 0.674386 0.644635 0.273477
H21   H     H_    0.028254 0.858748 0.679245 0.238176
H22   H     H_    0.760798 0.724378 0.689912 0.227146
H23   H     H_    0.860449 0.757736 0.786569 0.208336
H24   H     H_    0.987349 0.507059 0.791709 0.181385
H25   H     H_    0.895689 0.459949 0.700400 0.218841
C28   C     C_3   0.164208 0.651913 0.258387 -0.395096
C29   C     C_3   0.228402 0.797015 0.296214 -0.338632
C30   C     C_3   0.090124 0.867590 0.341755 -0.793150
H26   H     H_    0.972883 0.892680 0.301972 0.240886
H27   H     H_    0.055121 0.792574 0.389379 0.270460
H28   H     H_    0.140294 0.971788 0.368389 0.241363
H29   H     H_    0.345715 0.779266 0.336806 0.215342
H30   H     H_    0.263021 0.874918 0.249777 0.203678
H31   H     H_    0.050237 0.680547 0.218138 0.197462
H32   H     H_    0.110138 0.577206 0.301345 0.223071

loop_
_geom_bond_atom_site_label_1
_geom_bond_atom_site_label_2
_ccdc_geom_bond_type
C30   H28   S    
C4    O8    A    
C9    H4    S    
C20   H9    S    
C19   C20   S    
C19   H10   S    
C3    O7    A    
C10   H3    S    
C2    C18   S    
C7    H2    S    
C15   C25   S    
C13   C19   S    
Cu1   Cu2   S    
C11   N3    S    
C25   H25   S    
C2    O2    A    
C24   H14   S    
Cu2   O6    S    
C29   H29   S    
C1    O1    A    
C17   C18   T    
N1    N2    T    
C30   H27   S    
C27   H19   S    
C21   H6    S    
C16   C28   S    
Cu2   O2    S    
C23   H16   S    
C9    C11   A    
C25   C26   S    
C14   C22   S    
C10   C12   A    
C12   N4    S    
Cu1   O4    S    
C22   H17   S    
C23   C24   S    
C23   H15   S    
C12   C14   A    
C8    H1    S    
C21   H7    S    
C14   C16   A    
Cu1   O8    S    
C13   C15   A    
C1    O3    A    
C26   H23   S    
C30   H26   S    
C24   H12   S    
C4    O6    A    
C5    C15   A    
C11   C13   A    
C28   H31   S    
Cu2   N1    S    
C3    O5    A    
C29   H30   S    
C28   C29   S    
C21   H5    S    
C22   C23   S    
C7    C9    A    
C20   H8    S    
C20   C21   S    
C2    O4    A    
C4    C6    S    
Cu1   O5    S    
C27   H20   S    
N3    N4    D    
C5    C7    A    
Cu1   N2    S    
C6    C16   A    
C29   C30   S    
C27   H21   S    
C6    C8    A    
C28   H32   S    
C24   H13   S    
C19   H11   S    
C26   C27   S    
C1    C17   S    
Cu2   O7    S    
C8    C10   A    
C26   H22   S    
C25   H24   S    
C22   H18   S    
C3    C5    S    
Cu2   O3    S    
Cu1   O1    S    
