data_mof_unit_47002.cif
_audit_creation_date              2013-03-05T16:11:29-0500
_audit_creation_method            fapswitch 2.2
_symmetry_space_group_name_H-M    P1
_symmetry_Int_Tables_number       1
_space_group_crystal_system       triclinic
_cell_length_a                    9.633695
_cell_length_b                    10.859312
_cell_length_c                    17.125576
_cell_angle_alpha                 87.461193
_cell_angle_beta                  87.095071
_cell_angle_gamma                 88.355752
_cell_volume                      1786.91060459

loop_
_atom_site_label
_atom_site_type_symbol
_atom_site_description
_atom_site_fract_x
_atom_site_fract_y
_atom_site_fract_z
_atom_type_partial_charge
O1    O     O_R   0.379740 0.682430 0.499960 -0.580010
O2    O     O_R   0.620260 0.682190 0.500020 -0.555400
C1    C     C_R   0.497608 0.739105 0.502460 0.824107
O3    O     O_R   0.365800 0.500150 0.613560 -0.561268
O4    O     O_R   0.606310 0.499910 0.613620 -0.493073
C2    C     C_R   0.482135 0.501870 0.649574 0.857961
Cu1   Cu    Cu3+1 0.357600 0.500140 0.499960 1.077291
Cu2   Cu    Cu3+1 0.642400 0.499860 0.500040 1.132573
O5    O     O_R   0.379740 0.317810 0.499980 -0.587005
O6    O     O_R   0.620260 0.317570 0.500040 -0.461495
O7    O     O_R   0.393690 0.500090 0.386380 -0.501991
O8    O     O_R   0.634200 0.499850 0.386440 -0.543404
C3    C     C_R   0.501267 0.260002 0.502077 0.957790
C4    C     C_R   0.517499 0.502386 0.350662 0.864825
C5    C     C_R   0.470332 0.512039 0.734636 -0.262296
C6    C     C_R   0.502629 0.408308 0.783169 0.332858
C7    C     C_R   0.490644 0.416595 0.863975 -0.189786
C8    C     C_R   0.442473 0.525291 0.897461 -0.125227
C9    C     C_R   0.406957 0.629727 0.850220 0.378474
C10   C     C_R   0.419596 0.623132 0.768319 0.331284
C11   C     C_R   0.515011 0.656751 0.151241 0.471163
C12   C     C_R   0.503013 0.637078 0.232632 -0.177123
C13   C     C_R   0.569143 0.421479 0.220200 -0.081647
C14   C     C_R   0.582384 0.438458 0.139114 0.404297
C15   C     C_R   0.551349 0.556650 0.104399 -0.120190
C16   C     C_2   0.434686 0.527335 0.983104 0.308709
C17   C     C_2   0.542096 0.573985 0.019002 0.325622
C18   C     C_R   0.526848 0.519473 0.266387 -0.113458
H1    H     H_    0.475550 0.713246 0.269676 0.164678
H2    H     H_    0.591431 0.331449 0.247241 0.187520
H3    H     H_    0.515023 0.336385 0.901274 0.213445
C19   C     C_3   0.521340 0.932174 0.420404 -0.474614
H4    H     H_    0.450363 0.893680 0.379130 0.231197
H5    H     H_    0.628047 0.905025 0.398672 0.243570
C20   C     C_3   0.504587 0.074724 0.418706 0.137792
H6    H     H_    0.403340 0.100844 0.393318 0.221866
H7    H     H_    0.272883 0.119688 0.520446 0.253279
C21   C     C_3   0.354075 0.932503 0.541876 0.156883
C22   C     C_3   0.613874 0.917221 0.555751 0.033389
C23   C     C_3   0.493849 0.876759 0.504936 -0.153575
H8    H     H_    0.712794 0.875752 0.533128 0.236114
C24   C     C_3   0.502466 0.120730 0.503862 -0.069684
C25   C     C_3   0.365259 0.073787 0.546409 -0.509073
C26   C     C_3   0.628405 0.060901 0.548693 0.691739
H9    H     H_    0.339052 0.894010 0.602622 0.158048
H10   H     H_    0.360731 0.098549 0.608681 0.260961
C27   C     C_3   0.921265 0.370244 0.492407 0.555046
C28   C     C_3   0.087573 0.376552 0.473980 0.057584
H11   H     H_    0.135886 0.301057 0.507950 0.200066
H12   H     H_    0.913171 0.520610 0.376771 0.231879
C29   C     C_3   0.922517 0.573850 0.429599 0.090770
C30   C     C_3   0.913682 0.556675 0.569822 0.200094
N1    N     N_3   0.856560 0.499750 0.498270 -0.271348
H13   H     H_    0.898264 0.658814 0.563186 0.141358
N2    N     N_3   0.143860 0.496700 0.498910 -0.332014
C31   C     C_3   0.083823 0.595229 0.442588 0.108576
C32   C     C_3   0.076051 0.529268 0.576782 0.075116
H14   H     H_    0.121844 0.616988 0.593288 0.143375
H15   H     H_    0.089350 0.684321 0.470959 0.193182
N3    N     N_R   0.533571 0.290656 0.751262 0.175344
O9    O     O_R   0.445719 0.245874 0.705591 -0.302460
O10   O     O_R   0.627143 0.217379 0.782076 -0.248271
O11   O     O_3   0.623265 0.337365 0.096518 -0.653788
H16   H     H_    0.644975 0.363779 0.041346 0.339388
O12   O     O_3   0.610609 0.129962 0.371033 -0.694689
H17   H     H_    0.593611 0.110355 0.316305 0.357855
N4    N     N_R   0.228733 0.903507 0.501663 0.172080
O13   O     O_R   0.211792 0.942740 0.429813 -0.290280
O14   O     O_R   0.120203 0.867431 0.543956 -0.334043
O15   O     O_3   0.599360 0.869369 0.633692 -0.695251
H18   H     H_    0.527890 0.918709 0.662962 0.392450
O16   O     O_3   0.755121 0.090887 0.508662 -0.639219
H19   H     H_    0.772074 0.038724 0.462973 0.363652
O17   O     O_3   0.628764 0.108765 0.623442 -0.624317
H20   H     H_    0.715364 0.077860 0.647669 0.421238
O18   O     O_3   0.858282 0.311507 0.432372 -0.625106
H21   H     H_    0.903367 0.228662 0.427751 0.386790
N5    N     N_R   0.896635 0.293450 0.565766 0.176383
O19   O     O_R   0.966782 0.190149 0.576257 -0.302178
O20   O     O_R   0.786705 0.310127 0.611347 -0.189330
N6    N     N_R   0.133247 0.348765 0.391741 0.161113
O21   O     O_R   0.048952 0.354541 0.334618 -0.267639
O22   O     O_R   0.250787 0.290269 0.378316 -0.335152
N7    N     N_R   0.164713 0.616592 0.368113 0.205284
O23   O     O_R   0.122414 0.577361 0.302956 -0.241412
O24   O     O_R   0.248198 0.708988 0.362373 -0.320424
O25   O     O_3   0.843922 0.521888 0.640581 -0.584066
H22   H     H_    0.852460 0.589257 0.677366 0.358842
N8    N     N_R   0.104441 0.440196 0.642629 0.212034
O26   O     O_R   0.172735 0.336470 0.633460 -0.282612
O27   O     O_R   0.082477 0.476262 0.713789 -0.274241
N9    N     N_R   0.849627 0.691981 0.411817 0.155292
O28   O     O_R   0.781171 0.704345 0.348207 -0.335534
O29   O     O_R   0.883377 0.792030 0.444435 -0.370734
O30   O     O_3   0.647861 0.631128 0.974713 -0.664193
H23   H     H_    0.718360 0.656247 0.010721 0.377040
N10   N     N_R   0.357420 0.742280 0.884861 0.182382
O31   O     O_R   0.269668 0.739500 0.945192 -0.254420
O32   O     O_R   0.397398 0.848564 0.855102 -0.204859
O33   O     O_3   0.487421 0.771189 0.116032 -0.629078
H24   H     H_    0.462431 0.830576 0.157145 0.352451
O34   O     O_3   0.376458 0.725328 0.724026 -0.658484
H25   H     H_    0.389362 0.710109 0.667785 0.315444
N11   N     N_R   0.318146 0.470181 0.025553 0.139441
O35   O     O_R   0.272030 0.509403 0.093002 -0.262727
O36   O     O_R   0.244204 0.392265 0.991072 -0.250796

loop_
_geom_bond_atom_site_label_1
_geom_bond_atom_site_label_2
_geom_bond_distance
_ccdc_geom_bond_type
C28   N2    1.513948 S    
N2    C31   1.529475 S    
C12   H1    1.083281 S    
C17   O30   1.383749 S    
O30   H23   0.991928 S    
C8    C16   1.465916 S    
Cu1   N2    2.061520 S    
O25   H22   0.994156 S    
N11   O36   1.301349 A    
N6    O21   1.300987 A    
C9    N10   1.440702 S    
Cu1   Cu2   2.743661 S    
C22   H8    1.102017 S    
Cu1   O7    1.958551 S    
C16   C17   1.351835 D    
C32   N8    1.483746 S    
N7    O24   1.301069 A    
C27   O18   1.405557 S    
C29   C31   1.605773 S    
O1    C1    1.310481 A    
O4    C2    1.317452 A    
O7    C4    1.312943 A    
N5    O20   1.296697 A    
C10   O34   1.382241 S    
C20   O12   1.406002 S    
C5    C6    1.406993 A    
N10   O31   1.301261 A    
C28   N6    1.495143 S    
N3    O10   1.301583 A    
C8    C9    1.407939 A    
C6    N3    1.429418 S    
C20   C24   1.561327 S    
O5    C3    1.313819 A    
N11   O35   1.301446 A    
C21   H9    1.107973 S    
N10   O32   1.301413 A    
C2    C5    1.464225 S    
N7    O23   1.300323 A    
C20   H6    1.112221 S    
C6    C7    1.389511 A    
C13   C14   1.392585 A    
O15   H18   0.989974 S    
N8    O27   1.301785 A    
C27   N1    1.527194 S    
C16   N11   1.446184 S    
C12   C18   1.396115 A    
C11   C12   1.400210 A    
C24   C26   1.577514 S    
O3    Cu1   1.951071 S    
C3    C24   1.511077 S    
N6    O22   1.297624 A    
C30   H13   1.116380 S    
C31   N7    1.473503 S    
C5    C10   1.423467 A    
O17   H20   0.993716 S    
N4    O13   1.300824 A    
C13   H2    1.083655 S    
C14   C15   1.420766 A    
O3    C2    1.307312 A    
C22   C23   1.566003 S    
C11   O33   1.381840 S    
N5    O19   1.303181 A    
H12   C29   1.103836 S    
N3    O9    1.299592 A    
C29   N1    1.517906 S    
C19   H5    1.111630 S    
H7    C25   1.110467 S    
C19   C20   1.550909 S    
C29   N9    1.472025 S    
C27   C28   1.619981 S    
Cu2   O8    1.951068 S    
N9    O29   1.300238 A    
C7    C8    1.392500 A    
C13   C18   1.393242 A    
O18   H21   0.992298 S    
C26   O17   1.402997 S    
C28   H11   1.091085 S    
O8    C4    1.306408 A    
C1    C23   1.496654 S    
C14   O11   1.381817 S    
N2    C32   1.506834 S    
C7    H3    1.084450 S    
C24   C25   1.563998 S    
C30   N1    1.530182 S    
Cu1   O5    1.985326 S    
C11   C15   1.405213 A    
O1    Cu1   1.997077 S    
C30   O25   1.397955 S    
O2    Cu2   1.985327 S    
O16   H19   0.990343 S    
O6    C3    1.319572 A    
Cu2   N1    2.061805 S    
O4    Cu2   1.958553 S    
C22   C26   1.569304 S    
C15   C17   1.473115 S    
C31   H15   1.105515 S    
C4    C18   1.445533 S    
C19   H4    1.110620 S    
C9    C10   1.406542 A    
O2    C1    1.317293 A    
C21   C25   1.546757 S    
C21   C23   1.574998 S    
C32   H14   1.114696 S    
N9    O28   1.301695 A    
C22   O15   1.412461 S    
C26   O16   1.408706 S    
C19   C23   1.555988 S    
O34   H25   0.985525 S    
C25   H10   1.109739 S    
C30   C32   1.593290 S    
O11   H16   0.989023 S    
C21   N4    1.468616 S    
Cu2   O6    1.997077 S    
O12   H17   0.992892 S    
O33   H24   0.991832 S    
C27   N5    1.489414 S    
N4    O14   1.301099 A    
N8    O26   1.299593 A    
