data_mof_unit_23185.cif
_audit_creation_date              2012-12-10T18:43:45-0500
_audit_creation_method            fapswitch 2.2
_symmetry_space_group_name_H-M    P1
_symmetry_Int_Tables_number       1
_space_group_crystal_system       triclinic
_cell_length_a                    10.60938
_cell_length_b                    10.714103
_cell_length_c                    9.845154
_cell_angle_alpha                 90.907763
_cell_angle_beta                  104.377782
_cell_angle_gamma                 89.969709
_cell_volume                      1083.90510614

loop_
_atom_site_label
_atom_site_type_symbol
_atom_type_description
_atom_site_fract_x
_atom_site_fract_y
_atom_site_fract_z
_atom_type_partial_charge
C1    C     C_R   0.498835 0.260015 0.498317 0.878697
C2    C     C_R   0.501051 0.739978 0.501659 0.895537
C3    C     C_R   0.257378 0.495324 0.440944 0.884414
C4    C     C_R   0.742595 0.495153 0.558814 0.894937
C5    C     C_R   0.600512 0.552553 0.099749 -0.335873
C6    C     C_R   0.399561 0.447354 0.900301 -0.329224
C7    C     C_R   0.600666 0.552379 0.956061 0.657277
C8    C     C_R   0.399330 0.447652 0.043958 0.667318
C9    C     C_2   0.117678 0.474120 0.405315 0.080675
C10   C     C_2   0.882283 0.476104 0.592217 0.039943
C11   C     C_2   0.068288 0.418267 0.502180 -0.266332
C12   C     C_2   0.930578 0.419150 0.493463 -0.235643
C13   C     C_R   0.437480 0.059758 0.374649 0.202515
C14   C     C_R   0.562157 0.940246 0.625361 0.201291
C15   C     C_R   0.436816 0.931519 0.380574 -0.311415
C16   C     C_R   0.562796 0.068473 0.619436 -0.309264
C17   C     C_R   0.499834 0.872374 0.503978 -0.091958
C18   C     C_R   0.499876 0.127621 0.496006 -0.086668
H1    H     H_    0.866147 0.381445 0.398137 0.163187
H2    H     H_    0.131266 0.388117 0.600865 0.173384
H3    H     H_    0.680837 0.594860 0.176286 0.192694
H4    H     H_    0.319363 0.404867 0.823864 0.180593
H5    H     H_    0.386972 0.878111 0.288335 0.167390
H6    H     H_    0.612610 0.121868 0.711695 0.167332
N1    N     N_R   0.499970 0.499970 0.857200 -0.142531
N2    N     N_R   0.500030 0.500030 0.142800 -0.143647
O1    O     O_R   0.499990 0.316750 0.614620 -0.635251
O2    O     O_R   0.500010 0.683250 0.385380 -0.629077
O3    O     O_R   0.499990 0.316780 0.385290 -0.573426
O4    O     O_R   0.500010 0.683220 0.614710 -0.565308
O5    O     O_R   0.317810 0.500000 0.571850 -0.651443
O6    O     O_R   0.682190 0.500000 0.428150 -0.647982
O7    O     O_R   0.317810 0.500030 0.342520 -0.530554
O8    O     O_R   0.682190 0.499970 0.657480 -0.538881
Zn1   Zn    Zn3+2 0.500000 0.499980 0.653120 0.986538
Zn2   Zn    Zn3+2 0.500000 0.500020 0.346880 0.990622
N3    N     N_2   0.962474 0.526361 0.719848 -0.298397
H7    H     H_    0.049230 0.564816 0.711362 0.236539
C19   C     C_3   0.978447 0.445178 0.838830 -0.654461
H8    H     H_    0.031489 0.359237 0.821580 0.221767
H9    H     H_    0.882390 0.419309 0.856248 0.262382
H10   H     H_    0.035437 0.494352 0.934589 0.268658
N4    N     N_2   0.039598 0.511401 0.271889 -0.274413
H11   H     H_    0.951216 0.466945 0.236348 0.239225
C20   C     C_3   0.032892 0.644632 0.250063 -0.757439
H12   H     H_    0.975281 0.663647 0.141840 0.263635
H13   H     H_    0.131837 0.684610 0.262870 0.236502
H14   H     H_    0.984767 0.690656 0.325711 0.230123
F1    F     F_    0.701813 0.605010 0.916625 -0.661691
F2    F     F_    0.298101 0.395199 0.083411 -0.661318
N5    N     N_2   0.371778 0.119356 0.248727 -0.257730
H15   H     H_    0.277369 0.088093 0.211270 0.224932
C21   C     C_3   0.442632 0.116082 0.140595 -0.694438
H16   H     H_    0.456130 0.018110 0.108339 0.204592
H17   H     H_    0.539243 0.161729 0.178860 0.242816
H18   H     H_    0.387136 0.166718 0.047314 0.250864
N6    N     N_2   0.627894 0.880672 0.751291 -0.256088
H19   H     H_    0.722311 0.911924 0.788700 0.225900
C22   C     C_3   0.557099 0.883985 0.859472 -0.691349
H20   H     H_    0.543595 0.981968 0.891690 0.202698
H21   H     H_    0.612641 0.833391 0.952763 0.252133
H22   H     H_    0.460495 0.838313 0.821275 0.244691

loop_
_geom_bond_atom_site_label_1
_geom_bond_atom_site_label_2
_ccdc_geom_bond_type
C6    C8    A    
N4    H11   S    
C14   N6    S    
C15   C17   A    
N3    H7    S    
C3    C9    S    
C8    F2    S    
C9    C11   D    
C16   H6    S    
C7    N1    A    
C22   H21   S    
C2    O4    A    
O3    Zn2   S    
C13   C15   A    
C1    C18   S    
C5    H3    S    
C22   H20   S    
C19   H9    S    
C16   C18   A    
C13   N5    S    
C21   H16   S    
C2    C17   S    
C3    O5    A    
N4    C20   S    
C14   C17   A    
C7    F1    S    
N6    H19   S    
C4    O6    A    
C10   C12   D    
O4    Zn1   S    
N1    Zn1   S    
C10   N3    S    
C13   C18   A    
C12   H1    S    
C15   H5    S    
C19   H10   S    
C4    O8    A    
C21   H17   S    
C8    N2    A    
N3    C19   S    
C14   C16   A    
C11   H2    S    
C9    N4    S    
C6    N1    A    
N6    C22   S    
C1    O3    A    
C4    C10   S    
N5    H15   S    
C6    H4    S    
O6    Zn2   S    
O7    Zn2   S    
C20   H13   S    
O2    Zn2   S    
C1    O1    A    
O8    Zn1   S    
C21   H18   S    
N2    Zn2   S    
C19   H8    S    
C5    C7    A    
O5    Zn1   S    
C3    O7    A    
C22   H22   S    
C2    O2    A    
C20   H14   S    
O1    Zn1   S    
C20   H12   S    
C5    N2    A    
C11   C12   S    
N5    C21   S    
