data_mof_unit_12982.cif
_audit_creation_date              2013-03-05T15:50:42-0500
_audit_creation_method            fapswitch 2.2
_symmetry_space_group_name_H-M    P1
_symmetry_Int_Tables_number       1
_space_group_crystal_system       triclinic
_cell_length_a                    15.07808
_cell_length_b                    10.906198
_cell_length_c                    9.571938
_cell_angle_alpha                 91.45514
_cell_angle_beta                  89.689898
_cell_angle_gamma                 93.357317
_cell_volume                      1570.83242078

loop_
_atom_site_label
_atom_site_type_symbol
_atom_site_description
_atom_site_fract_x
_atom_site_fract_y
_atom_site_fract_z
_atom_type_partial_charge
O1    O     O_R   0.499990 0.319640 0.618810 -0.590846
O2    O     O_R   0.500000 0.319660 0.381240 -0.526822
C1    C     C_R   0.502972 0.262702 0.498316 0.850087
O3    O     O_R   0.370250 0.499960 0.618800 -0.588400
O4    O     O_R   0.370260 0.499980 0.381230 -0.573874
C2    C     C_R   0.328749 0.498788 0.500305 0.829291
Cu1   Cu    Cu3+1 0.499990 0.499990 0.640660 0.942595
Cu2   Cu    Cu3+1 0.500010 0.500010 0.359340 0.989392
O5    O     O_R   0.500000 0.680340 0.618760 -0.615072
O6    O     O_R   0.500010 0.680360 0.381190 -0.601819
O7    O     O_R   0.629740 0.500020 0.618770 -0.607480
O8    O     O_R   0.629750 0.500040 0.381200 -0.597210
C3    C     C_R   0.494086 0.737351 0.502590 0.798093
C4    C     C_R   0.671338 0.500337 0.499707 0.779243
C5    C     C_R   0.816797 0.539893 0.382794 -0.156823
C6    C     C_R   0.768221 0.499191 0.499308 -0.102867
C7    C     C_R   0.811861 0.456817 0.615675 -0.159963
C8    C     C_R   0.904286 0.450214 0.615635 0.010542
C9    C     C_R   0.953388 0.495234 0.498909 -0.021061
C10   C     C_R   0.909650 0.541712 0.382287 0.010622
C11   C     C_R   0.949177 0.402507 0.730365 0.359851
C12   C     C_R   0.042177 0.407477 0.730666 -0.236089
C13   C     C_R   0.090828 0.452824 0.616460 0.055918
C14   C     C_R   0.046483 0.494783 0.499153 0.069319
C15   C     C_R   0.095562 0.537089 0.382325 0.052843
C16   C     C_R   0.052146 0.581429 0.267251 -0.233159
C17   C     C_R   0.959915 0.587139 0.267284 0.367442
C18   C     C_R   0.183523 0.455374 0.616978 -0.185685
C19   C     C_R   0.232008 0.497204 0.500530 -0.064165
C20   C     C_R   0.187905 0.537020 0.383283 -0.184574
H1    H     H_    0.781685 0.570867 0.293194 0.190871
H2    H     H_    0.772887 0.429053 0.705842 0.200808
H3    H     H_    0.076655 0.372250 0.818881 0.185490
H4    H     H_    0.217864 0.423164 0.707056 0.152251
H5    H     H_    0.225576 0.570219 0.293607 0.162566
H6    H     H_    0.090386 0.616517 0.179106 0.184429
C21   C     C_R   0.589284 0.131198 0.717941 -0.105634
H7    H     H_    0.622333 0.220369 0.701190 0.164405
C22   C     C_R   0.598369 0.080146 0.848444 -0.072682
H8    H     H_    0.634960 0.130864 0.930353 0.175763
C23   C     C_R   0.556007 0.966785 0.875253 -0.114200
H9    H     H_    0.556741 0.930954 0.979634 0.171782
C24   C     C_R   0.514262 0.898050 0.766901 -0.150627
H10   H     H_    0.479300 0.813558 0.795957 0.181677
C25   C     C_R   0.512393 0.943563 0.629462 0.089868
C26   C     C_R   0.536911 0.068705 0.612840 0.039570
C27   C     C_R   0.504826 0.128630 0.495627 -0.241587
C28   C     C_R   0.462797 0.059479 0.385355 0.306305
C29   C     C_R   0.457138 0.931363 0.388855 -0.159339
C30   C     C_R   0.485217 0.871603 0.509028 -0.208798
H11   H     H_    0.396666 0.363258 0.126211 0.198202
C31   C     C_R   0.619767 0.663180 0.147615 -0.162012
H12   H     H_    0.625197 0.671617 0.257935 0.197167
C32   C     C_R   0.677710 0.743345 0.076665 -0.156157
H13   H     H_    0.720677 0.809282 0.134164 0.206751
C33   C     C_R   0.679604 0.740565 0.932723 -0.160381
H14   H     H_    0.724828 0.803466 0.877673 0.185418
C34   C     C_R   0.620782 0.661115 0.858794 -0.172055
H15   H     H_    0.624161 0.671029 0.748859 0.206536
C35   C     C_R   0.559487 0.579230 0.926757 0.196553
C36   C     C_R   0.559326 0.579537 0.076503 0.218821
N1    N     N_R   0.500860 0.501210 0.147910 -0.210458
C37   C     C_R   0.443313 0.424595 0.072241 -0.001585
H16   H     H_    0.396965 0.362746 0.867303 0.153537
C38   C     C_R   0.443366 0.424537 0.924171 -0.040814
N2    N     N_R   0.500890 0.501290 0.852040 -0.210215
C39   C     C_1   0.414389 0.863418 0.272795 0.381412
N3    N     N_1   0.380322 0.809436 0.180130 -0.269883
N4    N     N_R   0.901997 0.344927 0.844637 0.131418
O9    O     O_R   0.838698 0.261071 0.819590 -0.380785
O10   O     O_R   0.933717 0.357037 0.970727 -0.316857
N5    N     N_R   0.919340 0.646587 0.154205 0.126734
O11   O     O_R   0.874354 0.742519 0.181204 -0.389612
O12   O     O_R   0.945161 0.625512 0.026363 -0.321480
N6    N     N_R   0.422010 0.118873 0.272173 0.125878
O13   O     O_R   0.346841 0.169621 0.292257 -0.369089
O14   O     O_R   0.454878 0.110865 0.146505 -0.389296

loop_
_geom_bond_atom_site_label_1
_geom_bond_atom_site_label_2
_geom_bond_distance
_ccdc_geom_bond_type
C37   C38   1.417300 A    
C8    C11   1.418873 A    
C23   H9    1.082382 S    
C9    C10   1.419108 A    
C24   H10   1.076536 S    
Cu1   Cu2   2.692782 S    
C22   C23   1.387161 A    
C25   C26   1.405719 A    
Cu1   O7    1.966422 S    
C16   C17   1.395699 A    
C19   C20   1.398910 A    
C20   H5    1.084871 S    
C18   C19   1.401045 A    
C21   H7    1.081717 S    
C31   C36   1.415568 A    
O4    C2    1.297342 A    
O7    C4    1.297866 A    
C34   C35   1.414650 A    
C5    C6    1.398406 A    
C33   H14   1.083023 S    
C8    C9    1.419116 A    
N4    O10   1.301387 A    
O5    C3    1.293721 A    
C26   C27   1.414254 A    
C6    C7    1.398894 A    
C13   C14   1.409740 A    
C35   N2    1.379375 A    
C11   C12   1.400146 A    
C23   C24   1.395029 A    
C28   N6    1.435618 S    
C36   N1    1.381663 A    
O3    Cu1   1.968496 S    
C31   C32   1.386776 A    
C5    C10   1.399000 A    
C32   C33   1.377547 A    
C39   N3    1.157668 T    
H11   C37   1.080542 S    
C14   C15   1.410070 A    
N5    O12   1.301102 A    
C22   H8    1.082573 S    
C15   C16   1.395554 A    
C11   N4    1.439088 S    
C35   C36   1.433265 A    
O1    C1    1.297774 A    
N6    O13   1.301372 A    
N1    C37   1.366327 A    
C24   C25   1.418829 A    
C27   C28   1.412555 A    
Cu2   O8    1.968495 S    
C7    C8    1.399651 A    
C13   C18   1.396341 A    
N6    O14   1.301327 A    
O3    C2    1.297774 A    
C28   C29   1.396112 A    
O8    C4    1.298939 A    
C38   N2    1.366575 A    
C4    C6    1.461581 S    
C31   H12   1.060840 S    
C16   H6    1.084451 S    
C15   C20   1.392478 A    
Cu1   O5    1.983348 S    
C12   H3    1.084189 S    
C32   H13   1.081191 S    
C29   C39   1.452143 S    
O1    Cu1   1.972733 S    
O2    Cu2   1.983350 S    
N5    O11   1.299620 A    
O6    C3    1.308937 A    
O4    Cu2   1.966422 S    
C5    H1    1.081912 S    
C10   C17   1.416448 A    
H16   C38   1.081764 S    
O2    C1    1.297262 A    
C34   H15   1.061205 S    
C21   C22   1.391151 A    
Cu1   N2    2.023118 S    
C25   C30   1.426263 A    
C1    C27   1.463694 S    
C33   C34   1.387025 A    
C9    C14   1.403999 A    
N4    O9    1.301501 A    
C18   H4    1.084647 S    
C3    C30   1.477763 S    
C2    C19   1.457751 S    
Cu2   O6    1.972732 S    
C29   C30   1.415231 A    
C7    H2    1.081135 S    
C12   C13   1.397867 A    
C21   C26   1.418067 A    
C17   N5    1.433691 S    
Cu2   N1    2.024137 S    
