data_mof_unit_54656.cif
_audit_creation_date              2012-12-10T20:42:42-0500
_audit_creation_method            fapswitch 2.2
_symmetry_space_group_name_H-M    P1
_symmetry_Int_Tables_number       1
_space_group_crystal_system       triclinic
_cell_length_a                    8.894603
_cell_length_b                    10.694013
_cell_length_c                    9.910177
_cell_angle_alpha                 89.987741
_cell_angle_beta                  90.103944
_cell_angle_gamma                 90.807836
_cell_volume                      942.550865197

loop_
_atom_site_label
_atom_site_type_symbol
_atom_type_description
_atom_site_fract_x
_atom_site_fract_y
_atom_site_fract_z
_atom_type_partial_charge
C1    C     C_R   0.495736 0.260381 0.500189 0.885377
C2    C     C_R   0.402140 0.424965 0.928823 0.218638
C3    C     C_3   0.234856 0.428265 0.923014 -0.485763
C4    C     C_R   0.218862 0.499850 0.499906 0.924493
C5    C     C_3   0.235223 0.427490 0.076232 -0.494505
C6    C     C_R   0.493317 0.739758 0.499741 0.877896
C7    C     C_R   0.781120 0.500126 0.500095 0.949021
C8    C     C_1   0.065448 0.499960 0.499888 -0.183554
C9    C     C_1   0.934532 0.500068 0.500122 -0.163820
C10   C     C_R   0.508697 0.063765 0.619645 0.056904
C11   C     C_R   0.475116 0.129008 0.502382 -0.120971
C12   C     C_R   0.408587 0.936484 0.389576 -0.025170
C13   C     C_R   0.412535 0.066442 0.391096 -0.234820
C14   C     C_1   0.346853 0.874383 0.271860 0.218324
C15   C     C_1   0.609301 0.123198 0.844343 0.213325
C16   C     C_1   0.779062 0.125862 0.649511 0.181823
C17   C     C_1   0.708418 0.647245 0.145445 0.258979
C18   C     C_1   0.723265 0.632912 0.857675 0.239612
C19   C     C_R   0.470143 0.871449 0.500836 -0.134924
C20   C     C_R   0.505894 0.936301 0.618552 0.080278
C21   C     C_3   0.640204 0.927445 0.709104 -0.508057
C22   C     C_3   0.643280 0.069814 0.711224 -0.032062
C23   C     C_R   0.402717 0.424303 0.070876 0.213394
C24   C     C_R   0.603811 0.567873 0.072576 -0.035250
C25   C     C_R   0.606043 0.565630 0.928421 -0.036121
H1    H     H_    0.373322 0.118095 0.303907 0.171837
H2    H     H_    0.185843 0.341478 0.878329 0.212578
H3    H     H_    0.192673 0.515567 0.120868 0.232069
H4    H     H_    0.186324 0.340285 0.119949 0.206753
H5    H     H_    0.610360 0.883359 0.807339 0.207952
H6    H     H_    0.737508 0.884792 0.656798 0.207010
H7    H     H_    0.192314 0.516829 0.879355 0.227967
N1    N     N_R   0.499010 0.499140 0.142800 -0.131110
N2    N     N_R   0.499010 0.499180 0.857150 -0.133117
N3    N     N_1   0.297455 0.824728 0.177593 -0.200961
N4    N     N_1   0.582916 0.164670 0.949368 -0.221775
N5    N     N_1   0.885581 0.169944 0.601036 -0.216564
N6    N     N_1   0.792485 0.711488 0.202950 -0.203507
N7    N     N_1   0.819485 0.686216 0.802960 -0.223833
O1    O     O_R   0.500020 0.316790 0.614690 -0.620699
O2    O     O_R   0.500000 0.316760 0.385350 -0.617117
O3    O     O_R   0.285350 0.500020 0.614650 -0.619767
O4    O     O_R   0.285340 0.499980 0.385310 -0.621650
O5    O     O_R   0.500000 0.683240 0.614650 -0.612431
O6    O     O_R   0.499980 0.683210 0.385310 -0.614490
O7    O     O_R   0.714660 0.500020 0.614690 -0.610596
O8    O     O_R   0.714650 0.499980 0.385350 -0.614447
Zn1   Zn    Zn3+2 0.500010 0.500020 0.653130 0.964859
Zn2   Zn    Zn3+2 0.499990 0.499980 0.346870 0.967989

loop_
_geom_bond_atom_site_label_1
_geom_bond_atom_site_label_2
_ccdc_geom_bond_type
C18   N7    T    
C6    O6    A    
C5    H3    S    
C21   H6    S    
C21   H5    S    
C25   N2    A    
C19   C20   A    
C5    C23   S    
O6    Zn2   S    
C16   N5    T    
C4    C8    S    
C2    N2    A    
C3    H2    S    
C2    C3    S    
C3    C5    S    
O8    Zn2   S    
C6    O5    A    
C21   C22   S    
C10   C22   S    
C6    C19   S    
C11   C13   A    
O3    Zn1   S    
C18   C25   S    
C4    O3    A    
C12   C19   A    
C1    O2    A    
C4    O4    A    
C12   C14   S    
C5    H4    S    
C17   N6    T    
C3    H7    S    
O7    Zn1   S    
C13   H1    S    
C17   C24   S    
N2    Zn1   S    
C10   C11   A    
N1    Zn2   S    
C7    O7    A    
O5    Zn1   S    
C15   N4    T    
C2    C23   A    
C24   C25   A    
O1    Zn1   S    
C7    O8    A    
O2    Zn2   S    
C14   N3    T    
C7    C9    S    
O4    Zn2   S    
C16   C22   S    
C1    O1    A    
C12   C13   A    
C20   C21   S    
C15   C22   S    
C24   N1    A    
C10   C20   A    
C8    C9    T    
C23   N1    A    
C1    C11   S    
