data_mof_unit_58255.cif
_audit_creation_date              2012-12-10T18:13:30-0500
_audit_creation_method            fapswitch 2.2
_symmetry_space_group_name_H-M    P1
_symmetry_Int_Tables_number       1
_space_group_crystal_system       triclinic
_cell_length_a                    12.584809
_cell_length_b                    13.222075
_cell_length_c                    16.829943
_cell_angle_alpha                 91.083425
_cell_angle_beta                  98.097252
_cell_angle_gamma                 97.256645
_cell_volume                      2748.40931272

loop_
_atom_site_label
_atom_site_type_symbol
_atom_type_description
_atom_site_fract_x
_atom_site_fract_y
_atom_site_fract_z
_atom_type_partial_charge
C1    C     C_R   0.559769 0.691245 0.510835 0.865676
C2    C     C_R   0.601840 0.442273 0.235428 -0.211940
C3    C     C_R   0.560493 0.486877 0.872174 -0.161168
C4    C     C_R   0.569992 0.501040 0.792073 -0.212761
C5    C     C_R   0.373760 0.479807 0.759500 -0.210517
C6    C     C_R   0.364531 0.464581 0.839670 -0.171623
C7    C     C_R   0.457836 0.464941 0.895315 0.199826
C8    C     C_2   0.491526 0.377371 0.022064 0.059213
C9    C     C_2   0.447651 0.450350 0.978982 -0.304536
C10   C     C_R   0.476651 0.495990 0.735224 -0.027000
C11   C     C_R   0.280146 0.060577 0.525802 -0.209600
C12   C     C_R   0.511386 0.491862 0.349342 0.862023
C13   C     C_R   0.403098 0.200738 0.489314 -0.043126
C14   C     C_R   0.690151 0.830558 0.475517 -0.249045
C15   C     C_R   0.702108 0.922853 0.438149 -0.135774
C16   C     C_R   0.621117 0.986345 0.433783 0.102313
C17   C     C_R   0.533691 0.964619 0.479993 0.034217
C18   C     C_R   0.522440 0.870062 0.517866 0.065051
C19   C     C_R   0.455944 0.031219 0.489395 0.076591
C20   C     C_R   0.359886 0.996312 0.521550 0.178741
C21   C     C_R   0.350140 0.902275 0.556849 -0.256945
C22   C     C_R   0.434460 0.844047 0.560764 -0.181338
C23   C     C_R   0.439930 0.309063 0.491065 0.864036
C24   C     C_R   0.477868 0.134905 0.478258 -0.282123
C25   C     C_R   0.301190 0.162954 0.508377 -0.199859
C26   C     C_R   0.595829 0.800156 0.508478 -0.113861
C27   C     C_R   0.904029 0.357011 0.616209 -0.310843
C28   C     C_R   0.212729 0.632371 0.409842 -0.061281
C29   C     C_R   0.115694 0.674105 0.400263 0.028131
C30   C     C_R   0.030601 0.630916 0.439980 0.088370
C31   C     C_R   0.042179 0.541160 0.484751 -0.035280
C32   C     C_R   0.146057 0.508235 0.497100 0.189384
C33   C     C_R   0.958210 0.484959 0.520858 0.010411
C34   C     C_R   0.486419 0.502180 0.650549 0.843060
C35   C     C_R   0.983890 0.409139 0.576828 0.193494
C36   C     C_R   0.088352 0.383960 0.591518 -0.306887
C37   C     C_R   0.167155 0.430654 0.550271 -0.201051
C38   C     C_R   0.848470 0.496486 0.501282 -0.037409
C39   C     C_R   0.798587 0.377907 0.598191 0.003349
C40   C     C_R   0.507131 0.459983 0.265626 -0.033156
C41   C     C_R   0.405970 0.434982 0.218021 -0.197657
C42   C     C_R   0.399856 0.397014 0.140140 -0.204279
C43   C     C_R   0.494863 0.385343 0.108591 0.210158
C44   C     C_R   0.595612 0.405032 0.156908 -0.156909
H1    H     H_    0.331398 0.444681 0.240753 0.163280
H2    H     H_    0.285024 0.450716 0.858103 0.132991
H3    H     H_    0.242204 0.213650 0.516863 0.152306
H4    H     H_    0.280820 0.876974 0.586411 0.147797
H5    H     H_    0.205140 0.033493 0.547822 0.133602
H6    H     H_    0.557760 0.167141 0.469047 0.165950
H7    H     H_    0.747918 0.777796 0.469266 0.172192
H8    H     H_    0.769446 0.940013 0.404841 0.151352
H9    H     H_    0.428765 0.776645 0.596248 0.165099
H10   H     H_    0.735548 0.339468 0.628529 0.138370
H11   H     H_    0.650015 0.515629 0.774651 0.156664
H12   H     H_    0.108598 0.325511 0.633288 0.150592
H13   H     H_    0.922911 0.300467 0.659998 0.144127
H14   H     H_    0.818329 0.541805 0.452988 0.160911
H15   H     H_    0.280282 0.666504 0.381937 0.155006
H16   H     H_    0.244796 0.405399 0.562136 0.209854
H17   H     H_    0.300664 0.476251 0.716500 0.160873
H18   H     H_    0.406792 0.505761 0.007529 0.153668
H19   H     H_    0.669513 0.397671 0.132393 0.136456
H20   H     H_    0.632999 0.493371 0.916036 0.130793
H21   H     H_    0.680514 0.458913 0.271858 0.154801
H22   H     H_    0.321613 0.382224 0.102835 0.136056
N1    N     N_R   0.774070 0.445420 0.541180 -0.111348
N2    N     N_R   0.226730 0.554050 0.459240 -0.139450
O1    O     O_R   0.631480 0.627510 0.519670 -0.607854
O2    O     O_R   0.455770 0.662400 0.493360 -0.613700
O3    O     O_R   0.598240 0.480510 0.398910 -0.622972
O4    O     O_R   0.422540 0.515400 0.372600 -0.619804
O5    O     O_R   0.544230 0.337600 0.506640 -0.617796
O6    O     O_R   0.368520 0.372490 0.480330 -0.637140
O7    O     O_R   0.577460 0.484600 0.627400 -0.615953
O8    O     O_R   0.401760 0.519490 0.601090 -0.638501
Zn1   Zn    Zn3+2 0.617320 0.476700 0.517570 0.939779
Zn2   Zn    Zn3+2 0.382680 0.523300 0.482430 0.926231
N3    N     N_3   0.621420 0.058980 0.371393 -0.474384
H23   H     H_    0.543081 0.072254 0.348382 0.199103
H24   H     H_    0.670993 0.126236 0.392535 0.182094
N4    N     N_3   0.938739 0.684675 0.441028 -0.490840
H25   H     H_    0.903604 0.692995 0.381792 0.196572
H26   H     H_    0.965127 0.757257 0.467632 0.186907
N5    N     N_3   0.104339 0.763013 0.353604 -0.465419
H27   H     H_    0.168021 0.776732 0.319827 0.181215
H28   H     H_    0.111517 0.825565 0.393822 0.185368
N6    N     N_3   0.542463 0.299130 0.987616 -0.455062
H29   H     H_    0.612146 0.332132 0.966152 0.180787
H30   H     H_    0.488681 0.262711 0.939536 0.201350

loop_
_geom_bond_atom_site_label_1
_geom_bond_atom_site_label_2
_ccdc_geom_bond_type
C30   N4    S    
O2    Zn2   S    
C41   C42   A    
O1    Zn1   S    
C35   C36   A    
N1    Zn1   S    
C8    C43   S    
C2    H21   S    
N5    H27   S    
C11   H5    S    
C36   C37   A    
C28   N2    A    
O8    Zn2   S    
C3    C7    A    
C30   C31   A    
C39   H10   S    
C11   C25   A    
C15   C16   A    
C13   C23   S    
O4    Zn2   S    
C17   C19   A    
C38   H14   S    
C31   C32   A    
C2    C44   A    
C8    C9    D    
C18   C26   A    
C31   C33   A    
C25   H3    S    
C29   N5    S    
C34   O7    A    
C32   N2    A    
C21   H4    S    
N6    H29   S    
C12   O4    A    
C21   C22   A    
N2    Zn2   S    
C13   C25   A    
C23   O5    A    
C22   H9    S    
N5    H28   S    
C44   H19   S    
C24   H6    S    
C11   C20   A    
C9    H18   S    
C27   H13   S    
C27   C39   A    
N3    H24   S    
C16   C17   A    
C27   C35   A    
C32   C37   A    
C1    O1    A    
C13   C24   A    
C8    N6    S    
C12   C40   S    
C43   C44   A    
C29   C30   A    
C36   H12   S    
C14   H7    S    
C20   C21   A    
C17   C18   A    
C5    H17   S    
C10   C34   S    
C15   H8    S    
C14   C26   A    
O7    Zn1   S    
C40   C41   A    
C12   O3    A    
N6    H30   S    
N4    H26   S    
C4    H11   S    
C1    C26   S    
C42   C43   A    
C23   O6    A    
C4    C10   A    
C3    C4    A    
O3    Zn1   S    
C28   H15   S    
C7    C9    S    
C28   C29   A    
O5    Zn1   S    
C6    H2    S    
C18   C22   A    
C39   N1    A    
C1    O2    A    
C6    C7    A    
C33   C38   A    
C16   N3    S    
C19   C20   A    
C19   C24   A    
C5    C10   A    
C5    C6    A    
C33   C35   A    
C3    H20   S    
C37   H16   S    
N3    H23   S    
C2    C40   A    
C38   N1    A    
N4    H25   S    
O6    Zn2   S    
C42   H22   S    
C41   H1    S    
C14   C15   A    
C34   O8    A    
