data_mof_unit_60606.cif
_audit_creation_date              2012-10-26T19:14:46-0400
_audit_creation_method            fapswitch 2.2
_symmetry_space_group_name_H-M    P1
_symmetry_Int_Tables_number       1
_space_group_crystal_system       triclinic
_cell_length_a                    19.440509
_cell_length_b                    18.16345
_cell_length_c                    10.642535
_cell_angle_alpha                 90.759603
_cell_angle_beta                  90.716515
_cell_angle_gamma                 89.880653
_cell_volume                      3757.31957544

loop_
_atom_site_label
_atom_site_type_symbol
_atom_type_description
_atom_site_fract_x
_atom_site_fract_y
_atom_site_fract_z
_atom_type_partial_charge
C1    C     C_R   0.367574 0.500066 0.500381 0.549720
C2    C     C_R   0.542718 0.279604 0.580104 0.044587
C3    C     C_R   0.542891 0.721482 0.579682 0.053790
C4    C     C_R   0.457110 0.278518 0.420314 0.053792
C5    C     C_R   0.456543 0.797694 0.418188 -0.149479
C6    C     C_R   0.543456 0.202305 0.581815 -0.149479
C7    C     C_R   0.543623 0.798794 0.581337 -0.143827
C8    C     C_R   0.456379 0.201206 0.418660 -0.143826
C9    C     C_R   0.500043 0.838412 0.499823 0.017836
C10   C     C_R   0.499957 0.161588 0.500177 0.017836
C11   C     C_R   0.509160 0.962125 0.612340 -0.114936
C12   C     C_R   0.632426 0.499934 0.499618 0.549720
C13   C     C_R   0.490840 0.037875 0.387659 -0.114936
C14   C     C_R   0.490855 0.960502 0.387563 -0.115625
C15   C     C_R   0.509145 0.039498 0.612437 -0.115625
C16   C     C_R   0.499984 0.078728 0.500097 0.033006
C17   C     C_R   0.500016 0.921272 0.499903 0.033005
C18   C     C_R   0.498103 0.499453 0.259512 0.585421
C19   C     C_R   0.501897 0.500547 0.740488 0.585420
C20   C     C_3   0.450658 0.546155 0.039477 0.101013
C21   C     C_3   0.549342 0.453845 0.960523 0.101006
C22   C     C_3   0.513947 0.569092 0.965046 0.108076
C23   C     C_R   0.963857 0.539475 0.408466 -0.117831
C24   C     C_3   0.486053 0.430908 0.034955 0.108070
C25   C     C_3   0.438498 0.478707 0.952714 0.236938
C26   C     C_3   0.561503 0.521293 0.047287 0.236940
C27   C     C_3   0.502136 0.501701 0.876490 -0.013294
C28   C     C_3   0.497864 0.498299 0.123510 -0.013288
C29   C     C_R   0.744467 0.433882 0.515289 -0.138921
C30   C     C_R   0.255533 0.566118 0.484702 -0.138919
C31   C     C_R   0.255984 0.434416 0.519446 -0.135910
C32   C     C_R   0.744016 0.565583 0.480544 -0.135908
C33   C     C_R   0.816078 0.433868 0.515104 -0.127046
C34   C     C_R   0.036143 0.460524 0.591518 -0.117831
C35   C     C_R   0.183922 0.566132 0.484882 -0.127044
C36   C     C_R   0.184378 0.434528 0.520189 -0.131663
C37   C     C_R   0.815621 0.565471 0.479796 -0.131662
C38   C     C_R   0.852170 0.499667 0.497569 0.029927
C39   C     C_R   0.147829 0.500332 0.502416 0.029927
C40   C     C_R   0.707888 0.499796 0.498488 0.017665
C41   C     C_R   0.292112 0.500203 0.501505 0.017665
C42   C     C_3   0.326456 0.436172 0.972660 0.003422
C43   C     C_3   0.256802 0.435791 0.904400 -0.252510
C44   C     C_3   0.199088 0.412758 0.991347 -0.492532
C45   C     C_R   0.035486 0.539730 0.409821 -0.118498
C46   C     C_3   0.673547 0.563819 0.027347 0.003420
C47   C     C_3   0.743193 0.564245 0.095642 -0.252503
C48   C     C_3   0.800914 0.587252 0.008692 -0.492513
C49   C     C_3   0.356899 0.633032 0.996282 -0.291905
C50   C     C_3   0.643102 0.366969 0.003726 -0.291914
C51   C     C_3   0.533383 0.699220 0.018515 -0.293110
C52   C     C_3   0.466622 0.300779 0.981487 -0.293109
C53   C     C_R   0.964514 0.460269 0.590162 -0.118498
C54   C     C_R   0.072141 0.500259 0.501354 0.030875
C55   C     C_R   0.927859 0.499740 0.498630 0.030876
C56   C     C_R   0.457280 0.720395 0.419899 0.044588
Cu1   Cu    Cu3+1 0.500000 0.573360 0.500000 0.951909
Cu2   Cu    Cu3+1 0.500000 0.426640 0.500000 0.951908
H1    H     H_    0.717827 0.382367 0.529182 0.120954
H2    H     H_    0.063428 0.430534 0.664031 0.098303
H3    H     H_    0.062266 0.569877 0.338258 0.098492
H4    H     H_    0.937734 0.430122 0.661726 0.098491
H5    H     H_    0.423437 0.689738 0.357073 0.124951
H6    H     H_    0.576560 0.310262 0.642933 0.124952
H7    H     H_    0.577020 0.691676 0.641909 0.107215
H8    H     H_    0.422983 0.308324 0.358084 0.107221
H9    H     H_    0.421356 0.825240 0.354654 0.085859
H10   H     H_    0.578641 0.174760 0.645351 0.085858
H11   H     H_    0.578907 0.827187 0.644668 0.083839
H12   H     H_    0.282173 0.617632 0.470811 0.120953
H13   H     H_    0.421096 0.172813 0.355326 0.083839
H14   H     H_    0.515168 0.934299 0.701133 0.097714
H15   H     H_    0.484832 0.065700 0.298867 0.097714
H16   H     H_    0.484864 0.931393 0.298702 0.096351
H17   H     H_    0.515135 0.068606 0.701298 0.096351
H18   H     H_    0.323084 0.473217 0.056272 0.123978
H19   H     H_    0.337450 0.379494 0.004717 0.131285
H20   H     H_    0.245451 0.491692 0.868206 0.170083
H21   H     H_    0.258730 0.396913 0.822927 0.173152
H22   H     H_    0.208731 0.356416 0.026975 0.142949
H23   H     H_    0.282978 0.382853 0.533025 0.126125
H24   H     H_    0.149399 0.412873 0.938736 0.144046
H25   H     H_    0.195276 0.451859 0.072138 0.148809
H26   H     H_    0.662543 0.620482 0.995224 0.131264
H27   H     H_    0.676940 0.526745 0.943775 0.124000
H28   H     H_    0.741245 0.603161 0.177065 0.173125
H29   H     H_    0.754550 0.508362 0.131915 0.170117
H30   H     H_    0.804758 0.548101 0.927970 0.148801
H31   H     H_    0.850594 0.587193 0.061341 0.144038
H32   H     H_    0.791253 0.643569 0.972955 0.142948
H33   H     H_    0.371229 0.574497 0.161983 0.230921
H34   H     H_    0.717022 0.617147 0.466967 0.126124
H35   H     H_    0.326634 0.677113 0.043249 0.118168
H36   H     H_    0.320738 0.593895 0.949824 0.162500
H37   H     H_    0.389337 0.658669 0.923848 0.193911
H38   H     H_    0.628770 0.425498 0.838017 0.230919
H39   H     H_    0.673358 0.322880 0.956765 0.118174
H40   H     H_    0.610666 0.341344 0.076174 0.193913
H41   H     H_    0.679271 0.406105 0.050167 0.162482
H42   H     H_    0.568835 0.643850 0.859372 0.231525
H43   H     H_    0.547597 0.752337 0.975486 0.112792
H44   H     H_    0.572811 0.684951 0.090489 0.170218
H45   H     H_    0.843283 0.382325 0.527511 0.102806
H46   H     H_    0.483216 0.706847 0.065192 0.185716
H47   H     H_    0.431156 0.356152 0.140616 0.231518
H48   H     H_    0.452382 0.247668 0.024506 0.112780
H49   H     H_    0.516799 0.293135 0.934854 0.185702
H50   H     H_    0.427216 0.315058 0.909480 0.170234
H51   H     H_    0.156717 0.617674 0.472474 0.102806
H52   H     H_    0.157531 0.383013 0.532771 0.101958
H53   H     H_    0.842469 0.616986 0.467213 0.101957
H54   H     H_    0.936571 0.569466 0.335952 0.098300
N1    N     N_R   0.500000 0.683620 0.500000 -0.219361
N2    N     N_R   0.500000 0.316380 0.500000 -0.219362
N3    N     N_2   0.398888 0.595786 0.088950 -0.522488
N4    N     N_2   0.601112 0.404212 0.911055 -0.522490
N5    N     N_2   0.528774 0.642608 0.921737 -0.504566
N6    N     N_2   0.471223 0.357393 0.078264 -0.504561
O1    O     O_R   0.400190 0.561980 0.499980 -0.512321
O2    O     O_3   0.622781 0.541080 0.112009 -0.560719
O3    O     O_R   0.599810 0.438020 0.500020 -0.512321
O4    O     O_R   0.599810 0.561980 0.500020 -0.509630
O5    O     O_R   0.400190 0.438020 0.499980 -0.509630
O6    O     O_R   0.499980 0.561940 0.316860 -0.482189
O7    O     O_R   0.500020 0.438060 0.683140 -0.482194
O8    O     O_R   0.500020 0.561940 0.683140 -0.500434
O9    O     O_R   0.499980 0.438060 0.316860 -0.500432
O10   O     O_3   0.377217 0.458923 0.887995 -0.560721

loop_
_geom_bond_atom_site_label_1
_geom_bond_atom_site_label_2
_ccdc_geom_bond_type
C22   N5    S    
C15   H17   S    
C21   C26   S    
C23   C45   A    
C5    C56   A    
C4    C8    A    
C44   H25   S    
C3    H7    S    
C51   H44   S    
C23   H54   S    
C50   H41   S    
C5    H9    S    
C14   H16   S    
C4    N2    A    
C25   O10   S    
C26   O2    S    
C3    C7    A    
C44   H24   S    
C39   C54   S    
C20   C25   S    
C43   H21   S    
C15   C16   A    
C29   C33   A    
C1    O1    A    
Cu1   O4    S    
C11   C15   A    
C12   O3    A    
C29   H1    S    
C52   H49   S    
C8    H13   S    
C56   N1    A    
C48   H30   S    
C30   C41   A    
C49   H36   S    
C19   C27   S    
C35   H51   S    
C42   O10   S    
Cu1   O1    S    
C46   H27   S    
C6    H10   S    
C21   C27   S    
C52   H48   S    
Cu2   O9    S    
C48   H32   S    
C13   C14   A    
C34   H2    S    
C14   C17   A    
C2    C6    A    
C21   N4    S    
C30   H12   S    
C2    H6    S    
C53   C55   A    
C50   H40   S    
C38   C55   S    
C47   H28   S    
C44   H22   S    
C18   C28   S    
C24   C25   S    
C3    N1    A    
Cu1   O8    S    
C11   H14   S    
Cu1   N1    S    
C20   C28   S    
C51   H46   S    
C19   O7    A    
C43   H20   S    
C47   H29   S    
C12   C40   S    
C35   C39   A    
C43   C44   S    
C1    O5    A    
C5    C9    A    
C37   C38   A    
C18   O9    A    
C53   H4    S    
C47   C48   S    
Cu2   O3    S    
Cu2   O5    S    
C56   H5    S    
C46   O2    S    
C32   C37   A    
C49   H37   S    
C42   H19   S    
C46   H26   S    
C30   C35   A    
C9    C17   S    
C49   N3    S    
C13   H15   S    
C45   C54   A    
C34   C54   A    
C22   C27   S    
C36   H52   S    
Cu2   O7    S    
H47   N6    S    
C13   C16   A    
C25   C27   S    
C42   C43   S    
C1    C41   S    
C7    C9    A    
C46   C47   S    
C11   C17   A    
C50   H39   S    
C31   C41   A    
C33   H45   S    
C42   H18   S    
C36   C39   A    
C24   C28   S    
C20   C22   S    
C7    H11   S    
C20   N3    S    
C23   C55   A    
C51   H43   S    
C19   O8    A    
C26   C28   S    
C33   C38   A    
C31   H23   S    
C48   H31   S    
C10   C16   S    
Cu1   O6    S    
C4    H8    S    
C2    N2    A    
Cu1   Cu2   S    
C32   H34   S    
C29   C40   A    
C45   H3    S    
C24   N6    S    
C51   N5    S    
H33   N3    S    
C50   N4    S    
C32   C40   A    
C37   H53   S    
C6    C10   A    
C12   O4    A    
C52   H50   S    
C34   C53   A    
C8    C10   A    
C22   C26   S    
C21   C24   S    
Cu2   N2    S    
C31   C36   A    
H38   N4    S    
H42   N5    S    
C49   H35   S    
C18   O6    A    
C52   N6    S    
