data_mof_unit_45871.cif
_audit_creation_date              2012-12-10T18:44:22-0500
_audit_creation_method            fapswitch 2.2
_symmetry_space_group_name_H-M    P1
_symmetry_Int_Tables_number       1
_space_group_crystal_system       triclinic
_cell_length_a                    12.756459
_cell_length_b                    10.723149
_cell_length_c                    9.830181
_cell_angle_alpha                 89.742191
_cell_angle_beta                  98.984723
_cell_angle_gamma                 89.883435
_cell_volume                      1328.14710606

loop_
_atom_site_label
_atom_site_type_symbol
_atom_type_description
_atom_site_fract_x
_atom_site_fract_y
_atom_site_fract_z
_atom_type_partial_charge
C1    C     C_R   0.500695 0.259880 0.500549 0.967149
C2    C     C_R   0.499303 0.740120 0.499451 0.967142
C3    C     C_R   0.499281 0.872512 0.498639 -0.269619
C4    C     C_R   0.500713 0.127487 0.501361 -0.269614
C5    C     C_R   0.566370 0.576886 0.084960 0.019918
C6    C     C_R   0.433630 0.423113 0.915039 0.019911
C7    C     C_R   0.566414 0.576765 0.941012 -0.038109
C8    C     C_R   0.433586 0.423235 0.058988 -0.038111
C9    C     C_R   0.297546 0.502936 0.470532 0.935762
C10   C     C_R   0.702454 0.497064 0.529467 0.935762
C11   C     C_R   0.816135 0.494611 0.552552 -0.206803
C12   C     C_R   0.183865 0.505362 0.447445 -0.206821
C13   C     C_R   0.016485 0.592753 0.342765 0.191042
C14   C     C_R   0.983500 0.407148 0.657204 0.191034
C15   C     C_R   0.126427 0.586463 0.350138 0.094790
C16   C     C_R   0.873556 0.413456 0.649821 0.094765
C17   C     C_R   0.132731 0.427966 0.530085 0.119650
C18   C     C_R   0.867278 0.571996 0.469915 0.119650
C19   C     C_R   0.029510 0.457767 0.547604 -0.039474
C20   C     C_R   0.970490 0.542171 0.452389 -0.039477
C21   C     C_R   0.469459 0.065639 0.376967 -0.306974
C22   C     C_R   0.530532 0.934361 0.623033 -0.306979
C23   C     C_R   0.468712 0.937967 0.375088 0.685837
C24   C     C_R   0.531277 0.062032 0.624913 0.685847
H1    H     H_    0.444600 0.115838 0.281360 0.215623
H2    H     H_    0.555391 0.884162 0.718640 0.215623
H3    H     H_    0.619360 0.638397 0.149900 0.171182
H4    H     H_    0.380640 0.361603 0.850100 0.171179
H5    H     H_    0.619508 0.638044 0.896767 0.150233
H6    H     H_    0.380493 0.361956 0.103233 0.150233
N1    N     N_R   0.499970 0.499970 0.857200 -0.096325
N2    N     N_R   0.500030 0.500030 0.142800 -0.096324
O1    O     O_R   0.499990 0.316750 0.614620 -0.552212
O2    O     O_R   0.500010 0.683250 0.385380 -0.552217
O3    O     O_R   0.499990 0.316780 0.385290 -0.639911
O4    O     O_R   0.500010 0.683220 0.614710 -0.639913
O5    O     O_R   0.346360 0.499970 0.595710 -0.610957
O6    O     O_R   0.653640 0.500030 0.404290 -0.610950
O7    O     O_R   0.346360 0.499990 0.366380 -0.602226
O8    O     O_R   0.653640 0.500010 0.633620 -0.602230
Zn1   Zn    Zn3+2 0.500000 0.499980 0.653120 1.025114
Zn2   Zn    Zn3+2 0.500000 0.500020 0.346880 1.025117
I1    I     I_    0.798309 0.752678 0.417968 -0.260410
I2    I     I_    0.201717 0.247277 0.581970 -0.260408
I3    I     I_    0.797095 0.296389 0.781783 -0.127203
I4    I     I_    0.202852 0.703456 0.218083 -0.127229
I5    I     I_    0.923279 0.639903 0.148047 -0.207975
I6    I     I_    0.076677 0.359854 0.851916 -0.207902
F1    F     F_    0.436771 0.879511 0.253395 -0.618097
F2    F     F_    0.563209 0.120487 0.746609 -0.618095

loop_
_geom_bond_atom_site_label_1
_geom_bond_atom_site_label_2
_ccdc_geom_bond_type
C16   I3    S    
C12   C17   A    
C14   I6    S    
C11   C18   A    
C7    H5    S    
C14   C16   A    
C11   C16   A    
C3    C23   A    
C19   C20   A    
O2    Zn2   S    
C12   C15   A    
C10   O6    A    
C1    C4    S    
C8    H6    S    
C2    O2    A    
C9    O5    A    
C2    C3    S    
C17   I2    S    
C1    O1    A    
C18   I1    S    
O5    Zn1   S    
C4    C21   A    
O4    Zn1   S    
C21   H1    S    
O8    Zn1   S    
C17   C19   A    
O6    Zn2   S    
O7    Zn2   S    
C18   C20   A    
C13   C15   A    
C21   C23   A    
C24   F2    S    
C4    C24   A    
C9    C12   S    
C22   C24   A    
C23   F1    S    
C7    N1    A    
C10   C11   S    
C6    N1    A    
C9    O7    A    
O1    Zn1   S    
C1    O3    A    
C10   O8    A    
C22   H2    S    
C2    O4    A    
C5    C7    A    
O3    Zn2   S    
N2    Zn2   S    
C3    C22   A    
C6    C8    A    
N1    Zn1   S    
C13   C20   A    
C5    H3    S    
C15   I4    S    
C13   I5    S    
C14   C19   A    
C5    N2    A    
C6    H4    S    
C8    N2    A    
