data_mof_unit_38105.cif
_audit_creation_date              2012-12-11T15:54:02-0500
_audit_creation_method            fapswitch 2.2
_symmetry_space_group_name_H-M    P1
_symmetry_Int_Tables_number       1
_space_group_crystal_system       triclinic
_cell_length_a                    10.726456
_cell_length_b                    10.774071
_cell_length_c                    17.057049
_cell_angle_alpha                 80.367686
_cell_angle_beta                  99.881682
_cell_angle_gamma                 119.231622
_cell_volume                      1686.67325827

loop_
_atom_site_label
_atom_site_type_symbol
_atom_type_description
_atom_site_fract_x
_atom_site_fract_y
_atom_site_fract_z
_atom_type_partial_charge
C1    C     C_R   0.385513 0.284961 0.631949 0.530084
C2    C     C_1   0.335520 0.189838 0.782209 -0.088568
C3    C     C_1   0.317665 0.684057 0.280397 -0.082754
C4    C     C_R   0.416362 0.620300 0.601731 0.587322
C5    C     C_1   0.296943 0.708064 0.209679 -0.071286
C6    C     C_R   0.832582 0.673705 0.158234 -0.014700
C7    C     C_R   0.797282 0.545657 0.205917 -0.039146
C8    C     C_R   0.788818 0.537397 0.285024 0.015601
C9    C     C_R   0.846405 0.786670 0.274817 -0.010250
C10   C     C_R   0.843237 0.792140 0.191325 0.232696
C11   C     C_3   0.854999 0.441099 0.218135 -0.256106
C12   C     C_R   0.499082 0.754487 0.721021 0.237193
C13   C     C_3   0.844945 0.432137 0.306374 -0.263126
C14   C     C_R   0.820615 0.656704 0.322165 -0.022232
C15   C     C_R   0.318755 0.146552 0.164243 0.025310
C16   C     C_R   0.780787 0.620596 0.626269 0.536654
C17   C     C_R   0.233520 0.195274 0.186194 0.068500
C18   C     C_R   0.241955 0.216747 0.263195 -0.015475
C19   C     C_R   0.409413 0.122204 0.302904 -0.165888
C20   C     C_R   0.403383 0.103719 0.223185 -0.170313
C21   C     C_3   0.215497 0.323133 0.152148 -0.105281
C22   C     C_3   0.231282 0.352186 0.239065 -0.217857
C23   C     C_R   0.436974 0.786834 0.774724 -0.012136
C24   C     C_R   0.330364 0.182558 0.322555 0.009610
C25   C     C_R   0.946893 0.724779 0.851916 0.562964
C26   C     C_R   0.312265 0.710510 0.895401 0.555455
C27   C     C_R   0.286867 0.119152 0.858609 0.532799
C28   C     C_R   0.352179 0.230131 0.398981 0.562294
C29   C     C_R   0.889553 0.692676 0.084197 0.552964
C30   C     C_R   0.284830 0.738995 0.125369 0.569021
C31   C     C_R   0.284664 0.103559 0.085842 0.541965
C32   C     C_R   0.361833 0.657365 0.361855 0.546693
C33   C     C_R   0.774165 0.623880 0.400830 0.534517
C34   C     C_3   0.136937 0.410658 0.800156 0.191335
C35   C     C_R   0.342877 0.673617 0.825843 0.018851
C36   C     C_R   0.286826 0.533624 0.806478 -0.051870
C37   C     C_R   0.310088 0.513197 0.733217 -0.076673
C38   C     C_3   0.731697 0.929677 0.746035 -0.014050
C39   C     C_3   0.871809 0.012779 0.708446 -0.348136
C40   C     C_3   0.331052 0.429212 0.096106 -0.265300
C41   C     C_3   0.481369 0.513499 0.137241 -0.427155
C42   C     C_3   0.421839 0.921839 0.751158 -0.259604
C43   C     C_3   0.267481 0.882149 0.715022 -0.398562
C44   C     C_3   0.907794 0.325681 0.836179 0.015120
C45   C     C_3   0.159259 0.401252 0.715595 0.202807
C46   C     C_3   0.765666 0.314209 0.794539 -0.339496
C47   C     C_3   0.988880 0.356607 0.604148 0.010679
C48   C     C_3   0.968251 0.431160 0.523289 -0.315023
C49   C     C_3   0.893910 0.923447 0.312356 -0.220884
C50   C     C_3   0.779712 0.973095 0.297779 -0.388830
C51   C     C_3   0.748215 0.911409 0.100232 0.018819
C52   C     C_3   0.781357 0.053998 0.051632 -0.358702
C53   C     C_R   0.409806 0.625811 0.685937 0.018536
C54   C     C_1   0.850142 0.668036 0.702925 -0.026749
C55   C     C_1   0.897026 0.702549 0.769658 -0.053196
C56   C     C_1   0.367662 0.236946 0.715055 -0.089723
Cr1   Cr    Cr6+3 0.608440 0.389080 0.519680 0.981907
Cr2   Cr    Cr6+3 0.288640 0.400090 0.490760 0.974003
Cr3   Cr    Cr6+3 0.602940 0.710800 0.489510 1.014454
Cr4   Cr    Cr6+3 0.052530 0.947560 0.964210 0.987855
Cr5   Cr    Cr6+3 0.059970 0.626800 0.992920 0.986459
Cr6   Cr    Cr6+3 0.373320 0.938440 0.995370 0.958530
H1    H     H_    0.778811 0.339893 0.191177 0.133552
H2    H     H_    0.150898 0.297380 0.707547 0.067893
H3    H     H_    0.968031 0.489009 0.204445 0.163287
H4    H     H_    0.741694 0.852256 0.795239 0.155990
H5    H     H_    0.712624 0.006707 0.771342 0.111376
H6    H     H_    0.855725 0.075547 0.653440 0.135317
H7    H     H_    0.957132 0.083561 0.751180 0.109806
H8    H     H_    0.905663 0.940699 0.690787 0.157312
H9    H     H_    0.487780 0.598402 0.169169 0.154849
H10   H     H_    0.512422 0.441149 0.179806 0.169911
H11   H     H_    0.557355 0.565367 0.090944 0.126215
H12   H     H_    0.762757 0.325838 0.330311 0.143767
H13   H     H_    0.337210 0.370447 0.050686 0.139127
H14   H     H_    0.297595 0.504304 0.059918 0.198391
H15   H     H_    0.196699 0.846216 0.763370 0.146931
H16   H     H_    0.262242 0.974584 0.678297 0.153919
H17   H     H_    0.226177 0.795485 0.675133 0.192161
H18   H     H_    0.453215 0.986198 0.801947 0.176692
H19   H     H_    0.493462 0.993359 0.704813 0.179785
H20   H     H_    0.915251 0.338237 0.900432 0.141638
H21   H     H_    0.902784 0.221048 0.832173 0.071108
H22   H     H_    0.756278 0.301787 0.730264 0.172835
H23   H     H_    0.951523 0.476358 0.342405 0.128864
H24   H     H_    0.675562 0.219070 0.822061 0.074179
H25   H     H_    0.755627 0.409212 0.800863 0.182280
H26   H     H_    0.884194 0.298043 0.629535 0.135720
H27   H     H_    0.024802 0.280718 0.592891 0.120273
H28   H     H_    0.956906 0.525061 0.531244 0.201624
H29   H     H_    0.061210 0.468568 0.489061 0.157013
H30   H     H_    0.871407 0.354169 0.488486 0.098003
H31   H     H_    0.795438 0.047985 0.242663 0.139746
H32   H     H_    0.670143 0.881319 0.291422 0.184595
H33   H     H_    0.789151 0.030903 0.348442 0.124312
H34   H     H_    0.478439 0.094514 0.348064 0.132665
H35   H     H_    0.926509 0.912616 0.377436 0.142441
H36   H     H_    0.992136 0.008600 0.287121 0.173121
H37   H     H_    0.665343 0.886297 0.139987 0.148447
H38   H     H_    0.703867 0.827823 0.057957 0.136393
H39   H     H_    0.863595 0.081419 0.010934 0.143736
H40   H     H_    0.682249 0.047337 0.015299 0.115722
H41   H     H_    0.822408 0.139583 0.092128 0.120927
H42   H     H_    0.463354 0.055824 0.207988 0.137212
H43   H     H_    0.104605 0.289895 0.122454 0.140323
H44   H     H_    0.331457 0.446055 0.259275 0.152106
H45   H     H_    0.131844 0.343166 0.256678 0.127666
H46   H     H_    0.135691 0.320960 0.844106 0.071264
O1    O     O_R   0.754020 0.497590 0.609930 -0.523315
O2    O     O_R   0.406180 0.826930 0.920660 -0.544368
O3    O     O_R   0.358620 0.062870 0.901950 -0.505027
O4    O     O_R   0.481420 0.271390 0.600630 -0.491333
O5    O     O_R   0.163910 0.085460 0.050210 -0.496841
O6    O     O_R   0.935200 0.815170 0.045770 -0.455008
O7    O     O_R   0.916120 0.596690 0.069430 -0.535688
O8    O     O_R   0.192310 0.631200 0.086170 -0.522689
O9    O     O_R   0.406770 0.819480 0.096420 -0.546526
O10   O     O_R   0.359170 0.055960 0.064880 -0.526123
O11   O     O_3   0.161940 0.837600 0.984160 -0.276258
O12   O     O_R   0.295080 0.533620 0.397890 -0.512953
O13   O     O_R   0.263810 0.254550 0.589590 -0.533362
O14   O     O_R   0.300820 0.531200 0.560890 -0.500689
O15   O     O_R   0.491480 0.744020 0.564270 -0.446136
O16   O     O_R   0.726290 0.693800 0.583010 -0.505143
O17   O     O_R   0.747830 0.500190 0.434090 -0.535890
O18   O     O_R   0.475680 0.273800 0.437630 -0.491491
O19   O     O_R   0.257620 0.257160 0.413750 -0.521776
O20   O     O_3   0.620132 0.860192 0.686363 -0.539331
O21   O     O_3   0.025725 0.445456 0.801424 -0.489826
O22   O     O_3   0.088034 0.459465 0.655655 -0.499613
O23   O     O_R   0.485280 0.746620 0.388440 -0.521235
O24   O     O_3   0.875228 0.921190 0.145726 -0.540908
O25   O     O_R   0.720550 0.696220 0.420010 -0.500759
O26   O     O_3   0.500010 0.499990 0.499980 -0.287834
O27   O     O_R   0.163320 0.092900 0.874450 -0.545560
O28   O     O_R   0.934650 0.822080 0.882840 -0.522922
O29   O     O_R   0.915520 0.604140 0.893670 -0.500627
O30   O     O_R   0.191760 0.638110 0.923230 -0.483182

loop_
_geom_bond_atom_site_label_1
_geom_bond_atom_site_label_2
_ccdc_geom_bond_type
C29   O6    A    
C52   H41   S    
C42   H18   S    
C8    C13   S    
C4    C53   S    
Cr5   O11   S    
C39   H6    S    
Cr4   O6    S    
C19   C20   A    
C44   H21   S    
C14   C33   S    
C7    C8    A    
C30   O8    A    
Cr2   O26   S    
C43   H16   S    
C7    C11   S    
C12   C23   A    
C52   H40   S    
C23   C42   S    
C18   C24   A    
C36   C37   A    
C1    C56   S    
C46   H25   S    
C44   H20   S    
C1    O4    A    
Cr1   O17   S    
C38   C39   S    
C50   H33   S    
Cr1   O4    S    
C43   H17   S    
C22   H45   S    
C51   H38   S    
Cr4   O11   S    
C25   O28   A    
Cr6   O9    S    
C49   H36   S    
Cr1   O1    S    
Cr6   O3    S    
C35   C36   A    
C34   O21   S    
C28   O18   A    
C48   H29   S    
Cr5   O7    S    
C2    C27   S    
C9    C10   A    
Cr4   O28   S    
C12   C53   A    
C28   O19   A    
C41   H9    S    
C37   C53   A    
C29   O7    A    
C27   O3    A    
Cr2   O19   S    
C48   H28   S    
C21   C22   S    
Cr3   O15   S    
C47   H27   S    
Cr4   O5    S    
C42   H19   S    
C32   O12   A    
C33   O17   A    
C44   C46   S    
C16   O1    A    
C10   O24   S    
C51   H37   S    
C15   C20   A    
C52   H39   S    
Cr2   O14   S    
C47   O22   S    
C51   C52   S    
C38   H4    S    
C9    C49   S    
Cr1   O18   S    
C50   H32   S    
C3    C5    T    
C44   O21   S    
C22   H44   S    
C49   H35   S    
Cr3   O25   S    
C17   C21   S    
C40   H14   S    
C4    O15   A    
C25   O29   A    
C9    C14   A    
C31   O10   A    
C47   C48   S    
Cr6   O2    S    
Cr3   O23   S    
Cr5   O8    S    
Cr2   O12   S    
C17   C18   A    
C39   H7    S    
C4    O14   A    
C34   C45   S    
C38   H5    S    
Cr4   O27   S    
Cr6   O11   S    
C41   H10   S    
C46   H22   S    
C40   C41   S    
C23   C35   A    
Cr1   O26   S    
C42   C43   S    
C37   C45   S    
C5    C30   S    
Cr3   O16   S    
C15   C17   A    
C26   O2    A    
C54   C55   T    
Cr2   O13   S    
C8    C14   A    
C45   H2    S    
C1    O13   A    
C18   C22   S    
C24   C28   S    
C26   O30   A    
C6    C10   A    
C38   O20   S    
C51   O24   S    
C50   H31   S    
C15   C31   S    
C6    C7    A    
C12   O20   S    
C30   O9    A    
C43   H15   S    
Cr3   O26   S    
C11   H1    S    
C40   H13   S    
C34   H46   S    
C47   H26   S    
C19   C24   A    
C16   O16   A    
C27   O27   A    
C2    C56   T    
C11   C13   S    
Cr5   O29   S    
C21   C40   S    
C39   H8    S    
C25   C55   S    
C34   C36   S    
C3    C32   S    
Cr5   O30   S    
C16   C54   S    
Cr6   O10   S    
C20   H42   S    
C41   H11   S    
C33   O25   A    
C26   C35   S    
C45   O22   S    
C6    C29   S    
C13   H12   S    
C49   C50   S    
C48   H30   S    
C13   H23   S    
C31   O5    A    
C32   O23   A    
C21   H43   S    
C19   H34   S    
C11   H3    S    
C46   H24   S    
