data_mof_unit_31954.cif
_audit_creation_date              2012-12-11T16:08:27-0500
_audit_creation_method            fapswitch 2.2
_symmetry_space_group_name_H-M    P1
_symmetry_Int_Tables_number       1
_space_group_crystal_system       orthorhombic
_cell_length_a                    7.412645
_cell_length_b                    21.247486
_cell_length_c                    23.530043
_cell_angle_alpha                 90.0
_cell_angle_beta                  90.0
_cell_angle_gamma                 90.0
_cell_volume                      3705.98343985

loop_
_atom_site_label
_atom_site_type_symbol
_atom_type_description
_atom_site_fract_x
_atom_site_fract_y
_atom_site_fract_z
_atom_type_partial_charge
O1    O     O_R   0.365470 0.806380 0.442440 -0.523732
O2    O     O_R   0.134530 0.193620 0.942440 -0.523732
O3    O     O_R   0.865470 0.693620 0.557560 -0.523732
O4    O     O_R   0.634530 0.306380 0.057560 -0.523732
O5    O     O_R   0.035730 0.813790 0.557160 -0.528598
O6    O     O_R   0.464270 0.186210 0.057160 -0.528598
O7    O     O_R   0.535730 0.686210 0.442840 -0.528598
O8    O     O_R   0.964270 0.313790 0.942840 -0.528598
C1    C     C_R   0.203095 0.828333 0.575508 0.703077
C2    C     C_R   0.296905 0.171667 0.075509 0.703077
C3    C     C_R   0.703095 0.671667 0.424491 0.703077
C4    C     C_R   0.796905 0.328333 0.924491 0.703077
O9    O     O_R   0.035760 0.813790 0.442850 -0.537619
O10   O     O_R   0.464240 0.186210 0.942850 -0.537619
O11   O     O_R   0.535760 0.686210 0.557150 -0.537619
O12   O     O_R   0.964240 0.313790 0.057150 -0.537619
O13   O     O_R   0.865450 0.693620 0.442430 -0.530768
O14   O     O_R   0.634550 0.306380 0.942430 -0.530768
O15   O     O_R   0.365450 0.806380 0.557570 -0.530768
O16   O     O_R   0.134550 0.193620 0.057570 -0.530768
C5    C     C_R   0.203076 0.828286 0.424460 0.701099
C6    C     C_R   0.296924 0.171714 0.924460 0.701099
C7    C     C_R   0.703076 0.671714 0.575540 0.701099
C8    C     C_R   0.796924 0.328286 0.075540 0.701099
O17   O     O_3   0.198970 0.710570 0.500000 -0.377785
O18   O     O_3   0.301030 0.289430 0.000000 -0.377785
O19   O     O_3   0.698970 0.789430 0.500000 -0.377785
O20   O     O_3   0.801030 0.210570 0.000000 -0.377785
V1    V     V_3+5 0.924120 0.757310 0.500000 1.461925
V2    V     V_3+5 0.575880 0.242690 0.000000 1.461924
V3    V     V_3+5 0.424120 0.742690 0.500000 1.461924
V4    V     V_3+5 0.075880 0.257310 0.000000 1.461924
C9    C     C_3   0.869524 0.567358 0.750677 -0.014100
C10   C     C_3   0.630476 0.432642 0.250677 -0.014100
C11   C     C_3   0.369524 0.932642 0.249323 -0.014101
C12   C     C_3   0.130476 0.067358 0.749323 -0.014100
C13   C     C_3   0.540521 0.535406 0.743958 -0.071720
C14   C     C_3   0.959479 0.464594 0.243958 -0.071721
C15   C     C_3   0.040521 0.964594 0.256042 -0.071720
C16   C     C_3   0.459479 0.035406 0.756042 -0.071720
C17   C     C_3   0.567155 0.487104 0.795508 0.143967
C18   C     C_3   0.932845 0.512896 0.295508 0.143967
C19   C     C_3   0.067155 0.012896 0.204492 0.143967
C20   C     C_3   0.432845 0.987104 0.704492 0.143967
H1    H     H_    0.812259 0.610400 0.769919 0.139074
H2    H     H_    0.687741 0.389600 0.269919 0.139074
H3    H     H_    0.312259 0.889600 0.230081 0.139074
H4    H     H_    0.187741 0.110400 0.730081 0.139074
H5    H     H_    0.437213 0.515778 0.714615 0.164545
H6    H     H_    0.062787 0.484222 0.214615 0.164545
H7    H     H_    0.937213 0.984222 0.285385 0.164545
H8    H     H_    0.562787 0.015777 0.785385 0.164545
C21   C     C_1   0.793543 0.374630 0.879193 -0.162824
C22   C     C_1   0.706456 0.625370 0.379193 -0.162824
C23   C     C_1   0.293544 0.125370 0.120807 -0.162824
C24   C     C_1   0.206456 0.874630 0.620807 -0.162824
C25   C     C_3   0.721969 0.542596 0.708507 0.143410
C26   C     C_3   0.778031 0.457404 0.208507 0.143410
C27   C     C_3   0.221969 0.957404 0.291493 0.143410
C28   C     C_3   0.278031 0.042596 0.791493 0.143410
C29   C     C_3   0.906412 0.518351 0.800489 0.381443
C30   C     C_3   0.593588 0.481649 0.300489 0.381444
C31   C     C_3   0.406412 0.981649 0.199511 0.381443
C32   C     C_3   0.093588 0.018351 0.699511 0.381443
C33   C     C_3   0.767176 0.461480 0.794952 0.093777
C34   C     C_3   0.732824 0.538520 0.294951 0.093777
C35   C     C_3   0.267176 0.038520 0.205048 0.093777
C36   C     C_3   0.232824 0.961480 0.705048 0.093777
C37   C     C_3   0.798725 0.428289 0.736144 -0.459676
C38   C     C_3   0.701275 0.571710 0.236145 -0.459674
C39   C     C_3   0.298725 0.071710 0.263855 -0.459674
C40   C     C_3   0.201274 0.928289 0.763855 -0.459675
C41   C     C_3   0.770035 0.474751 0.684663 0.369067
C42   C     C_3   0.729965 0.525249 0.184663 0.369067
C43   C     C_3   0.270035 0.025249 0.315337 0.369067
C44   C     C_3   0.229965 0.974751 0.815337 0.369067
C45   C     C_1   0.789453 0.413497 0.841309 0.014105
C46   C     C_1   0.710547 0.586503 0.341309 0.014105
C47   C     C_1   0.289453 0.086503 0.158691 0.014105
C48   C     C_1   0.210547 0.913497 0.658691 0.014105
C49   C     C_1   0.706540 0.588475 0.660333 0.050733
C50   C     C_1   0.793460 0.411525 0.160333 0.050733
C51   C     C_1   0.206540 0.911525 0.339667 0.050733
C52   C     C_1   0.293460 0.088474 0.839667 0.050733
C53   C     C_1   0.705614 0.626168 0.621470 -0.153362
C54   C     C_1   0.794387 0.373832 0.121470 -0.153362
C55   C     C_1   0.205613 0.873832 0.378530 -0.153362
C56   C     C_1   0.294387 0.126168 0.878530 -0.153362
H9    H     H_    0.931577 0.404415 0.734792 0.170070
H10   H     H_    0.568423 0.595585 0.234792 0.170069
H11   H     H_    0.431577 0.095585 0.265208 0.170069
H12   H     H_    0.068423 0.904415 0.765208 0.170069
H13   H     H_    0.705831 0.387449 0.732183 0.173582
H14   H     H_    0.794169 0.612551 0.232183 0.173581
H15   H     H_    0.205831 0.112551 0.267817 0.173581
H16   H     H_    0.294169 0.887449 0.767817 0.173581
N1    N     N_3   0.892756 0.550867 0.855877 -0.658054
H17   H     H_    0.882708 0.518798 0.889390 0.255283
H18   H     H_    0.786665 0.583005 0.858231 0.245897
N2    N     N_3   0.607244 0.449133 0.355877 -0.658054
H19   H     H_    0.617292 0.481202 0.389390 0.255282
H20   H     H_    0.713335 0.416995 0.358231 0.245897
N3    N     N_3   0.392756 0.949133 0.144123 -0.658054
H21   H     H_    0.382708 0.981202 0.110610 0.255283
H22   H     H_    0.286665 0.916995 0.141769 0.245897
N4    N     N_3   0.107244 0.050867 0.644123 -0.658054
H23   H     H_    0.117292 0.018798 0.610610 0.255283
H24   H     H_    0.213335 0.083005 0.641769 0.245897
N5    N     N_3   0.030626 0.591834 0.721353 -0.658446
H25   H     H_    0.112227 0.557046 0.704052 0.257809
H26   H     H_    0.107168 0.618432 0.749909 0.256545
N6    N     N_3   0.469374 0.408166 0.221353 -0.658446
H27   H     H_    0.387773 0.442954 0.204052 0.257809
H28   H     H_    0.392832 0.381568 0.249909 0.256545
N7    N     N_3   0.530626 0.908166 0.278647 -0.658446
H29   H     H_    0.612227 0.942954 0.295948 0.257809
H30   H     H_    0.607168 0.881568 0.250091 0.256545
N8    N     N_3   0.969374 0.091834 0.778647 -0.658446
H31   H     H_    0.887772 0.057046 0.795948 0.257809
H32   H     H_    0.892832 0.118432 0.750091 0.256545
N9    N     N_3   0.089683 0.493612 0.797899 -0.623635
H33   H     H_    0.118795 0.475558 0.758059 0.217668
H34   H     H_    0.176226 0.531534 0.803042 0.261356
N10   N     N_3   0.410316 0.506388 0.297899 -0.623634
H35   H     H_    0.381205 0.524442 0.258059 0.217668
H36   H     H_    0.323774 0.468466 0.303042 0.261356
N11   N     N_3   0.589683 0.006388 0.202101 -0.623634
H37   H     H_    0.618795 0.024442 0.241941 0.217668
H38   H     H_    0.676226 0.968466 0.196958 0.261355
N12   N     N_3   0.910316 0.993612 0.702101 -0.623635
H39   H     H_    0.881205 0.975558 0.741941 0.217668
H40   H     H_    0.823774 0.031534 0.696957 0.261356
N13   N     N_3   0.463556 0.595973 0.762467 -0.709013
H41   H     H_    0.540329 0.617875 0.793855 0.255912
H42   H     H_    0.451298 0.626657 0.727993 0.241011
N14   N     N_3   0.036444 0.404027 0.262467 -0.709013
H43   H     H_    0.959671 0.382125 0.293855 0.255912
H44   H     H_    0.048702 0.373343 0.227993 0.241011
N15   N     N_3   0.963556 0.904027 0.237533 -0.709013
H45   H     H_    0.040329 0.882125 0.206145 0.255912
H46   H     H_    0.951298 0.873343 0.272007 0.241011
N16   N     N_3   0.536444 0.095972 0.737533 -0.709013
H47   H     H_    0.459671 0.117875 0.706145 0.255912
H48   H     H_    0.548702 0.126657 0.772007 0.241011
N17   N     N_3   0.530051 0.516149 0.851368 -0.690592
H49   H     H_    0.532807 0.482319 0.883668 0.229502
H50   H     H_    0.403315 0.536748 0.853618 0.264745
N18   N     N_3   0.969949 0.483851 0.351368 -0.690592
H51   H     H_    0.967193 0.517681 0.383669 0.229502
H52   H     H_    0.096685 0.463252 0.353618 0.264745
N19   N     N_3   0.030051 0.983851 0.148632 -0.690592
H53   H     H_    0.032807 0.017681 0.116331 0.229502
H54   H     H_    0.903315 0.963252 0.146382 0.264745
N20   N     N_3   0.469949 0.016149 0.648632 -0.690592
H55   H     H_    0.467193 0.982319 0.616331 0.229502
H56   H     H_    0.596685 0.036748 0.646382 0.264745
C57   C     C_1   0.442593 0.432595 0.788636 0.297447
N21   N     N_1   0.349462 0.389206 0.783515 -0.354117
C58   C     C_1   0.057407 0.567405 0.288636 0.297447
N22   N     N_1   0.150538 0.610794 0.283515 -0.354117
C59   C     C_1   0.942593 0.067405 0.211364 0.297447
N23   N     N_1   0.849462 0.110794 0.216485 -0.354117
C60   C     C_1   0.557407 0.932595 0.711364 0.297447
N24   N     N_1   0.650538 0.889206 0.716485 -0.354117
N25   N     N_3   0.931506 0.477748 0.647647 -0.656172
H57   H     H_    0.048413 0.463580 0.668585 0.213026
H58   H     H_    0.919507 0.446489 0.613526 0.232758
N26   N     N_3   0.568494 0.522251 0.147647 -0.656172
H59   H     H_    0.451587 0.536420 0.168585 0.213026
H60   H     H_    0.580493 0.553512 0.113526 0.232757
N27   N     N_3   0.431506 0.022251 0.352353 -0.656172
H61   H     H_    0.548413 0.036420 0.331415 0.213026
H62   H     H_    0.419507 0.053512 0.386474 0.232757
N28   N     N_3   0.068494 0.977748 0.852353 -0.656172
H63   H     H_    0.951587 0.963580 0.831415 0.213026
H64   H     H_    0.080493 0.946489 0.886474 0.232757
N29   N     N_3   0.616699 0.451422 0.650490 -0.698528
H65   H     H_    0.643171 0.405585 0.636494 0.233359
H66   H     H_    0.602087 0.479102 0.614014 0.236552
N30   N     N_3   0.883301 0.548578 0.150490 -0.698528
H67   H     H_    0.856829 0.594415 0.136494 0.233359
H68   H     H_    0.897913 0.520898 0.114014 0.236552
N31   N     N_3   0.116699 0.048578 0.349510 -0.698528
H69   H     H_    0.143171 0.094415 0.363506 0.233359
H70   H     H_    0.102087 0.020898 0.385986 0.236552
N32   N     N_3   0.383301 0.951422 0.849510 -0.698528
H71   H     H_    0.356829 0.905585 0.863506 0.233359
H72   H     H_    0.397913 0.979102 0.885986 0.236552

loop_
_geom_bond_atom_site_label_1
_geom_bond_atom_site_label_2
_ccdc_geom_bond_type
C36   C48   S    
C29   N1    S    
C15   H7    S    
N27   H61   S    
C5    C55   S    
O1    C5    A    
C57   N21   T    
C16   C28   S    
C16   N16   S    
O19   V1    S    
O13   V1    S    
O3    C7    A    
C18   C58   S    
O1    V3    S    
C40   C44   S    
O15   V3    S    
C39   H11   S    
C42   N26   S    
C59   N23   T    
C44   N32   S    
C34   C38   S    
O7    C3    A    
N27   H62   S    
N25   H57   S    
C31   N11   S    
C32   C36   S    
C11   C27   S    
C38   H14   S    
C27   C51   S    
C14   C18   S    
C37   H13   S    
N31   H70   S    
C40   H12   S    
C10   C26   S    
C33   C37   S    
C39   H15   S    
N4    H23   S    
N7    H29   S    
N1    H17   S    
C10   C30   S    
C10   N6    S    
O2    V4    S    
C43   N31   S    
C25   C41   S    
O3    V1    S    
N8    H31   S    
N1    H18   S    
C14   C26   S    
C1    O15   A    
C60   N24   T    
C2    O16   A    
N7    H30   S    
C38   C42   S    
N19   H53   S    
C37   C41   S    
C10   H2    S    
C20   C60   S    
C6    C56   S    
C12   N8    S    
N20   H56   S    
C4    C21   S    
C49   C53   T    
C41   N29   S    
O11   C7    A    
C12   C32   S    
N26   H60   S    
C18   N18   S    
O12   C8    A    
C38   H10   S    
O10   V2    S    
C37   H9    S    
C30   N10   S    
N6    H27   S    
N17   H50   S    
N30   H68   S    
N17   H49   S    
O5    V1    S    
C34   C46   S    
C31   C35   S    
O7    V3    S    
C30   C34   S    
O8    V4    S    
C35   C47   S    
N18   H51   S    
C26   C50   S    
C31   N3    S    
O18   V4    S    
C17   C33   S    
C42   N30   S    
N29   H66   S    
C16   H8    S    
O11   V3    S    
C28   C44   S    
O4    V2    S    
C36   C40   S    
N12   H40   S    
N31   H69   S    
N11   H38   S    
C19   C35   S    
O5    C1    A    
C9    H1    S    
C13   N13   S    
C33   C45   S    
C23   C47   T    
C58   N22   T    
O8    C4    A    
C15   C27   S    
N2    H20   S    
N20   H55   S    
O9    C5    A    
N3    H22   S    
C1    C24   S    
C11   N7    S    
C2    C23   S    
C13   H5    S    
C3    C22   S    
C17   C57   S    
N6    H28   S    
C19   C59   S    
C41   N25   S    
N26   H59   S    
O6    V2    S    
C32   N12   S    
C14   N14   S    
C43   N27   S    
C21   C45   T    
C30   N2    S    
C20   C36   S    
C9    N5    S    
C28   C52   S    
N32   H72   S    
N11   H37   S    
C27   C43   S    
N16   H48   S    
C19   N19   S    
N30   H67   S    
C26   C42   S    
N14   H44   S    
N10   H36   S    
O16   V4    S    
O9    V1    S    
C3    O13   A    
C9    C25   S    
O17   V3    S    
C18   C34   S    
C52   C56   T    
C29   N9    S    
N18   H52   S    
N14   H43   S    
C12   C28   S    
C51   C55   T    
O6    C2    A    
C15   C19   S    
N15   H45   S    
N9    H33   S    
C32   N4    S    
C14   H6    S    
O12   V4    S    
C24   C48   T    
C20   N20   S    
O10   C6    A    
N5    H26   S    
N12   H39   S    
N32   H71   S    
C50   C54   T    
O2    C6    A    
C39   C43   S    
N15   H46   S    
N13   H41   S    
N4    H24   S    
C9    C29   S    
O4    C8    A    
O20   V2    S    
N2    H19   S    
N28   H64   S    
C12   H4    S    
C35   C39   S    
C44   N28   S    
N19   H54   S    
C13   C17   S    
C25   C49   S    
N8    H32   S    
N9    H34   S    
O14   V2    S    
C40   H16   S    
C29   C33   S    
C16   C20   S    
C17   N17   S    
N25   H58   S    
N29   H65   S    
C7    C53   S    
C4    O14   A    
N3    H21   S    
N13   H42   S    
N16   H47   S    
C11   C31   S    
C11   H3    S    
N5    H25   S    
C8    C54   S    
C15   N15   S    
C13   C25   S    
N10   H35   S    
C22   C46   T    
N28   H63   S    
