data_mof_unit_43551.cif
_audit_creation_date              2012-10-26T19:46:55-0400
_audit_creation_method            fapswitch 2.2
_symmetry_space_group_name_H-M    P1
_symmetry_Int_Tables_number       1
_space_group_crystal_system       triclinic
_cell_length_a                    10.796146
_cell_length_b                    9.551319
_cell_length_c                    15.970615
_cell_angle_alpha                 90.058652
_cell_angle_beta                  90.466737
_cell_angle_gamma                 90.567878
_cell_volume                      1646.7123137

loop_
_atom_site_label
_atom_site_type_symbol
_atom_type_description
_atom_site_fract_x
_atom_site_fract_y
_atom_site_fract_z
_atom_type_partial_charge
C1    C     C_R   0.871537 0.502395 0.501845 0.036508
C2    C     C_R   0.612678 0.516347 0.956992 -0.096113
C3    C     C_R   0.501034 0.500376 0.912660 0.043218
C4    C     C_R   0.500818 0.500348 0.087361 0.042702
C5    C     C_1   0.501051 0.500261 0.823084 -0.050519
C6    C     C_1   0.500636 0.500154 0.176937 -0.049313
C7    C     C_1   0.500301 0.499988 0.252081 -0.015736
C8    C     C_1   0.500684 0.500143 0.747933 -0.016526
C9    C     C_R   0.423049 0.073256 0.447686 0.450156
C10   C     C_R   0.577001 0.926890 0.552238 0.445824
C11   C     C_R   0.576974 0.075281 0.552282 0.453197
C12   C     C_R   0.128493 0.497255 0.500402 0.032524
C13   C     C_R   0.423084 0.924797 0.447645 0.450934
C14   C     C_R   0.064134 0.530148 0.425474 0.012968
C15   C     C_R   0.935817 0.472918 0.577428 0.016397
C16   C     C_R   0.933558 0.529868 0.425813 0.009494
C17   C     C_R   0.066423 0.464286 0.575856 0.009904
C18   C     C_3   0.135784 0.558469 0.344805 -0.277330
C19   C     C_3   0.166971 0.422302 0.299892 -0.422510
C20   C     C_3   0.863224 0.453981 0.658829 -0.282216
C21   C     C_3   0.819473 0.594067 0.693483 -0.409497
C22   C     C_3   0.859408 0.554895 0.345190 -0.272146
C23   C     C_R   0.262627 0.499277 0.499976 0.520348
C24   C     C_3   0.834742 0.710532 0.331091 -0.410609
C25   C     C_3   0.140639 0.420462 0.653647 -0.269124
C26   C     C_3   0.164767 0.542971 0.713205 -0.435321
C27   C     C_R   0.737363 0.500721 0.501690 0.521426
C28   C     C_R   0.499797 0.499966 0.341286 0.524247
C29   C     C_R   0.499959 0.500036 0.658717 0.520532
C30   C     C_R   0.389293 0.484468 0.955642 -0.101304
C31   C     C_R   0.612568 0.516345 0.044395 -0.101993
C32   C     C_R   0.389186 0.484458 0.043023 -0.095681
Cu1   Cu    Cu3+1 0.500000 0.640660 0.500000 1.061933
Cu2   Cu    Cu3+1 0.500000 0.359340 0.500000 1.072798
F1    F     F_    0.345579 0.141497 0.394985 -0.594432
F2    F     F_    0.654615 0.859025 0.604893 -0.599546
F3    F     F_    0.654425 0.145542 0.605037 -0.589622
F4    F     F_    0.345753 0.854613 0.394796 -0.592820
H1    H     H_    0.302403 0.472071 0.075945 0.109391
H2    H     H_    0.742859 0.635195 0.654987 0.241938
H3    H     H_    0.785016 0.579685 0.758270 0.130817
H4    H     H_    0.895697 0.672794 0.694363 0.176018
H5    H     H_    0.782243 0.383487 0.648579 0.215024
H6    H     H_    0.916324 0.402590 0.709142 0.148502
H7    H     H_    0.922538 0.771623 0.328807 0.163741
H8    H     H_    0.784376 0.724355 0.270810 0.137874
H9    H     H_    0.777087 0.753626 0.381898 0.195955
H10   H     H_    0.769639 0.497533 0.345754 0.143619
H11   H     H_    0.906533 0.510840 0.289874 0.137126
H12   H     H_    0.699451 0.528705 0.924054 0.109193
H13   H     H_    0.227164 0.508980 0.764694 0.133389
H14   H     H_    0.209889 0.631131 0.679458 0.174900
H15   H     H_    0.077795 0.579308 0.741695 0.154284
H16   H     H_    0.095995 0.331530 0.686505 0.144539
H17   H     H_    0.231526 0.376191 0.637516 0.168787
H18   H     H_    0.302580 0.472064 0.921689 0.104865
H19   H     H_    0.699259 0.528720 0.078400 0.106981
H20   H     H_    0.229478 0.358127 0.339179 0.239189
H21   H     H_    0.081606 0.360713 0.285777 0.159800
H22   H     H_    0.214512 0.446366 0.240148 0.135732
H23   H     H_    0.084739 0.627176 0.301137 0.153387
H24   H     H_    0.222558 0.617796 0.357431 0.220756
N1    N     N_R   0.500000 0.852070 0.500000 -0.297550
N2    N     N_R   0.500000 0.147930 0.500000 -0.295897
O1    O     O_R   0.319640 0.618740 0.499990 -0.468167
O2    O     O_R   0.680360 0.381260 0.500010 -0.468508
O3    O     O_R   0.680360 0.618740 0.500010 -0.482198
O4    O     O_R   0.319640 0.381260 0.499990 -0.478039
O5    O     O_R   0.499970 0.618750 0.380310 -0.464664
O6    O     O_R   0.500030 0.381250 0.619690 -0.464429
O7    O     O_R   0.500030 0.618750 0.619690 -0.467337
O8    O     O_R   0.499970 0.381250 0.380310 -0.461770

loop_
_geom_bond_atom_site_label_1
_geom_bond_atom_site_label_2
_ccdc_geom_bond_type
C23   O4    A    
C12   C17   A    
C5    C8    T    
C22   H10   S    
C11   F3    S    
C24   H7    S    
C6    C7    T    
C1    C15   A    
C26   H14   S    
C19   H22   S    
C3    C30   A    
C9    N2    A    
Cu2   O6    S    
C28   O5    A    
C13   N1    A    
Cu1   O5    S    
Cu1   N1    S    
C24   H8    S    
C23   O1    A    
Cu2   N2    S    
C2    C3    A    
Cu1   O1    S    
C18   H23   S    
C1    C16   A    
C28   O8    A    
C26   H13   S    
C20   C21   S    
C30   C32   A    
C12   C23   S    
C31   H19   S    
C13   F4    S    
C4    C32   A    
C21   H2    S    
C22   H11   S    
C21   H3    S    
C8    C29   S    
C29   O7    A    
C4    C6    S    
Cu2   O2    S    
C20   H6    S    
C12   C14   A    
Cu1   Cu2   S    
C22   C24   S    
C25   H17   S    
C2    C31   A    
C19   H20   S    
C27   O2    A    
C15   C20   S    
C14   C16   A    
C4    C31   A    
C27   O3    A    
C10   C11   A    
Cu1   O7    S    
C9    F1    S    
C21   H4    S    
C26   H15   S    
Cu2   O8    S    
C20   H5    S    
C25   H16   S    
Cu1   O3    S    
C1    C27   S    
C11   N2    A    
C32   H1    S    
Cu2   O4    S    
C15   C17   A    
C9    C13   A    
C18   C19   S    
C10   F2    S    
C2    H12   S    
C19   H21   S    
C25   C26   S    
C29   O6    A    
C24   H9    S    
C30   H18   S    
C14   C18   S    
C18   H24   S    
C7    C28   S    
C10   N1    A    
C16   C22   S    
C17   C25   S    
C3    C5    S    
