data_mof_unit_56862.cif
_audit_creation_date              2012-12-10T18:42:27-0500
_audit_creation_method            fapswitch 2.2
_symmetry_space_group_name_H-M    P1
_symmetry_Int_Tables_number       1
_space_group_crystal_system       triclinic
_cell_length_a                    8.574849
_cell_length_b                    10.591217
_cell_length_c                    9.977664
_cell_angle_alpha                 90.480101
_cell_angle_beta                  98.831187
_cell_angle_gamma                 91.135008
_cell_volume                      895.174384574

loop_
_atom_site_label
_atom_site_type_symbol
_atom_type_description
_atom_site_fract_x
_atom_site_fract_y
_atom_site_fract_z
_atom_type_partial_charge
C1    C     C_R   0.500337 0.260878 0.499519 0.928979
C2    C     C_R   0.499661 0.739121 0.500481 0.928997
C3    C     C_R   0.201524 0.499026 0.464213 0.967915
C4    C     C_R   0.798476 0.500974 0.535787 0.967917
C5    C     C_2   0.035914 0.497758 0.445381 -0.298518
C6    C     C_2   0.964086 0.502243 0.554620 -0.298542
C7    C     C_R   0.356162 0.062370 0.463290 0.026998
C8    C     C_R   0.643852 0.937627 0.536705 0.026999
C9    C     C_R   0.356237 0.932150 0.464527 0.304039
C10   C     C_R   0.643775 0.067849 0.535474 0.304037
C11   C     C_R   0.499753 0.871616 0.501357 -0.227253
C12   C     C_R   0.500255 0.128384 0.498642 -0.227266
C13   C     C_R   0.595283 0.581974 0.085143 0.336639
C14   C     C_R   0.404719 0.418022 0.914859 0.336613
C15   C     C_R   0.594530 0.582945 0.942686 0.053474
C16   C     C_R   0.405505 0.417030 0.057320 0.053464
H1    H     H_    0.973657 0.493010 0.341886 0.202441
H2    H     H_    0.026343 0.506990 0.658114 0.202433
N1    N     N_R   0.499960 0.499970 0.857200 -0.158015
N2    N     N_R   0.500040 0.500030 0.142800 -0.158018
O1    O     O_R   0.499990 0.316750 0.614620 -0.556665
O2    O     O_R   0.500010 0.683250 0.385380 -0.556670
O3    O     O_R   0.499990 0.316780 0.385290 -0.644556
O4    O     O_R   0.500010 0.683220 0.614710 -0.644562
O5    O     O_R   0.271750 0.499990 0.587840 -0.583350
O6    O     O_R   0.728250 0.500010 0.412160 -0.583354
O7    O     O_R   0.271750 0.500010 0.358510 -0.634183
O8    O     O_R   0.728250 0.499990 0.641490 -0.634159
Zn1   Zn    Zn3+2 0.500000 0.499980 0.653120 0.999146
Zn2   Zn    Zn3+2 0.500000 0.500020 0.346880 0.999136
N3    N     N_3   0.209792 0.126390 0.427746 -0.355502
H3    H     H_    0.217275 0.182112 0.342984 0.182091
H4    H     H_    0.193413 0.185758 0.508379 0.238424
N4    N     N_3   0.790238 0.873603 0.572213 -0.355514
H5    H     H_    0.782789 0.817856 0.656960 0.182096
H6    H     H_    0.806616 0.814271 0.491544 0.238472
Br1   Br    Br    0.159896 0.838721 0.416862 -0.423175
Br2   Br    Br    0.840115 0.161278 0.583137 -0.423156
Br3   Br    Br    0.734730 0.698867 0.195333 -0.419908
Br4   Br    Br    0.265268 0.301132 0.804671 -0.419890
N5    N     N_3   0.692898 0.675038 0.890947 -0.395330
H7    H     H_    0.622303 0.740097 0.833873 0.229765
H8    H     H_    0.768489 0.631178 0.833986 0.226511
N6    N     N_3   0.307244 0.324886 0.109078 -0.395325
H9    H     H_    0.377919 0.259678 0.165960 0.229704
H10   H     H_    0.231821 0.368714 0.166215 0.226619

loop_
_geom_bond_atom_site_label_1
_geom_bond_atom_site_label_2
_ccdc_geom_bond_type
C2    O2    A    
C4    O6    A    
N3    H4    S    
C1    O1    A    
N5    H8    S    
N5    H7    S    
C16   N6    S    
N3    H3    S    
C16   N2    A    
C10   Br2   S    
C3    O7    A    
C8    N4    S    
O7    Zn2   S    
C15   N1    A    
C9    C11   A    
C7    C12   A    
C1    C12   S    
C10   C12   A    
C8    C11   A    
C2    C11   S    
C8    C10   A    
O8    Zn1   S    
C4    O8    A    
N6    H10   S    
C1    O3    A    
N4    H6    S    
C13   C15   A    
C2    O4    A    
C5    C6    D    
C6    H2    S    
C14   C16   A    
C13   Br3   S    
C7    N3    S    
C14   Br4   S    
N1    Zn1   S    
O3    Zn2   S    
C3    O5    A    
C5    H1    S    
N6    H9    S    
C15   N5    S    
O5    Zn1   S    
C4    C6    S    
N4    H5    S    
C7    C9    A    
O4    Zn1   S    
N2    Zn2   S    
O2    Zn2   S    
C13   N2    A    
O1    Zn1   S    
C14   N1    A    
C9    Br1   S    
C3    C5    S    
O6    Zn2   S    
