data_mof_unit_36727.cif
_audit_creation_date              2012-12-11T16:24:03-0500
_audit_creation_method            fapswitch 2.2
_symmetry_space_group_name_H-M    P1
_symmetry_Int_Tables_number       1
_space_group_crystal_system       triclinic
_cell_length_a                    14.746195
_cell_length_b                    14.744017
_cell_length_c                    33.295447
_cell_angle_alpha                 96.051742
_cell_angle_beta                  96.280483
_cell_angle_gamma                 61.205861
_cell_volume                      6294.3304859

loop_
_atom_site_label
_atom_site_type_symbol
_atom_type_description
_atom_site_fract_x
_atom_site_fract_y
_atom_site_fract_z
_atom_type_partial_charge
C1    C     C_R   0.390838 0.699790 0.446156 0.545629
C2    C     C_R   0.333757 0.355141 0.307634 0.002793
C3    C     C_R   0.415042 0.269984 0.326763 0.283984
C4    C     C_R   0.430419 0.273753 0.369207 0.254867
C5    C     C_R   0.394427 0.256170 0.165557 -0.101216
C6    C     C_R   0.384949 0.234789 0.123992 -0.110694
C7    C     C_R   0.212564 0.383132 0.120530 -0.132151
C8    C     C_R   0.222154 0.404110 0.162168 -0.115451
C9    C     C_R   0.311848 0.338765 0.184794 0.039359
C10   C     C_1   0.316100 0.349786 0.228033 -0.006882
C11   C     C_1   0.321934 0.354155 0.264350 0.020035
C12   C     C_R   0.405831 0.386258 0.433909 0.554482
C13   C     C_R   0.292355 0.295849 0.101331 0.021115
C14   C     C_R   0.753249 0.374489 0.409386 0.021284
C15   C     C_R   0.782314 0.438319 0.391862 -0.130566
C16   C     C_R   0.807759 0.418798 0.351710 -0.119363
C17   C     C_R   0.805182 0.334790 0.328441 0.035961
C18   C     C_R   0.785607 0.265417 0.347021 -0.131117
C19   C     C_R   0.759574 0.285236 0.387203 -0.134137
C20   C     C_R   0.823184 0.312932 0.203019 0.351008
C21   C     C_R   0.814363 0.325221 0.284451 0.345171
C22   C     C_R   0.818685 0.391612 0.139816 -0.113080
C23   C     C_R   0.700298 0.410150 0.447369 0.541524
C24   C     C_R   0.854056 0.381566 0.101278 0.260229
C25   C     C_R   0.914764 0.195757 0.099778 -0.181899
C26   C     C_R   0.882136 0.206439 0.138483 -0.139947
C27   C     C_R   0.838270 0.303776 0.159509 -0.007454
C28   C     C_R   0.905398 0.281956 0.081554 0.035534
C29   C     C_R   0.370201 0.755445 0.409278 0.021386
C30   C     C_R   0.276103 0.784599 0.386023 -0.131739
C31   C     C_R   0.265504 0.813054 0.346562 -0.121532
C32   C     C_R   0.348691 0.813141 0.329718 0.034494
C33   C     C_R   0.439032 0.794023 0.354301 -0.124678
C34   C     C_R   0.393847 0.700893 0.561359 0.547678
C35   C     C_R   0.449753 0.765287 0.393818 -0.136739
C36   C     C_R   0.342280 0.828392 0.204661 0.351971
C37   C     C_R   0.344557 0.823210 0.285952 0.348212
C38   C     C_R   0.256578 0.833507 0.135539 -0.139473
C39   C     C_R   0.237696 0.864242 0.096062 -0.180441
C40   C     C_R   0.385560 0.896842 0.105052 0.249327
C41   C     C_R   0.403068 0.866987 0.144849 -0.099695
C42   C     C_R   0.336093 0.839731 0.160894 -0.008068
C43   C     C_R   0.297800 0.902027 0.081140 0.021678
C44   C     C_R   0.374631 0.369791 0.586048 -0.019004
C45   C     C_R   0.407654 0.388839 0.549114 0.547501
C46   C     C_R   0.291151 0.450003 0.605967 -0.152152
C47   C     C_R   0.275975 0.440869 0.645570 -0.171768
C48   C     C_R   0.345006 0.352228 0.666267 0.044013
C49   C     C_R   0.425443 0.268409 0.645513 0.264287
C50   C     C_R   0.437258 0.276948 0.605101 -0.101573
C51   C     C_R   0.325264 0.355363 0.790973 0.342009
C52   C     C_R   0.337038 0.351889 0.710033 0.369779
C53   C     C_R   0.220501 0.405932 0.851370 -0.122019
C54   C     C_R   0.207570 0.384326 0.889458 -0.132539
C55   C     C_R   0.388548 0.254209 0.895044 -0.131079
C56   C     C_R   0.700451 0.413828 0.562986 0.555657
C57   C     C_R   0.401575 0.276074 0.857086 -0.120731
C58   C     C_R   0.316463 0.348525 0.834071 0.036218
C59   C     C_R   0.290336 0.304753 0.910706 0.022741
C60   C     C_R   0.751342 0.381013 0.603680 0.024094
C61   C     C_R   0.782169 0.445592 0.628890 -0.174362
C62   C     C_R   0.809457 0.428426 0.669937 -0.118865
C63   C     C_R   0.806792 0.346312 0.686246 0.001442
C64   C     C_R   0.782209 0.278131 0.661281 -0.104715
C65   C     C_R   0.755751 0.293605 0.619966 0.250994
C66   C     C_R   0.885070 0.217363 0.822723 -0.112910
C67   C     C_R   0.370908 0.367206 0.392006 -0.024594
C68   C     C_R   0.914002 0.203472 0.863890 -0.128237
C69   C     C_R   0.865395 0.386053 0.875175 -0.125563
C70   C     C_R   0.836412 0.399705 0.834071 -0.109869
C71   C     C_R   0.849330 0.314777 0.807675 0.041340
C72   C     C_1   0.833668 0.326096 0.764914 -0.020035
C73   C     C_1   0.822170 0.335444 0.729037 -0.018223
C74   C     C_R   0.908064 0.287001 0.890233 0.020815
C75   C     C_R   0.378625 0.752530 0.602401 -0.017520
C76   C     C_R   0.281568 0.795772 0.618695 -0.146130
C77   C     C_R   0.272369 0.823552 0.659953 -0.168755
C78   C     C_R   0.286891 0.449671 0.372337 -0.191601
C79   C     C_R   0.359796 0.808775 0.685408 0.060332
C80   C     C_R   0.456529 0.772626 0.669483 0.287124
C81   C     C_R   0.465230 0.743492 0.627707 -0.126646
C82   C     C_R   0.396124 0.882648 0.832683 -0.106202
C83   C     C_R   0.376475 0.911240 0.873432 -0.128462
C84   C     C_R   0.228340 0.879712 0.863313 -0.125838
C85   C     C_R   0.248245 0.851090 0.822617 -0.116135
C86   C     C_R   0.330368 0.855263 0.807056 0.036965
C87   C     C_1   0.342537 0.838339 0.764343 -0.009645
C88   C     C_1   0.350647 0.825575 0.728383 0.033272
C89   C     C_R   0.268172 0.443291 0.330495 -0.179831
C90   C     C_R   0.290311 0.913271 0.888858 0.020387
C91   C     C_R   0.962990 0.264420 0.045458 0.570724
C92   C     C_R   0.272892 0.259650 0.059952 0.546333
C93   C     C_R   0.259356 0.959766 0.043946 0.556629
C94   C     C_R   0.962053 0.267952 0.930883 0.545661
C95   C     C_R   0.270893 0.264305 0.945485 0.543665
C96   C     C_R   0.256091 0.964937 0.928975 0.539594
Cr1   Cr    Cr6+3 0.576280 0.580550 0.506370 1.004171
Cr2   Cr    Cr6+3 0.346780 0.572400 0.496520 1.006894
Cr3   Cr    Cr6+3 0.576960 0.347070 0.497150 1.042615
Cr4   Cr    Cr6+3 0.087320 0.083240 0.984860 1.008635
Cr5   Cr    Cr6+3 0.087720 0.316210 0.996740 1.014672
Cr6   Cr    Cr6+3 0.317350 0.090340 0.995890 1.026661
H1    H     H_    0.738055 0.234254 0.399976 0.142683
H2    H     H_    0.824784 0.472396 0.338411 0.133850
H3    H     H_    0.784463 0.199255 0.329931 0.120011
H4    H     H_    0.779296 0.467790 0.155013 0.128372
H5    H     H_    0.953898 0.118536 0.085315 0.141399
H6    H     H_    0.896863 0.137500 0.152755 0.147081
H7    H     H_    0.212881 0.779091 0.397315 0.129198
H8    H     H_    0.522859 0.744265 0.411216 0.126351
H9    H     H_    0.171498 0.864827 0.078184 0.138259
H10   H     H_    0.464196 0.205371 0.182970 0.117178
H11   H     H_    0.503888 0.795083 0.342338 0.135129
H12   H     H_    0.465638 0.871364 0.163752 0.144806
H13   H     H_    0.241136 0.522332 0.591883 0.140998
H14   H     H_    0.499053 0.212695 0.589312 0.139810
H15   H     H_    0.131044 0.425072 0.900935 0.130253
H16   H     H_    0.454046 0.193474 0.911041 0.127597
H17   H     H_    0.477045 0.231762 0.844899 0.131879
H18   H     H_    0.895016 0.151264 0.802397 0.106917
H19   H     H_    0.779044 0.215258 0.674160 0.099244
H20   H     H_    0.779846 0.512790 0.617419 0.128766
H21   H     H_    0.808356 0.475469 0.822621 0.114244
H22   H     H_    0.425464 0.936964 0.892245 0.126746
H23   H     H_    0.460059 0.885830 0.820843 0.120475
H24   H     H_    0.213786 0.803182 0.599953 0.133521
H25   H     H_    0.161373 0.880536 0.874208 0.127027
H26   H     H_    0.157938 0.468309 0.176921 0.109630
H27   H     H_    0.779106 0.507123 0.408296 0.128920
N1    N     N_R   0.810500 0.399942 0.225519 -0.234098
N2    N     N_R   0.247472 0.417268 0.727693 -0.247209
N3    N     N_R   0.420896 0.289944 0.733761 -0.183316
N4    N     N_R   0.415055 0.291204 0.773354 -0.245496
N5    N     N_R   0.805877 0.406075 0.265381 -0.229862
N6    N     N_R   0.826121 0.238314 0.261972 -0.242807
N7    N     N_R   0.831254 0.231982 0.222022 -0.233355
N8    N     N_R   0.264754 0.824010 0.221388 -0.228259
N9    N     N_R   0.266087 0.821062 0.261198 -0.232732
N10   N     N_R   0.422368 0.827289 0.269257 -0.225281
N11   N     N_R   0.420889 0.830524 0.229396 -0.228180
N12   N     N_R   0.241513 0.418492 0.767360 -0.238450
O1    O     O_R   0.679450 0.499830 0.463150 -0.520953
O2    O     O_R   0.356040 0.477400 0.534170 -0.503078
O3    O     O_R   0.495910 0.323070 0.537100 -0.501815
O4    O     O_R   0.663920 0.359620 0.542290 -0.444961
O5    O     O_3   0.500010 0.500010 0.500010 -0.243171
O6    O     O_R   0.170070 0.978950 0.027680 -0.531930
O7    O     O_R   0.001760 0.175230 0.026640 -0.514382
O8    O     O_R   0.984760 0.333570 0.037150 -0.470858
O9    O     O_R   0.183410 0.309240 0.041890 -0.511634
O10   O     O_R   0.340240 0.172500 0.045430 -0.498480
O11   O     O_R   0.309670 0.000990 0.032050 -0.447391
O12   O     O_R   0.480650 0.664000 0.464630 -0.501467
O13   O     O_R   0.168330 0.982130 0.939200 -0.521269
O14   O     O_R   0.000140 0.178170 0.944610 -0.501625
O15   O     O_R   0.983010 0.336750 0.948660 -0.519241
O16   O     O_R   0.181800 0.312190 0.959860 -0.505080
O17   O     O_R   0.338500 0.175680 0.956950 -0.523937
O18   O     O_R   0.308050 0.003930 0.950020 -0.507271
O19   O     O_3   0.164130 0.163270 0.992500 -0.243035
O20   O     O_R   0.323930 0.675950 0.455370 -0.520697
O21   O     O_R   0.354700 0.475360 0.451930 -0.511728
O22   O     O_R   0.494470 0.320860 0.448390 -0.468320
O23   O     O_R   0.662580 0.357570 0.460050 -0.505101
O24   O     O_R   0.680900 0.502040 0.551870 -0.534992
O25   O     O_R   0.481990 0.666040 0.546870 -0.504570
O26   O     O_R   0.325370 0.678160 0.544080 -0.515983
H28   H     H_    0.447748 0.167108 0.110104 0.148463
O27   O     O_3   0.836082 0.468191 0.081906 -0.542572
C97   C     C_3   0.880525 0.524124 0.105589 0.001512
H29   H     H_    0.957626 0.471845 0.120499 0.125576
H30   H     H_    0.827453 0.575834 0.129015 0.124776
C98   C     C_3   0.896119 0.591550 0.078447 -0.362636
H31   H     H_    0.820670 0.645720 0.063402 0.150368
H32   H     H_    0.929354 0.637216 0.096821 0.084018
H33   H     H_    0.950253 0.542187 0.054993 0.168501
H34   H     H_    0.194003 0.829633 0.328630 0.135171
H35   H     H_    0.205021 0.810487 0.146835 0.144148
O28   O     O_3   0.446271 0.934305 0.091999 -0.540586
C99   C     C_3   0.534931 0.849955 0.075904 -0.002459
H36   H     H_    0.512867 0.806376 0.050842 0.129302
H37   H     H_    0.583938 0.796306 0.099886 0.125917
C100  C     C_3   0.598825 0.890943 0.058863 -0.358507
H38   H     H_    0.623721 0.933318 0.083262 0.149815
H39   H     H_    0.668663 0.825459 0.045836 0.083285
H40   H     H_    0.551923 0.944428 0.034697 0.164018
H41   H     H_    0.213701 0.506099 0.660779 0.138883
O29   O     O_3   0.488914 0.176775 0.664225 -0.548050
C101  C     C_3   0.591777 0.161367 0.669180 0.004169
H42   H     H_    0.594672 0.232197 0.683144 0.149631
H43   H     H_    0.627901 0.139284 0.639676 0.147472
C102  C     C_3   0.655932 0.073328 0.696920 -0.368327
H44   H     H_    0.656019 0.001063 0.683516 0.148624
H45   H     H_    0.737058 0.060164 0.700869 0.082887
H46   H     H_    0.623013 0.092994 0.727017 0.183649
O30   O     O_3   0.478970 0.182091 0.304005 -0.542180
C103  C     C_3   0.568771 0.188373 0.297412 0.003823
H47   H     H_    0.613881 0.188231 0.326522 0.161651
H48   H     H_    0.548406 0.259619 0.281747 0.130133
C104  C     C_3   0.637616 0.094830 0.270752 -0.363771
H49   H     H_    0.595260 0.093397 0.241188 0.158749
H50   H     H_    0.708438 0.099113 0.265368 0.119575
H51   H     H_    0.660849 0.022335 0.285808 0.166284
H52   H     H_    0.153794 0.463293 0.834603 0.132053
H53   H     H_    0.947100 0.126200 0.874522 0.127301
O31   O     O_3   0.720294 0.231703 0.597120 -0.549620
C105  C     C_3   0.805975 0.135540 0.586879 -0.015402
H54   H     H_    0.844069 0.090860 0.614277 0.113381
H55   H     H_    0.863775 0.146362 0.571829 0.126740
C106  C     C_3   0.768238 0.072684 0.557471 -0.362978
H56   H     H_    0.730493 0.115079 0.529624 0.163778
H57   H     H_    0.834891 0.996666 0.549087 0.086780
H58   H     H_    0.711444 0.059130 0.571691 0.139495
H59   H     H_    0.859689 0.451886 0.894727 0.127811
O32   O     O_3   0.510702 0.189180 0.387553 -0.540454
C107  C     C_3   0.471377 0.124816 0.397678 0.015069
H60   H     H_    0.439919 0.096675 0.370091 0.160142
H61   H     H_    0.409344 0.166800 0.419300 0.118902
C108  C     C_3   0.558635 0.030962 0.417829 -0.365445
H62   H     H_    0.590667 0.056317 0.445862 0.155309
H63   H     H_    0.528667 0.979466 0.425804 0.091943
H64   H     H_    0.621436 0.986878 0.396853 0.158733
H65   H     H_    0.828469 0.481679 0.689240 0.127686
O33   O     O_3   0.541744 0.755512 0.696421 -0.553329
C109  C     C_3   0.613422 0.777028 0.680109 -0.013180
H66   H     H_    0.573913 0.847868 0.662444 0.133943
H67   H     H_    0.665333 0.709355 0.660689 0.124788
C110  C     C_3   0.680559 0.795184 0.714611 -0.368207
H68   H     H_    0.721385 0.725971 0.732910 0.161157
H69   H     H_    0.739152 0.809495 0.702226 0.085948
H70   H     H_    0.631586 0.863626 0.734357 0.162478
H71   H     H_    0.540601 0.706966 0.615425 0.118856
H72   H     H_    0.197135 0.829663 0.802952 0.109782
H73   H     H_    0.197679 0.852517 0.672336 0.112034
H74   H     H_    0.238955 0.521767 0.388941 0.150060
H75   H     H_    0.140485 0.431738 0.103861 0.119089
H76   H     H_    0.205484 0.509183 0.315783 0.134086

loop_
_geom_bond_atom_site_label_1
_geom_bond_atom_site_label_2
_ccdc_geom_bond_type
C8    C9    A    
C103  C104  S    
C66   C68   A    
C87   C88   T    
C38   H35   S    
C55   C59   A    
Cr2   O2    S    
C2    C89   A    
C95   O17   A    
C76   H24   S    
C41   C42   A    
C74   C94   S    
C36   C42   S    
C107  C108  S    
C41   H12   S    
O32   C107  S    
O33   C109  S    
Cr6   O17   S    
C110  H69   S    
N6    N7    A    
C82   H23   S    
C98   H31   S    
C99   H36   S    
C25   C28   A    
C26   C27   A    
C29   C30   A    
C59   C95   S    
C46   H13   S    
C31   H34   S    
C85   H72   S    
C107  H61   S    
C38   C42   A    
C100  H39   S    
C5    C6    A    
C33   C35   A    
C35   H8    S    
C108  H63   S    
C97   H29   S    
C103  H47   S    
Cr4   O6    S    
C68   C74   A    
C15   C16   A    
O27   C97   S    
Cr5   O9    S    
O30   C103  S    
C109  C110  S    
C105  H55   S    
C103  H48   S    
C18   C19   A    
Cr1   O5    S    
C56   O4    A    
C101  H43   S    
C79   C88   S    
C44   C50   A    
C109  H67   S    
C46   C47   A    
C19   H1    S    
C70   H21   S    
C8    H26   S    
C40   C43   A    
C96   O13   A    
C47   C48   A    
Cr5   O19   S    
C44   C46   A    
N3    N4    A    
C81   H71   S    
C56   O24   A    
C104  H49   S    
C45   O3    A    
C107  H60   S    
C23   O1    A    
C93   O6    A    
C70   C71   A    
Cr1   O12   S    
C83   H22   S    
C55   H16   S    
C36   N8    A    
Cr2   O26   S    
N2    N12   A    
C99   C100  S    
C34   C75   S    
C57   H17   S    
Cr6   O10   S    
C61   C62   A    
C84   H25   S    
C39   H9    S    
Cr3   O4    S    
Cr5   O16   S    
C110  H68   S    
C4    O32   S    
C66   H18   S    
N1    N5    A    
C67   C78   A    
C84   C90   A    
C2    C11   S    
C91   O7    A    
Cr2   O21   S    
C53   C54   A    
C16   H2    S    
C64   H19   S    
C109  H66   S    
C54   C59   A    
C51   N12   A    
C78   C89   A    
C12   C67   S    
C6    H28   S    
C53   H52   S    
C95   O16   A    
C30   H7    S    
C105  H54   S    
C52   N3    A    
C102  H46   S    
C89   H76   S    
Cr3   O3    S    
C7    C8    A    
C84   C85   A    
C100  H40   S    
Cr6   O19   S    
C108  H62   S    
C91   O8    A    
O31   C105  S    
C80   C81   A    
C39   C43   A    
C65   O31   S    
C63   C73   S    
Cr5   O15   S    
C25   C26   A    
C85   C86   A    
C12   O21   A    
C17   C21   S    
C3    C4    A    
Cr3   O23   S    
C60   C61   A    
C102  H45   S    
C14   C23   S    
C101  C102  S    
C75   C76   A    
O29   C101  S    
C100  H38   S    
C5    C9    A    
C62   C63   A    
C105  C106  S    
C40   O28   S    
Cr4   O19   S    
C31   C32   A    
C15   H27   S    
C7    C13   A    
C30   C31   A    
C53   C58   A    
C92   O10   A    
C1    C29   S    
C17   C18   A    
C94   O14   A    
C77   C79   A    
C69   C74   A    
C51   C58   S    
C32   C37   S    
C20   N7    A    
C1    O12   A    
C24   O27   S    
C36   N11   A    
C98   H32   S    
C66   C71   A    
Cr3   O22   S    
Cr4   O14   S    
C22   H4    S    
C40   C41   A    
C5    H10   S    
Cr3   O5    S    
C60   C65   A    
C106  H56   S    
C106  H57   S    
C37   N9    A    
C55   C57   A    
C13   C92   S    
C92   O9    A    
C49   C50   A    
C22   C24   A    
C79   C80   A    
C47   H41   S    
C34   O26   A    
C21   N5    A    
Cr2   O20   S    
C44   C45   S    
C25   H5    S    
C45   O2    A    
C23   O23   A    
C9    C10   S    
C98   H33   S    
Cr4   O13   S    
C101  H42   S    
C83   C90   A    
C7    H75   S    
C48   C49   A    
C99   H37   S    
C86   C87   S    
C52   N2    A    
C14   C19   A    
C75   C81   A    
C69   H59   S    
C24   C28   A    
C20   N1    A    
C72   C73   T    
Cr6   O18   S    
C4    C67   A    
N10   N11   A    
C90   C96   S    
C20   C27   S    
O28   C99   S    
C106  H58   S    
Cr2   O5    S    
N8    N9    A    
C29   C35   A    
C33   H11   S    
C3    O30   S    
C22   C27   A    
C32   C33   A    
C2    C3    A    
C18   H3    S    
C71   C72   S    
C82   C86   A    
C102  H44   S    
C6    C13   A    
C76   C77   A    
C51   N4    A    
C57   C58   A    
C38   C39   A    
C49   O29   S    
C97   H30   S    
Cr4   O7    S    
C104  H51   S    
Cr1   O24   S    
C64   C65   A    
Cr5   O8    S    
C77   H73   S    
C43   C93   S    
C78   H74   S    
C28   C91   S    
C50   H14   S    
C110  H70   S    
C69   C70   A    
Cr1   O1    S    
C12   O22   A    
C10   C11   T    
C1    O20   A    
C63   C64   A    
C56   C60   S    
C48   C52   S    
C96   O18   A    
C94   O15   A    
C82   C83   A    
C37   N10   A    
C54   H15   S    
C68   H53   S    
C80   O33   S    
C14   C15   A    
C61   H20   S    
C93   O11   A    
C62   H65   S    
C34   O25   A    
C21   N6    A    
C104  H50   S    
C26   H6    S    
Cr1   O25   S    
C16   C17   A    
Cr6   O11   S    
C108  H64   S    
C97   C98   S    
