data_mof_unit_63957.cif
_audit_creation_date              2012-12-10T19:26:52-0500
_audit_creation_method            fapswitch 2.2
_symmetry_space_group_name_H-M    P1
_symmetry_Int_Tables_number       1
_space_group_crystal_system       tetragonal
_cell_length_a                    30.558671
_cell_length_b                    30.558671
_cell_length_c                    27.700055
_cell_angle_alpha                 90.0
_cell_angle_beta                  90.0
_cell_angle_gamma                 90.0
_cell_volume                      25867.2081008

loop_
_atom_site_label
_atom_site_type_symbol
_atom_type_description
_atom_site_fract_x
_atom_site_fract_y
_atom_site_fract_z
_atom_type_partial_charge
C1    C     C_R   0.118347 0.381653 0.250000 -0.201185
C2    C     C_R   0.881653 0.381653 0.250000 -0.201185
C3    C     C_1   1.000000 0.500000 0.525492 0.024152
C4    C     C_1   1.000000 0.500000 0.974507 0.024152
C5    C     C_1   0.000000 0.500000 0.025492 0.024152
C6    C     C_1   0.500000 0.000000 0.974507 0.024152
C7    C     C_1   0.500000 0.000000 0.025492 0.024152
C8    C     C_R   0.114705 0.345181 0.280564 -0.255903
C9    C     C_R   0.885294 0.654818 0.719436 -0.255903
C10   C     C_R   0.345185 0.885291 0.280570 -0.255903
C11   C     C_R   0.654817 0.114707 0.719434 -0.255903
C12   C     C_R   0.885289 0.654813 0.280573 -0.255903
C13   C     C_R   0.381653 0.118347 0.750000 -0.201185
C14   C     C_R   0.114707 0.345183 0.719433 -0.255903
C15   C     C_R   0.654817 0.114707 0.280567 -0.255903
C16   C     C_R   0.345182 0.885294 0.719435 -0.255904
C17   C     C_R   0.114706 0.654818 0.719435 -0.255902
C18   C     C_R   0.885293 0.345183 0.280567 -0.255902
C19   C     C_R   0.345184 0.114707 0.719432 -0.255903
C20   C     C_R   0.654813 0.885289 0.280573 -0.255903
C21   C     C_R   0.885293 0.345183 0.719434 -0.255903
C22   C     C_R   0.114709 0.654815 0.280570 -0.255902
C23   C     C_R   0.654818 0.885294 0.719436 -0.255903
C24   C     C_R   0.618347 0.881653 0.250000 -0.201184
C25   C     C_R   0.345182 0.114706 0.280565 -0.255903
C26   C     C_R   0.614705 0.845182 0.780564 -0.255903
C27   C     C_R   0.385294 0.154818 0.219435 -0.255904
C28   C     C_R   0.845183 0.385293 0.780566 -0.255903
C29   C     C_R   0.154815 0.614709 0.219430 -0.255903
C30   C     C_R   0.385292 0.154816 0.780568 -0.255902
C31   C     C_R   0.614711 0.845187 0.219427 -0.255902
C32   C     C_R   0.154818 0.614706 0.780565 -0.255904
C33   C     C_R   0.845183 0.385293 0.219433 -0.255902
C34   C     C_R   0.614707 0.154817 0.219433 -0.255903
C35   C     C_R   0.881653 0.381653 0.750000 -0.201185
C36   C     C_R   0.385294 0.845182 0.780565 -0.255902
C37   C     C_R   0.845187 0.614711 0.219427 -0.255902
C38   C     C_R   0.154816 0.385293 0.780567 -0.255903
C39   C     C_R   0.385291 0.845185 0.219430 -0.255903
C40   C     C_R   0.614707 0.154817 0.780566 -0.255903
C41   C     C_R   0.154819 0.385295 0.219436 -0.255903
C42   C     C_R   0.845182 0.614705 0.780564 -0.255903
C43   C     C_R   0.146932 0.312861 0.280607 0.600140
C44   C     C_R   0.853068 0.687139 0.719392 0.600141
C45   C     C_R   0.312864 0.853064 0.280613 0.600140
C46   C     C_R   0.118347 0.618347 0.250000 -0.201184
C47   C     C_R   0.687138 0.146933 0.719391 0.600141
C48   C     C_R   0.853062 0.687133 0.280617 0.600139
C49   C     C_R   0.146934 0.312863 0.719389 0.600140
C50   C     C_R   0.687137 0.146934 0.280610 0.600140
C51   C     C_R   0.312861 0.853067 0.719392 0.600142
C52   C     C_R   0.146933 0.687139 0.719391 0.600141
C53   C     C_R   0.853066 0.312862 0.280610 0.600140
C54   C     C_R   0.312863 0.146934 0.719389 0.600141
C55   C     C_R   0.687133 0.853062 0.280617 0.600140
C56   C     C_R   0.853067 0.312862 0.719391 0.600141
C57   C     C_R   0.618347 0.881653 0.750000 -0.201185
C58   C     C_R   0.146936 0.687135 0.280614 0.600139
C59   C     C_R   0.687139 0.853068 0.719392 0.600142
C60   C     C_R   0.312862 0.146933 0.280608 0.600141
C61   C     C_R   0.646932 0.812861 0.780608 0.600141
C62   C     C_R   0.353067 0.187139 0.219391 0.600142
C63   C     C_R   0.812862 0.353067 0.780609 0.600141
C64   C     C_R   0.187135 0.646936 0.219386 0.600140
C65   C     C_R   0.353066 0.187137 0.780611 0.600140
C66   C     C_R   0.646938 0.812867 0.219383 0.600140
C67   C     C_R   0.187139 0.646932 0.780608 0.600142
C68   C     C_R   0.381653 0.118347 0.250000 -0.201185
C69   C     C_R   0.812863 0.353066 0.219390 0.600139
C70   C     C_R   0.646934 0.187137 0.219390 0.600140
C71   C     C_R   0.353067 0.812861 0.780608 0.600141
C72   C     C_R   0.812867 0.646938 0.219383 0.600140
C73   C     C_R   0.187137 0.353066 0.780611 0.600140
C74   C     C_R   0.353064 0.812864 0.219387 0.600139
C75   C     C_R   0.646933 0.187138 0.780609 0.600141
C76   C     C_R   0.187139 0.353068 0.219393 0.600140
C77   C     C_R   0.812861 0.646932 0.780608 0.600142
C78   C     C_R   0.183428 0.316572 0.250000 -0.200035
C79   C     C_R   0.282473 0.217527 0.250000 0.179116
C80   C     C_R   0.816572 0.683428 0.750000 -0.200034
C81   C     C_R   0.316572 0.816572 0.250000 -0.200033
C82   C     C_R   0.683428 0.183428 0.750000 -0.200033
C83   C     C_R   0.816572 0.683428 0.250000 -0.200036
C84   C     C_R   0.183428 0.316572 0.750000 -0.200034
C85   C     C_R   0.683428 0.183428 0.250000 -0.200034
C86   C     C_R   0.316572 0.816572 0.750000 -0.200037
C87   C     C_R   0.183428 0.683428 0.750000 -0.200037
C88   C     C_R   0.816572 0.316572 0.250000 -0.200034
C89   C     C_R   0.316572 0.183428 0.750000 -0.200034
C90   C     C_R   0.717527 0.782473 0.750000 0.179112
C91   C     C_R   0.683428 0.816572 0.250000 -0.200036
C92   C     C_R   0.816572 0.316572 0.750000 -0.200033
C93   C     C_R   0.183428 0.683428 0.250000 -0.200033
C94   C     C_R   0.683428 0.816572 0.750000 -0.200034
C95   C     C_R   0.316572 0.183428 0.250000 -0.200035
C96   C     C_R   0.217527 0.717527 0.250000 0.179111
C97   C     C_R   0.881653 0.618347 0.750000 -0.201185
C98   C     C_R   0.782473 0.282473 0.750000 0.179112
C99   C     C_R   0.717527 0.782473 0.250000 0.179114
C100  C     C_R   0.282473 0.217527 0.750000 0.179113
C101  C     C_R   0.782473 0.282473 0.250000 0.179112
C102  C     C_R   0.217527 0.717527 0.750000 0.179113
C103  C     C_R   0.282473 0.782473 0.750000 0.179113
C104  C     C_R   0.717527 0.217527 0.250000 0.179113
C105  C     C_R   0.217527 0.282473 0.750000 0.179112
C106  C     C_R   0.782473 0.717527 0.250000 0.179114
C107  C     C_R   0.717527 0.217527 0.750000 0.179112
C108  C     C_R   0.381653 0.881653 0.250000 -0.201184
C109  C     C_R   0.282473 0.782473 0.250000 0.179110
C110  C     C_R   0.782473 0.717527 0.750000 0.179112
C111  C     C_R   0.217527 0.282473 0.250000 0.179112
C112  C     C_R   0.261582 0.293847 0.256787 -0.093418
C113  C     C_R   0.738418 0.706152 0.743213 -0.093418
C114  C     C_R   0.293848 0.738417 0.256778 -0.093420
C115  C     C_R   0.706152 0.261582 0.743215 -0.093419
C116  C     C_R   0.738417 0.706151 0.256775 -0.093419
C117  C     C_R   0.261582 0.293848 0.743217 -0.093419
C118  C     C_R   0.706152 0.261582 0.256783 -0.093420
C119  C     C_R   0.618347 0.118347 0.750000 -0.201185
C120  C     C_R   0.293847 0.738418 0.743214 -0.093419
C121  C     C_R   0.261582 0.706152 0.743214 -0.093419
C122  C     C_R   0.738418 0.293848 0.256783 -0.093419
C123  C     C_R   0.293848 0.261582 0.743217 -0.093420
C124  C     C_R   0.706151 0.738417 0.256775 -0.093419
C125  C     C_R   0.738418 0.293848 0.743215 -0.093419
C126  C     C_R   0.261582 0.706152 0.256778 -0.093420
C127  C     C_R   0.706152 0.738418 0.743213 -0.093419
C128  C     C_R   0.293847 0.261581 0.256787 -0.093420
C129  C     C_R   0.761581 0.793847 0.756787 -0.093418
C130  C     C_R   0.881653 0.618347 0.250000 -0.201184
C131  C     C_R   0.238419 0.206152 0.243213 -0.093420
C132  C     C_R   0.793848 0.238418 0.756784 -0.093419
C133  C     C_R   0.206152 0.761583 0.243222 -0.093420
C134  C     C_R   0.238418 0.206152 0.756783 -0.093419
C135  C     C_R   0.761583 0.793849 0.243225 -0.093419
C136  C     C_R   0.206152 0.761582 0.756786 -0.093419
C137  C     C_R   0.793848 0.238418 0.243217 -0.093419
C138  C     C_R   0.761582 0.206152 0.243217 -0.093420
C139  C     C_R   0.238418 0.793848 0.756786 -0.093419
C140  C     C_R   0.793849 0.761583 0.243225 -0.093419
C141  C     C_R   0.118347 0.381653 0.750000 -0.201185
C142  C     C_R   0.206152 0.238418 0.756783 -0.093420
C143  C     C_R   0.238418 0.793848 0.243222 -0.093419
C144  C     C_R   0.761582 0.206152 0.756784 -0.093419
C145  C     C_R   0.206153 0.238418 0.243213 -0.093418
C146  C     C_R   0.793847 0.761582 0.756787 -0.093419
C147  C     C_R   0.500000 0.000000 0.120845 0.822472
C148  C     C_R   0.500000 0.000000 0.879155 0.822472
C149  C     C_R   0.000000 0.500000 0.120845 0.822472
C150  C     C_R   0.000000 0.500000 0.879155 0.822472
C151  C     C_R   0.000000 0.500000 0.620845 0.822472
C152  C     C_R   0.618347 0.118347 0.250000 -0.201185
C153  C     C_R   0.000000 0.500000 0.379155 0.822472
C154  C     C_R   0.500000 0.000000 0.620845 0.822472
C155  C     C_R   0.500000 0.000000 0.379155 0.822472
C156  C     C_R   0.415737 0.915737 0.250000 0.876474
C157  C     C_R   0.584263 0.084263 0.750000 0.876474
C158  C     C_R   0.915737 0.584263 0.250000 0.876474
C159  C     C_R   0.084263 0.415737 0.750000 0.876474
C160  C     C_R   0.584263 0.084263 0.250000 0.876474
C161  C     C_R   0.415737 0.915737 0.750000 0.876474
C162  C     C_R   0.084263 0.415737 0.250000 0.876474
C163  C     C_R   0.381653 0.881653 0.750000 -0.201184
C164  C     C_R   0.915737 0.584263 0.750000 0.876474
C165  C     C_R   0.415737 0.084263 0.750000 0.876474
C166  C     C_R   0.584262 0.915737 0.250000 0.876474
C167  C     C_R   0.915737 0.415737 0.750000 0.876474
C168  C     C_R   0.084262 0.584263 0.250000 0.876474
C169  C     C_R   0.584262 0.915737 0.750000 0.876474
C170  C     C_R   0.415737 0.084263 0.250000 0.876474
C171  C     C_R   0.084262 0.584263 0.750000 0.876474
C172  C     C_R   0.915737 0.415737 0.250000 0.876474
C173  C     C_1   0.500000 0.000000 0.430976 -0.120326
C174  C     C_R   0.118347 0.618347 0.750000 -0.201184
C175  C     C_1   0.500000 0.000000 0.569024 -0.120326
C176  C     C_1   0.000000 0.500000 0.430976 -0.120326
C177  C     C_1   1.000000 0.500000 0.569024 -0.120326
C178  C     C_1   1.000000 0.500000 0.930976 -0.120326
C179  C     C_1   0.000000 0.500000 0.069024 -0.120326
C180  C     C_1   0.500000 0.000000 0.930976 -0.120326
C181  C     C_1   0.500000 0.000000 0.069024 -0.120326
C182  C     C_1   0.500000 0.000000 0.474508 0.024152
C183  C     C_1   0.500000 0.000000 0.525492 0.024152
C184  C     C_1   0.000000 0.500000 0.474508 0.024152
F1    F     F_    0.142933 0.278444 0.311290 -0.627826
F2    F     F_    0.857063 0.278448 0.311296 -0.627826
F3    F     F_    0.278449 0.142937 0.688703 -0.627826
F4    F     F_    0.721544 0.857055 0.311309 -0.627825
F5    F     F_    0.857064 0.278447 0.688706 -0.627826
F6    F     F_    0.142941 0.721548 0.311303 -0.627827
F7    F     F_    0.721555 0.857066 0.688709 -0.627826
F8    F     F_    0.278446 0.142934 0.311292 -0.627825
F9    F     F_    0.642933 0.778445 0.811291 -0.627825
F10   F     F_    0.357065 0.221554 0.188708 -0.627825
F11   F     F_    0.778447 0.357064 0.811294 -0.627826
F12   F     F_    0.857066 0.721555 0.688709 -0.627825
F13   F     F_    0.221548 0.642941 0.188697 -0.627827
F14   F     F_    0.357062 0.221551 0.811297 -0.627826
F15   F     F_    0.642945 0.778456 0.188691 -0.627825
F16   F     F_    0.221554 0.642934 0.811292 -0.627825
F17   F     F_    0.778448 0.357063 0.188704 -0.627826
F18   F     F_    0.642937 0.221552 0.188704 -0.627826
F19   F     F_    0.357066 0.778446 0.811292 -0.627824
F20   F     F_    0.778456 0.642945 0.188691 -0.627825
F21   F     F_    0.221551 0.357063 0.811297 -0.627826
F22   F     F_    0.357059 0.778452 0.188698 -0.627827
F23   F     F_    0.278452 0.857059 0.311302 -0.627827
F24   F     F_    0.642936 0.221553 0.811294 -0.627826
F25   F     F_    0.221556 0.357067 0.188710 -0.627826
F26   F     F_    0.778445 0.642933 0.811291 -0.627826
F27   F     F_    0.721553 0.142936 0.688706 -0.627826
F28   F     F_    0.857055 0.721544 0.311309 -0.627825
F29   F     F_    0.142937 0.278449 0.688703 -0.627825
F30   F     F_    0.721552 0.142937 0.311296 -0.627826
F31   F     F_    0.278446 0.857066 0.688708 -0.627825
F32   F     F_    0.142934 0.721554 0.688708 -0.627824
H1    H     H_    0.270902 0.327639 0.262591 0.176147
H2    H     H_    0.729097 0.327639 0.262584 0.176147
H3    H     H_    0.327640 0.270903 0.737417 0.176147
H4    H     H_    0.672359 0.729095 0.262569 0.176146
H5    H     H_    0.729097 0.327639 0.737414 0.176147
H6    H     H_    0.270904 0.672359 0.262574 0.176149
H7    H     H_    0.672361 0.729098 0.737410 0.176148
H8    H     H_    0.327639 0.270902 0.262590 0.176145
H9    H     H_    0.770902 0.827639 0.762590 0.176148
H10   H     H_    0.229098 0.172361 0.237409 0.176144
H11   H     H_    0.827639 0.229097 0.762586 0.176147
H12   H     H_    0.729098 0.672361 0.737410 0.176148
H13   H     H_    0.172359 0.770904 0.237426 0.176149
H14   H     H_    0.229097 0.172360 0.762582 0.176147
H15   H     H_    0.770905 0.827641 0.237431 0.176146
H16   H     H_    0.172361 0.770903 0.762589 0.176146
H17   H     H_    0.827639 0.229097 0.237416 0.176148
H18   H     H_    0.770903 0.172360 0.237417 0.176147
H19   H     H_    0.229097 0.827639 0.762589 0.176146
H20   H     H_    0.827641 0.770905 0.237431 0.176146
H21   H     H_    0.172360 0.229097 0.762582 0.176147
H22   H     H_    0.229096 0.827641 0.237426 0.176149
H23   H     H_    0.327641 0.729096 0.262574 0.176149
H24   H     H_    0.770903 0.172361 0.762586 0.176147
H25   H     H_    0.172361 0.229098 0.237409 0.176147
H26   H     H_    0.827639 0.770902 0.762590 0.176148
H27   H     H_    0.086974 0.341679 0.304604 0.212013
H28   H     H_    0.913025 0.658320 0.695395 0.212014
H29   H     H_    0.341686 0.913019 0.304615 0.212013
H30   H     H_    0.658318 0.086977 0.695392 0.212013
H31   H     H_    0.913015 0.658310 0.304621 0.212013
H32   H     H_    0.086978 0.341683 0.695389 0.212013
H33   H     H_    0.658317 0.086978 0.304610 0.212013
H34   H     H_    0.672361 0.270903 0.737414 0.176147
H35   H     H_    0.341680 0.913024 0.695394 0.212013
H36   H     H_    0.086976 0.658319 0.695394 0.212013
H37   H     H_    0.913022 0.341683 0.304609 0.212013
H38   H     H_    0.341683 0.086979 0.695389 0.212013
H39   H     H_    0.658310 0.913015 0.304621 0.212013
H40   H     H_    0.913023 0.341682 0.695392 0.212013
H41   H     H_    0.086982 0.658313 0.304615 0.212013
H42   H     H_    0.658320 0.913025 0.695395 0.212014
H43   H     H_    0.341681 0.086976 0.304606 0.212013
H44   H     H_    0.586975 0.841680 0.804605 0.212014
H45   H     H_    0.729095 0.672359 0.262569 0.176146
H46   H     H_    0.413024 0.158319 0.195393 0.212013
H47   H     H_    0.841682 0.413023 0.804608 0.212013
H48   H     H_    0.158313 0.586982 0.195384 0.212013
H49   H     H_    0.413021 0.158316 0.804611 0.212013
H50   H     H_    0.586985 0.841690 0.195379 0.212013
H51   H     H_    0.158319 0.586976 0.804606 0.212013
H52   H     H_    0.841683 0.413022 0.195390 0.212013
H53   H     H_    0.586978 0.158317 0.195390 0.212013
H54   H     H_    0.413024 0.841681 0.804606 0.212013
H55   H     H_    0.841690 0.586985 0.195379 0.212013
H56   H     H_    0.270903 0.327640 0.737417 0.176147
H57   H     H_    0.158317 0.413021 0.804611 0.212013
H58   H     H_    0.413019 0.841686 0.195385 0.212013
H59   H     H_    0.586977 0.158318 0.804608 0.212013
H60   H     H_    0.158321 0.413025 0.195396 0.212013
H61   H     H_    0.841680 0.586975 0.804605 0.212014
H62   H     H_    0.672360 0.270903 0.262583 0.176147
H63   H     H_    0.327639 0.729097 0.737411 0.176146
H64   H     H_    0.270902 0.672361 0.737411 0.176146
O1    O     O_3   0.500000 0.000000 0.250000 -0.493895
O2    O     O_R   0.500000 0.036340 0.856210 -0.629018
O3    O     O_R   0.963660 0.500000 0.143790 -0.629018
O4    O     O_R   0.036340 0.500000 0.856210 -0.629018
O5    O     O_R   1.000000 0.536340 0.643790 -0.629017
O6    O     O_R   1.000000 0.463660 0.356210 -0.629017
O7    O     O_R   0.536340 1.000000 0.643790 -0.629017
O8    O     O_R   0.463660 0.000000 0.356210 -0.629017
O9    O     O_R   1.000000 0.463660 0.643790 -0.629017
O10   O     O_R   0.000000 0.536340 0.356210 -0.629018
O11   O     O_R   0.463660 1.000000 0.643790 -0.629017
O12   O     O_3   0.500000 1.000000 0.750000 -0.493896
O13   O     O_R   0.536340 0.000000 0.356210 -0.629018
O14   O     O_R   0.448830 0.912520 0.222210 -0.641455
O15   O     O_R   0.551170 0.087480 0.777790 -0.641455
O16   O     O_R   0.912520 0.551170 0.222210 -0.641455
O17   O     O_R   0.087480 0.448830 0.777790 -0.641456
O18   O     O_R   0.551170 0.087480 0.222210 -0.641456
O19   O     O_R   0.448830 0.912520 0.777790 -0.641455
O20   O     O_R   0.087480 0.448830 0.222210 -0.641455
O21   O     O_R   0.912520 0.551170 0.777790 -0.641455
O22   O     O_R   0.448830 0.087480 0.777790 -0.641455
O23   O     O_3   0.000000 0.500000 0.250000 -0.493895
O24   O     O_R   0.551170 0.912520 0.222210 -0.641455
O25   O     O_R   0.912520 0.448830 0.777790 -0.641456
O26   O     O_R   0.087480 0.551170 0.222210 -0.641456
O27   O     O_R   0.551170 0.912520 0.777790 -0.641456
O28   O     O_R   0.448830 0.087480 0.222210 -0.641456
O29   O     O_R   0.087480 0.551170 0.777790 -0.641455
O30   O     O_R   0.912520 0.448830 0.222210 -0.641455
O31   O     O_R   0.948830 0.412520 0.722210 -0.641455
O32   O     O_R   0.051170 0.587480 0.277790 -0.641455
O33   O     O_R   0.412520 0.051170 0.722210 -0.641456
O34   O     O_3   1.000000 0.500000 0.750000 -0.493896
O35   O     O_R   0.587480 0.948830 0.277790 -0.641456
O36   O     O_R   0.051170 0.587480 0.722210 -0.641455
O37   O     O_R   0.948830 0.412520 0.277790 -0.641456
O38   O     O_R   0.587480 0.948830 0.722210 -0.641455
O39   O     O_R   0.412520 0.051170 0.277790 -0.641455
O40   O     O_R   0.948830 0.587480 0.277790 -0.641456
O41   O     O_R   0.051170 0.412520 0.722210 -0.641455
O42   O     O_R   0.412520 0.948830 0.277790 -0.641456
O43   O     O_R   0.587480 0.051170 0.722210 -0.641456
O44   O     O_R   0.051170 0.412520 0.277790 -0.641456
O45   O     O_R   0.500000 0.036340 0.143790 -0.629017
O46   O     O_R   0.948830 0.587480 0.722210 -0.641456
O47   O     O_R   0.587480 0.051170 0.277790 -0.641455
O48   O     O_R   0.412520 0.948830 0.722210 -0.641456
O49   O     O_R   0.500000 0.963660 0.856210 -0.629016
O50   O     O_R   0.036340 0.500000 0.143790 -0.629018
O51   O     O_R   0.963660 0.500000 0.856210 -0.629017
O52   O     O_R   0.500000 0.963660 0.143790 -0.629018
Zn1   Zn    Zn3+2 0.448040 0.000000 0.289870 0.995579
Zn2   Zn    Zn3+2 0.051960 0.500000 0.210130 0.995579
Zn3   Zn    Zn3+2 0.500000 0.051960 0.789870 0.995579
Zn4   Zn    Zn3+2 0.500000 0.948040 0.210130 0.995579
Zn5   Zn    Zn3+2 0.051960 0.500000 0.789870 0.995579
Zn6   Zn    Zn3+2 0.948040 0.500000 0.210130 0.995579
Zn7   Zn    Zn3+2 0.500000 0.948040 0.789870 0.995580
Zn8   Zn    Zn3+2 0.500000 0.051960 0.210130 0.995579
Zn9   Zn    Zn3+2 0.551960 0.000000 0.710130 0.995580
Zn10  Zn    Zn3+2 0.000000 0.551960 0.289870 0.995579
Zn11  Zn    Zn3+2 0.000000 0.448040 0.710130 0.995579
Zn12  Zn    Zn3+2 0.551960 0.000000 0.289870 0.995579
Zn13  Zn    Zn3+2 0.448040 0.000000 0.710130 0.995579
Zn14  Zn    Zn3+2 1.000000 0.448040 0.289870 0.995579
Zn15  Zn    Zn3+2 0.000000 0.551960 0.710130 0.995580
Zn16  Zn    Zn3+2 0.948040 0.500000 0.789870 0.995580

loop_
_geom_bond_atom_site_label_1
_geom_bond_atom_site_label_2
_ccdc_geom_bond_type
C132  C144  A    
C124  H4    S    
C42   C97   A    
O1    Zn4   S    
C59   F7    S    
C128  H8    S    
C115  H34   S    
C65   C89   A    
C12   C130  A    
C148  O49   A    
O12   Zn7   S    
C49   F29   S    
C149  C179  S    
O29   Zn5   S    
C39   C74   A    
C182  C183  S    
C5    C179  T    
C27   C68   A    
C165  O33   A    
C48   F28   S    
C25   C60   A    
C3    C184  S    
C57   C169  S    
C36   C71   A    
C33   C69   A    
C147  C181  S    
C29   C64   A    
C16   C163  A    
C62   C95   A    
C31   H50   S    
O26   Zn2   S    
C17   C52   A    
C161  C163  S    
C22   H41   S    
O38   Zn9   S    
C44   F12   S    
C13   C30   A    
O18   Zn8   S    
C67   F16   S    
C132  H11   S    
C118  H62   S    
C42   H61   S    
C101  C137  A    
C61   C94   A    
C15   H33   S    
C166  O24   A    
C153  O10   A    
C97   C164  S    
C84   C105  S    
C69   C88   A    
C39   H58   S    
C1    C41   A    
C164  O46   A    
C173  C182  T    
C160  O47   A    
C54   F3    S    
C139  H19   S    
C62   F10   S    
C74   C81   A    
C20   H39   S    
C175  C183  T    
O39   Zn1   S    
C162  O44   A    
C176  C184  T    
C26   C61   A    
C45   C81   A    
C101  C122  A    
C4    C5    S    
O12   Zn3   S    
C22   C58   A    
C40   C75   A    
C6    C7    S    
C21   C35   A    
O12   Zn9   S    
C12   H31   S    
C17   H36   S    
O2    Zn3   S    
O24   Zn4   S    
C41   C76   A    
O48   Zn13  S    
O14   Zn4   S    
C26   C57   A    
C147  O45   A    
C28   C63   A    
C40   C119  A    
C159  O41   A    
C36   H54   S    
C21   H40   S    
C70   F18   S    
C142  H21   S    
C47   F27   S    
C172  O37   A    
C1    C8    A    
C10   C108  A    
C111  C112  A    
C16   C51   A    
O34   Zn11  S    
O9    Zn11  S    
C23   C59   A    
O1    Zn1   S    
C49   C84   A    
C76   C78   A    
O22   Zn3   S    
C114  C126  A    
O23   Zn6   S    
C43   F1    S    
C172  O30   A    
C154  O11   A    
C144  H24   S    
O10   Zn10  S    
O35   Zn12  S    
C90   C129  A    
C141  C159  S    
C98   C125  A    
C28   C35   A    
C170  O28   A    
C58   F6    S    
C36   C163  A    
C78   C111  S    
C158  O40   A    
C102  C121  A    
C50   C85   A    
C60   F8    S    
O31   Zn11  S    
C151  O5    A    
C147  O52   A    
C100  C134  A    
O41   Zn11  S    
C102  C136  A    
C39   C108  A    
C7    C181  T    
C33   H52   S    
O23   Zn10  S    
C105  C142  A    
C34   C152  A    
C157  O43   A    
C27   H46   S    
C53   F2    S    
C60   C95   A    
C27   C62   A    
C71   C86   A    
O32   Zn10  S    
C119  C157  S    
C79   C131  A    
C146  H26   S    
C10   C45   A    
C149  O3    A    
C96   C126  A    
C30   H49   S    
C55   F4    S    
C77   F26   S    
C32   C67   A    
O51   Zn16  S    
C19   C54   A    
C38   C141  A    
C61   F9    S    
O5    Zn15  S    
C120  C121  A    
O36   Zn15  S    
C23   C57   A    
O42   Zn1   S    
C123  H3    S    
C6    C180  T    
O4    Zn5   S    
C4    C178  T    
C75   C82   A    
C125  H5    S    
C28   H47   S    
C48   C83   A    
C131  H10   S    
C167  O25   A    
C131  C145  A    
C134  H14   S    
C30   C65   A    
O47   Zn12  S    
C25   H43   S    
C26   H44   S    
C42   C77   A    
C98   C132  A    
C159  O17   A    
C91   C99   S    
C155  O8    A    
C110  C146  A    
C70   C85   A    
C137  H17   S    
O49   Zn7   S    
C2    C172  S    
C99   C124  A    
O12   Zn13  S    
O7    Zn9   S    
C11   C47   A    
C103  C120  A    
C8    C43   A    
C12   C48   A    
C43   C78   A    
C46   C168  S    
C58   C93   A    
C52   F32   S    
C29   H48   S    
C32   H51   S    
O28   Zn8   S    
C55   C91   A    
C116  H45   S    
C18   C53   A    
C165  O22   A    
C68   C170  S    
C23   H42   S    
O44   Zn14  S    
C90   C127  A    
C59   C94   A    
O34   Zn15  S    
C34   C70   A    
C72   F20   S    
C148  C180  S    
C135  H15   S    
C64   F13   S    
C105  C117  A    
C25   C68   A    
C136  C139  A    
C51   C86   A    
C15   C152  A    
C16   H35   S    
C90   C94   S    
C104  C118  A    
C52   C87   A    
C135  C140  A    
C171  C174  S    
O43   Zn9   S    
C13   C19   A    
C89   C100  S    
O16   Zn6   S    
C44   C80   A    
C120  H63   S    
C8    H27   S    
C32   C174  A    
C171  O29   A    
O1    Zn12  S    
C167  O31   A    
C106  C116  A    
C168  O32   A    
C24   C166  S    
C79   C95   S    
C134  C142  A    
C75   F24   S    
C106  C140  A    
C108  C156  S    
C99   C135  A    
C109  C143  A    
C10   H29   S    
C150  O4    A    
C129  C146  A    
C66   C91   A    
C85   C104  S    
O33   Zn13  S    
C169  O38   A    
O11   Zn13  S    
C2    C33   A    
C22   C46   A    
C81   C109  S    
O23   Zn14  S    
C63   F11   S    
O34   Zn5   S    
O27   Zn7   S    
C17   C174  A    
C77   C80   A    
C51   F31   S    
C9    C97   A    
C116  C124  A    
C11   H30   S    
C149  O50   A    
C21   C56   A    
C38   H57   S    
C40   H59   S    
C83   C106  S    
C156  O14   A    
C29   C46   A    
C130  C158  S    
C100  C123  A    
C157  O15   A    
C24   C31   A    
C158  O16   A    
C164  O21   A    
C109  C114  A    
C3    C177  T    
C133  H13   S    
C112  C128  A    
C72   C83   A    
C151  C177  S    
C37   C72   A    
C153  O6    A    
C140  H20   S    
O23   Zn2   S    
C107  C144  A    
C114  H23   S    
C76   F25   S    
C31   C66   A    
C79   C128  A    
C152  C160  S    
C69   F17   S    
C2    C18   A    
O19   Zn7   S    
O13   Zn12  S    
O46   Zn15  S    
C121  H64   S    
O6    Zn14  S    
C11   C119  A    
C88   C101  S    
C92   C98   S    
C71   F19   S    
C136  H16   S    
C153  C176  S    
C148  O2    A    
C154  C175  S    
C155  O13   A    
C168  O26   A    
C64   C93   A    
C111  C145  A    
C118  C122  A    
C15   C50   A    
C14   C49   A    
C50   F30   S    
C166  O35   A    
C37   C130  A    
C47   C82   A    
O21   Zn16  S    
C160  O18   A    
O8    Zn1   S    
C13   C165  S    
C170  O39   A    
C20   C24   A    
C63   C92   A    
C35   C167  S    
C112  H1    S    
C34   H53   S    
C73   C84   A    
C66   F15   S    
C127  H7    S    
C150  C178  S    
C155  C173  S    
C14   C141  A    
C45   F23   S    
C143  H22   S    
C20   C55   A    
C86   C103  S    
O40   Zn10  S    
C169  O27   A    
C14   H32   S    
C18   H37   S    
C133  C143  A    
C54   C89   A    
C113  H12   S    
C161  O48   A    
C73   F21   S    
C65   F14   S    
C151  O9    A    
O15   Zn3   S    
C103  C139  A    
O1    Zn8   S    
C87   C102  S    
C19   H38   S    
O17   Zn5   S    
C145  H25   S    
C154  O7    A    
C82   C107  S    
C110  C113  A    
C107  C115  A    
C41   H60   S    
C150  O51   A    
C93   C96   S    
O25   Zn16  S    
C129  H9    S    
C161  O19   A    
O30   Zn6   S    
C117  H56   S    
C162  O20   A    
O37   Zn14  S    
C74   F22   S    
C56   F5    S    
C9    C44   A    
C122  H2    S    
O3    Zn6   S    
O52   Zn4   S    
C1    C162  S    
C156  O42   A    
C126  H6    S    
C96   C133  A    
C113  C127  A    
C37   H55   S    
C137  C138  A    
C67   C87   A    
C115  C125  A    
O20   Zn2   S    
C117  C123  A    
O45   Zn8   S    
C171  O36   A    
C104  C138  A    
C53   C88   A    
C138  H18   S    
C56   C92   A    
O50   Zn2   S    
C80   C110  S    
C9    H28   S    
O34   Zn16  S    
C38   C73   A    
