data_mof_unit_45044.cif
_audit_creation_date              2013-03-05T16:30:59-0500
_audit_creation_method            fapswitch 2.2
_symmetry_space_group_name_H-M    P1
_symmetry_Int_Tables_number       1
_space_group_crystal_system       triclinic
_cell_length_a                    12.970626
_cell_length_b                    10.890052
_cell_length_c                    9.56392
_cell_angle_alpha                 90.575616
_cell_angle_beta                  96.141254
_cell_angle_gamma                 90.690259
_cell_volume                      1342.97386232

loop_
_atom_site_label
_atom_site_type_symbol
_atom_site_description
_atom_site_fract_x
_atom_site_fract_y
_atom_site_fract_z
_atom_type_partial_charge
O1    O     O_R   0.500000 0.319640 0.618810 -0.588214
O2    O     O_R   0.500010 0.319680 0.381230 -0.544484
C1    C     C_R   0.500455 0.262577 0.498719 0.823151
O3    O     O_R   0.348990 0.499960 0.599490 -0.587022
O4    O     O_R   0.349000 0.500000 0.361910 -0.588991
C2    C     C_R   0.300733 0.499916 0.473802 0.788547
Cu1   Cu    Cu3+1 0.499990 0.499980 0.640670 0.999797
Cu2   Cu    Cu3+1 0.500010 0.500020 0.359330 1.019121
O5    O     O_R   0.499990 0.680320 0.618770 -0.594136
O6    O     O_R   0.500000 0.680360 0.381190 -0.573694
O7    O     O_R   0.651000 0.500000 0.638090 -0.547464
O8    O     O_R   0.651010 0.500040 0.400510 -0.579262
C3    C     C_R   0.498068 0.737032 0.500202 0.845367
C4    C     C_R   0.699301 0.497309 0.526088 0.852576
C5    C     C_R   0.811750 0.487960 0.540368 -0.122050
C6    C     C_R   0.188251 0.503930 0.459543 -0.066901
C7    C     C_R   0.027894 0.576704 0.339944 -0.102565
C8    C     C_R   0.134662 0.564377 0.346213 -0.152250
C9    C     C_R   0.134812 0.452402 0.564647 -0.179221
C10   C     C_R   0.027408 0.464440 0.560625 0.029815
C11   C     C_R   0.974107 0.527786 0.446445 0.110530
C12   C     C_R   0.867404 0.540916 0.439177 -0.197425
C13   C     C_R   0.863147 0.421700 0.650646 -0.152372
C14   C     C_R   0.971163 0.412708 0.665091 0.337618
H1    H     H_    0.827707 0.592462 0.354315 0.182225
H2    H     H_    0.819159 0.377582 0.726408 0.231709
H3    H     H_    0.987393 0.624833 0.252244 0.176707
H4    H     H_    0.175642 0.604717 0.264662 0.170472
H5    H     H_    0.177929 0.401876 0.647846 0.190376
C15   C     C_R   0.500503 0.063550 0.617700 0.034497
C16   C     C_R   0.498502 0.129473 0.493896 -0.215865
C17   C     C_R   0.491044 0.060242 0.365410 0.347022
C18   C     C_R   0.485611 0.931491 0.369454 -0.171765
H6    H     H_    0.478231 0.880612 0.271132 0.227646
C19   C     C_R   0.493600 0.869210 0.498272 -0.150978
C20   C     C_R   0.499057 0.939869 0.619962 0.069974
C21   C     C_3   0.512444 0.934672 0.776223 -0.350805
C22   C     C_3   0.513159 0.075969 0.773934 -0.310891
H7    H     H_    0.443799 0.893957 0.819680 0.214460
H8    H     H_    0.588536 0.896183 0.816337 0.218602
H9    H     H_    0.444269 0.117240 0.814894 0.210706
H10   H     H_    0.589185 0.117914 0.814623 0.236187
C23   C     C_R   0.543930 0.595765 0.081488 0.141735
N1    N     N_R   0.500660 0.500930 0.148010 -0.208491
C24   C     C_R   0.445086 0.414520 0.065396 0.046852
H11   H     H_    0.401981 0.344157 0.113981 0.176717
C25   C     C_R   0.444574 0.414929 0.916550 0.018868
H12   H     H_    0.400961 0.344898 0.853846 0.134494
N2    N     N_R   0.500660 0.500890 0.852110 -0.174527
C26   C     C_R   0.547715 0.592728 0.934912 0.109291
C27   C     C_3   0.660110 0.631938 0.951089 0.060377
C28   C     C_3   0.653217 0.640922 0.108745 0.062433
H13   H     H_    0.674882 0.719945 0.898672 0.136174
H14   H     H_    0.704163 0.576652 0.172047 0.158732
N3    N     N_R   0.732367 0.535836 0.920092 0.131715
O9    O     O_R   0.827963 0.567561 0.908053 -0.342553
O10   O     O_R   0.710700 0.420749 0.940724 -0.333912
N4    N     N_R   0.660205 0.767285 0.162877 0.125639
O11   O     O_R   0.610865 0.855484 0.094790 -0.364137
O12   O     O_R   0.717397 0.792564 0.279943 -0.347918
N5    N     N_R   0.021551 0.352296 0.786244 0.128704
O13   O     O_R   0.979617 0.254144 0.833866 -0.305698
O14   O     O_R   0.096348 0.408004 0.864753 -0.351127
N6    N     N_R   0.493184 0.116410 0.230861 0.134992
O15   O     O_R   0.578780 0.167734 0.199642 -0.293915
O16   O     O_R   0.421279 0.088375 0.129729 -0.385200

loop_
_geom_bond_atom_site_label_1
_geom_bond_atom_site_label_2
_geom_bond_distance
_ccdc_geom_bond_type
O4    Cu2   1.961484 S    
C1    C16   1.449610 S    
C13   C14   1.397763 A    
C23   C26   1.408006 A    
C22   H10   1.111737 S    
C14   N5    1.437418 S    
Cu2   O8    1.956025 S    
O5    C3    1.294733 A    
C16   C17   1.428983 A    
C15   C20   1.347230 A    
C18   H6    1.081387 S    
C23   N1    1.364547 A    
C17   C18   1.404151 A    
N5    O13   1.301754 A    
N3    O9    1.300426 A    
C24   C25   1.422906 A    
C7    C8    1.387904 A    
Cu1   Cu2   2.690745 S    
C25   N2    1.369842 A    
N6    O16   1.301068 A    
O1    Cu1   1.972923 S    
C24   H11   1.080775 S    
N6    O15   1.301336 A    
Cu1   O7    1.961486 S    
Cu1   N2    2.021209 S    
C21   C22   1.539042 S    
C28   N4    1.463731 S    
O3    Cu1   1.956025 S    
O4    C2    1.296325 A    
C6    C8    1.398362 A    
C20   C21   1.487680 S    
C18   C19   1.407033 A    
O8    C4    1.294554 A    
C3    C19   1.441516 S    
C21   H8    1.108676 S    
C27   N3    1.462323 S    
N3    O10   1.302698 A    
C6    C9    1.398863 A    
C15   C16   1.388878 A    
C10   C14   1.416052 A    
O7    C4    1.297760 A    
C7    C11   1.400707 A    
C23   C28   1.490205 S    
O3    C2    1.294504 A    
C5    C13   1.397823 A    
C27   H13   1.110109 S    
C2    C6    1.451951 S    
C27   C28   1.522222 S    
C9    H5    1.081505 S    
C25   H12   1.081253 S    
Cu2   N1    2.022089 S    
C8    H4    1.083419 S    
C10   C11   1.418245 A    
C17   N6    1.433127 S    
C22   H9    1.111273 S    
C21   H7    1.111508 S    
N2    C26   1.365962 A    
C5    C12   1.393174 A    
C13   H2    1.081765 S    
N5    O14   1.301485 A    
Cu1   O5    1.977140 S    
C4    C5    1.455185 S    
O2    C1    1.289212 A    
C19   C20   1.383723 A    
C15   C22   1.490245 S    
C26   C27   1.505642 S    
N4    O11   1.301673 A    
C11   C12   1.387484 A    
N4    O12   1.300304 A    
O6    C3    1.292063 A    
Cu2   O6    1.972921 S    
O2    Cu2   1.977140 S    
N1    C24   1.369754 A    
C9    C10   1.397289 A    
C28   H14   1.107760 S    
O1    C1    1.300977 A    
C12   H1    1.079651 S    
C7    H3    1.084157 S    
