data_mof_unit_6660.cif
_audit_creation_date              2012-12-11T17:00:16-0500
_audit_creation_method            fapswitch 2.2
_symmetry_space_group_name_H-M    P1
_symmetry_Int_Tables_number       1
_space_group_crystal_system       triclinic
_cell_length_a                    6.964007
_cell_length_b                    13.552464
_cell_length_c                    20.269563
_cell_angle_alpha                 103.087472
_cell_angle_beta                  90.255915
_cell_angle_gamma                 90.321297
_cell_volume                      1863.27867918

loop_
_atom_site_label
_atom_site_type_symbol
_atom_type_description
_atom_site_fract_x
_atom_site_fract_y
_atom_site_fract_z
_atom_type_partial_charge
O1    O     O_R   0.506770 0.599700 0.449550 -0.537692
O2    O     O_R   0.179980 0.595740 0.587960 -0.545679
O3    O     O_R   0.004580 0.400300 0.550450 -0.538915
C1    C     C_R   0.348242 0.616550 0.615445 0.693567
O4    O     O_R   0.177380 0.611700 0.452380 -0.539796
O5    O     O_R   0.001970 0.416370 0.413900 -0.541033
C2    C     C_R   0.345998 0.638413 0.435758 0.698867
O6    O     O_R   0.509390 0.583630 0.586100 -0.537963
O7    O     O_3   0.337530 0.435890 0.487530 -0.371899
V1    V     V_3+5 0.064660 0.511890 0.502310 1.409958
O8    O     O_R   0.671950 0.404260 0.412040 -0.541468
C3    C     C_R   0.840258 0.382610 0.384844 0.693258
O9    O     O_R   0.674540 0.388300 0.547620 -0.541266
C4    C     C_R   0.843506 0.361762 0.564344 0.692599
V2    V     V_3+5 0.564030 0.488110 0.497690 1.412027
O10   O     O_3   0.841030 0.564110 0.512470 -0.370100
C5    C     C_R   0.915010 0.112214 0.611267 -0.159595
H1    H     H_    0.907737 0.161878 0.518046 0.103090
H2    H     H_    0.957033 0.988862 0.694702 0.124112
H3    H     H_    0.945150 0.034589 0.585779 0.112608
C6    C     C_R   0.854386 0.284650 0.604180 -0.030680
C7    C     C_R   0.820595 0.315790 0.930518 -0.168858
C8    C     C_R   0.799204 0.391393 0.894907 -0.119732
C9    C     C_R   0.812927 0.368771 0.824520 -0.159249
C10   C     C_R   0.849954 0.268749 0.787635 0.077644
C11   C     C_R   0.875239 0.191932 0.824703 0.069404
C12   C     C_R   0.862084 0.242285 0.715364 0.072725
C13   C     C_R   0.900773 0.140162 0.682125 0.142385
C14   C     C_R   0.926688 0.066707 0.719700 -0.207335
C15   C     C_R   0.914675 0.092100 0.789794 -0.199075
C16   C     C_R   0.838132 0.313549 0.674669 -0.215522
C17   C     C_R   0.893108 0.184232 0.572586 -0.175614
C18   C     C_R   0.858732 0.216386 0.896201 -0.076037
H4    H     H_    0.809858 0.392397 0.695926 0.089335
H5    H     H_    0.806397 0.334729 0.985154 0.101343
H6    H     H_    0.793379 0.431437 0.800724 0.103914
H7    H     H_    0.770041 0.468240 0.922047 0.117339
H8    H     H_    0.937560 0.032597 0.816579 0.117175
C19   C     C_R   0.713976 0.253794 0.202746 0.096957
C20   C     C_R   0.867673 0.187678 0.182875 -0.108250
C21   C     C_R   0.021227 0.192915 0.229104 -0.168612
H9    H     H_    0.142809 0.143304 0.216105 0.128436
C22   C     C_R   0.012979 0.256826 0.294447 -0.181949
H10   H     H_    0.129206 0.255241 0.329713 0.127028
C23   C     C_R   0.850376 0.316903 0.315647 -0.108225
C24   C     C_R   0.705430 0.316657 0.267470 0.104866
C25   C     C_3   0.495124 0.299359 0.272401 -0.412585
C26   C     C_3   0.504404 0.231245 0.201791 -0.398716
H11   H     H_    0.411168 0.369542 0.274558 0.168101
H12   H     H_    0.460917 0.257638 0.312231 0.169258
H13   H     H_    0.426274 0.262156 0.163058 0.172184
H14   H     H_    0.475074 0.150209 0.200634 0.166174
C27   C     C_R   0.504624 0.753126 0.704934 0.098612
C28   C     C_R   0.351627 0.686398 0.683260 -0.111982
C29   C     C_R   0.193360 0.691595 0.727130 -0.171801
H15   H     H_    0.072297 0.641080 0.712533 0.130356
C30   C     C_R   0.195371 0.756741 0.792083 -0.189709
H16   H     H_    0.076453 0.754663 0.825775 0.131756
C31   C     C_R   0.356173 0.818150 0.815207 -0.112335
C32   C     C_R   0.507272 0.816991 0.769479 0.119771
C33   C     C_3   0.715322 0.798526 0.778595 -0.409324
C34   C     C_3   0.712264 0.729631 0.708271 -0.410071
H17   H     H_    0.740991 0.757427 0.819432 0.168340
H18   H     H_    0.803731 0.867805 0.781838 0.169885
H19   H     H_    0.736583 0.648591 0.708215 0.164281
H20   H     H_    0.797853 0.759598 0.670861 0.174770
C35   C     C_R   0.346245 0.891311 0.389664 -0.159237
H21   H     H_    0.341554 0.841398 0.482820 0.103161
H22   H     H_    0.343318 0.017051 0.306748 0.118059
H23   H     H_    0.341357 0.970550 0.415528 0.111981
C36   C     C_R   0.353555 0.715706 0.395990 -0.031874
C37   C     C_R   0.363965 0.682380 0.069254 -0.170502
C38   C     C_R   0.363941 0.605856 0.104676 -0.119631
C39   C     C_R   0.360858 0.629371 0.175238 -0.158364
C40   C     C_R   0.357096 0.731368 0.212532 0.076505
C41   C     C_R   0.355064 0.809491 0.175750 0.070779
C42   C     C_R   0.355560 0.758462 0.284926 0.071929
C43   C     C_R   0.350071 0.862634 0.318631 0.144139
C44   C     C_R   0.347552 0.937545 0.281380 -0.206966
C45   C     C_R   0.350289 0.911575 0.211147 -0.197221
C46   C     C_R   0.358539 0.685915 0.325314 -0.213701
C47   C     C_R   0.346902 0.818176 0.428080 -0.176015
C48   C     C_R   0.359232 0.783846 0.104011 -0.074336
H24   H     H_    0.362485 0.605632 0.303737 0.091411
H25   H     H_    0.368330 0.662451 0.014398 0.100470
H26   H     H_    0.361647 0.565741 0.198817 0.105830
H27   H     H_    0.367349 0.527433 0.077214 0.118036
H28   H     H_    0.348141 0.972562 0.184729 0.108091
O11   O     O_R   0.203450 0.916320 0.913910 -0.542102
O12   O     O_R   0.535520 0.888300 0.047620 -0.539656
O13   O     O_R   0.710860 0.083650 0.086100 -0.538460
C49   C     C_R   0.366931 0.861694 0.064329 0.687735
O14   O     O_R   0.532860 0.904250 0.912040 -0.542079
O15   O     O_R   0.708190 0.099710 0.949550 -0.536114
C50   C     C_R   0.364249 0.883018 0.884692 0.696059
O16   O     O_R   0.206120 0.900260 0.050460 -0.538615
O17   O     O_3   0.375280 0.064080 0.012470 -0.370703
V3    V     V_3+5 0.648180 0.988110 0.997690 1.414541
O18   O     O_R   0.038220 0.111740 0.952370 -0.540483
C51   C     C_R   0.869280 0.138422 0.935777 0.689053
O19   O     O_R   0.040880 0.095790 0.087940 -0.545382
C52   C     C_R   0.872899 0.117043 0.115292 0.696002
V4    V     V_3+5 0.148800 0.011950 0.002300 1.408214
O20   O     O_3   0.871820 0.935920 0.987530 -0.371616

loop_
_geom_bond_atom_site_label_1
_geom_bond_atom_site_label_2
_ccdc_geom_bond_type
O18   V4    S    
C29   H15   S    
O19   C52   A    
C21   H9    S    
C1    O6    A    
O17   V3    S    
C25   H11   S    
C23   C24   A    
C48   C49   S    
C6    C16   A    
C9    H6    S    
C4    C6    S    
C13   C14   A    
O5    C3    A    
C30   C31   A    
O15   V3    S    
V2    O10   S    
C49   O16   A    
C5    H3    S    
C15   H8    S    
C38   C39   A    
C33   H17   S    
C38   H27   S    
C28   C29   A    
O8    V2    S    
C26   H13   S    
O18   C51   A    
C8    C9    A    
O1    V2    S    
C42   C46   A    
O7    V1    S    
C42   C43   A    
C36   C47   A    
C31   C32   A    
O14   C50   A    
O9    C4    A    
O11   V4    S    
C21   C22   A    
C35   C43   A    
C31   C50   S    
C41   C48   A    
C27   C32   A    
C37   H25   S    
C25   H12   S    
C6    C17   A    
C39   C40   A    
C34   H20   S    
C12   C16   A    
C9    C10   A    
C19   C20   A    
O4    C2    A    
C43   C44   A    
C3    C23   S    
C10   C11   A    
C8    H7    S    
C32   C33   S    
O11   C50   A    
C33   H18   S    
O2    C1    A    
C40   C41   A    
C14   C15   A    
C7    H5    S    
C22   C23   A    
C27   C34   S    
C11   C18   A    
O12   C49   A    
C25   C26   S    
O15   C51   A    
C16   H4    S    
C39   H26   S    
C40   C42   A    
O17   V4    S    
O3    C4    A    
C19   C24   A    
C20   C21   A    
C11   C15   A    
O6    V2    S    
O9    V2    S    
C22   H10   S    
H22   C44   S    
H1    C17   S    
O13   C52   A    
O2    V1    S    
C12   C13   A    
C46   H24   S    
C7    C18   A    
C24   C25   S    
C34   H19   S    
C1    C28   S    
O1    C2    A    
C5    C13   A    
C41   C45   A    
C37   C38   A    
O5    V1    S    
O8    C3    A    
C27   C28   A    
C10   C12   A    
C35   H23   S    
H21   C47   S    
C18   C51   S    
C29   C30   A    
O7    V2    S    
O4    V1    S    
C45   H28   S    
O3    V1    S    
V1    O10   S    
C2    C36   S    
C30   H16   S    
V3    O20   S    
O13   V3    S    
C33   C34   S    
C37   C48   A    
C20   C52   S    
C44   C45   A    
C26   H14   S    
C35   C47   A    
O19   V4    S    
O16   V4    S    
V4    O20   S    
C5    C17   A    
C7    C8    A    
O14   V3    S    
O12   V3    S    
C19   C26   S    
C36   C46   A    
H2    C14   S    
