data_mof_unit_56148.cif
_audit_creation_date              2012-12-11T16:05:02-0500
_audit_creation_method            fapswitch 2.2
_symmetry_space_group_name_H-M    P1
_symmetry_Int_Tables_number       1
_space_group_crystal_system       triclinic
_cell_length_a                    10.70157
_cell_length_b                    10.620542
_cell_length_c                    16.922974
_cell_angle_alpha                 98.562318
_cell_angle_beta                  98.693113
_cell_angle_gamma                 61.332546
_cell_volume                      1661.7638507

loop_
_atom_site_label
_atom_site_type_symbol
_atom_type_description
_atom_site_fract_x
_atom_site_fract_y
_atom_site_fract_z
_atom_type_partial_charge
C1    C     C_R   0.355049 0.774168 0.398595 0.548364
C2    C     C_3   0.695888 0.398446 0.254345 -0.111786
C3    C     C_3   0.818988 0.346917 0.321460 0.059394
C4    C     C_3   0.899526 0.203582 0.272615 -0.134442
C5    C     C_3   0.974901 0.273147 0.237407 -0.112536
C6    C     C_3   0.893110 0.416795 0.287515 -0.114917
C7    C     C_3   0.771076 0.468130 0.219531 -0.128458
C8    C     C_3   0.851751 0.325299 0.170385 0.055801
C9    C     C_3   0.412884 0.710516 0.201849 -0.155179
C10   C     C_3   0.287710 0.740757 0.249080 -0.110773
C11   C     C_3   0.346675 0.812302 0.319481 0.063310
C12   C     C_R   0.370471 0.346652 0.358801 0.548690
C13   C     C_3   0.473437 0.780588 0.273680 -0.117531
C14   C     C_3   0.382811 0.929925 0.240895 -0.117531
C15   C     C_3   0.257510 0.959841 0.288671 -0.150386
C16   C     C_3   0.197339 0.889486 0.217639 -0.106535
C17   C     C_3   0.323314 0.858080 0.170938 0.061641
C18   C     C_3   0.479958 0.263741 0.789603 -0.079619
C19   C     C_3   0.440090 0.408583 0.759963 0.119875
C20   C     C_3   0.378015 0.366030 0.679921 0.055625
C21   C     C_3   0.414863 0.220912 0.709060 -0.119078
C22   C     C_3   0.266250 0.292141 0.741100 -0.126150
C23   C     C_R   0.779147 0.375204 0.402548 0.542131
C24   C     C_3   0.229096 0.438006 0.711430 -0.125433
C25   C     C_3   0.292632 0.481952 0.793061 -0.122619
C26   C     C_3   0.331254 0.335596 0.820964 0.027832
C27   C     C_1   0.848199 0.327439 0.705517 -0.024325
C28   C     C_1   0.894593 0.294190 0.772883 -0.031402
C29   C     C_1   0.334640 0.819065 0.708464 -0.052132
C30   C     C_1   0.309475 0.845962 0.777199 -0.044257
C31   C     C_R   0.890070 0.311409 0.090121 0.542321
C32   C     C_R   0.319232 0.299988 0.120164 0.539900
C33   C     C_R   0.293929 0.892496 0.088989 0.543645
C34   C     C_R   0.355189 0.774586 0.626341 0.530351
C35   C     C_R   0.943098 0.275581 0.855978 0.552782
C36   C     C_R   0.309742 0.296395 0.893851 0.537458
C37   C     C_R   0.278076 0.888050 0.858166 0.527023
C38   C     C_R   0.408691 0.377761 0.601356 0.568785
C39   C     C_R   0.779415 0.376680 0.628612 0.544804
C40   C     C_1   0.343771 0.336623 0.275043 -0.067896
C41   C     C_1   0.331948 0.326863 0.203817 -0.062286
C42   C     C_3   0.777795 0.254769 0.203910 -0.124705
Cr1   Cr    Cr6+3 0.608340 0.611040 0.520430 1.018083
Cr2   Cr    Cr6+3 0.287650 0.601120 0.489350 1.015960
Cr3   Cr    Cr6+3 0.604040 0.287870 0.490280 1.024581
Cr4   Cr    Cr6+3 0.054020 0.052700 0.970850 1.012784
Cr5   Cr    Cr6+3 0.059230 0.375120 0.993390 1.013409
Cr6   Cr    Cr6+3 0.374950 0.061200 0.992340 1.010050
H1    H     H_    0.581500 0.447040 0.265124 0.116811
H2    H     H_    0.422366 0.007097 0.234872 0.136460
H3    H     H_    0.199151 0.057998 0.328734 0.106599
H4    H     H_    0.083871 0.931628 0.192806 0.137661
H5    H     H_    0.583091 0.194732 0.823003 0.137399
H6    H     H_    0.463702 0.114049 0.674257 0.141088
H7    H     H_    0.193275 0.243571 0.735136 0.109197
H8    H     H_    0.126742 0.508084 0.677836 0.142707
H9    H     H_    0.243503 0.587464 0.829066 0.129584
H10   H     H_    0.729426 0.190349 0.167591 0.126459
H11   H     H_    0.948902 0.098182 0.298304 0.114237
H12   H     H_    0.089250 0.224512 0.226537 0.116401
H13   H     H_    0.941776 0.481295 0.323435 0.126834
H14   H     H_    0.721267 0.574007 0.194320 0.118372
H15   H     H_    0.247958 0.663096 0.253729 0.132878
H16   H     H_    0.471422 0.612206 0.161917 0.100441
H17   H     H_    0.585572 0.738548 0.300829 0.134005
O1    O     O_R   0.751220 0.499230 0.435170 -0.520584
O2    O     O_R   0.297880 0.469080 0.560050 -0.505304
O3    O     O_R   0.489720 0.254590 0.564810 -0.515128
O4    O     O_R   0.725220 0.304230 0.585080 -0.506641
O5    O     O_3   0.500010 0.500010 0.500020 -0.279081
O6    O     O_R   0.171830 0.913880 0.057510 -0.523256
O7    O     O_R   0.940690 0.186050 0.054730 -0.502003
O8    O     O_R   0.920470 0.405720 0.075010 -0.515169
O9    O     O_R   0.196690 0.370460 0.084120 -0.495938
O10   O     O_R   0.412990 0.180750 0.091610 -0.518393
O11   O     O_R   0.366620 0.943130 0.065760 -0.504153
O12   O     O_R   0.477220 0.727600 0.436870 -0.502378
O13   O     O_R   0.160510 0.906330 0.879210 -0.518262
O14   O     O_R   0.930190 0.179050 0.889450 -0.495933
O15   O     O_R   0.909140 0.398170 0.896710 -0.523795
O16   O     O_R   0.186190 0.363460 0.918830 -0.512858
O17   O     O_R   0.401670 0.173200 0.913310 -0.519065
O18   O     O_R   0.356120 0.936130 0.900470 -0.498968
O19   O     O_3   0.162740 0.163010 0.985530 -0.270000
O20   O     O_R   0.258650 0.745120 0.411470 -0.521353
O21   O     O_R   0.297070 0.467240 0.395960 -0.499092
O22   O     O_R   0.488830 0.252610 0.387790 -0.506272
O23   O     O_R   0.724400 0.302390 0.420980 -0.501583
O24   O     O_R   0.752100 0.501210 0.612190 -0.509723
O25   O     O_R   0.478040 0.729440 0.600970 -0.499663
O26   O     O_R   0.259530 0.747110 0.588490 -0.514282
N1    N     N_2   0.537202 0.469216 0.768751 -0.526417
H18   H     H_    0.511832 0.543274 0.728490 0.248521
C43   C     C_3   0.570427 0.515080 0.850381 -0.276190
H19   H     H_    0.640548 0.565392 0.850793 0.176547
H20   H     H_    0.626519 0.421133 0.886834 0.175803
H21   H     H_    0.471545 0.595777 0.877842 0.128860

loop_
_geom_bond_atom_site_label_1
_geom_bond_atom_site_label_2
_ccdc_geom_bond_type
C18   C21   S    
C1    O12   A    
Cr6   O11   S    
C3    C23   S    
C19   C20   S    
C1    C11   S    
C3    C6    S    
C42   H10   S    
C32   O10   A    
C7    C8    S    
C13   H17   S    
Cr1   O24   S    
C25   H9    S    
C6    H13   S    
Cr3   O22   S    
C8    C42   S    
C32   O9    A    
C5    C6    S    
C31   O8    A    
C15   C16   S    
C9    H16   S    
C35   O15   A    
C18   C19   S    
C9    C13   S    
C34   O26   A    
C19   N1    S    
C18   H5    S    
C11   C15   S    
C10   H15   S    
C2    C7    S    
C28   C35   S    
C36   O17   A    
C16   C17   S    
C18   C26   S    
C32   C41   S    
Cr2   O5    S    
C15   H3    S    
C9    C10   S    
Cr4   O7    S    
C12   O22   A    
C21   C22   S    
Cr6   O10   S    
C17   C33   S    
Cr5   O15   S    
Cr2   O21   S    
C1    O20   A    
Cr1   O25   S    
C14   H2    S    
Cr3   O4    S    
C20   C24   S    
Cr3   O23   S    
C24   C25   S    
Cr5   O8    S    
C27   C39   S    
Cr4   O13   S    
C43   H21   S    
C25   C26   S    
C29   C34   S    
Cr6   O19   S    
C30   C37   S    
C12   C40   S    
C34   O25   A    
C7    H14   S    
C29   C30   T    
C2    H1    S    
C20   C38   S    
C33   O11   A    
C36   O16   A    
Cr3   O3    S    
N1    C43   S    
C39   O4    A    
Cr5   O19   S    
C20   C21   S    
C43   H20   S    
Cr4   O6    S    
C6    C7    S    
Cr2   O26   S    
Cr4   O19   S    
C9    C17   S    
C31   O7    A    
C38   O3    A    
Cr1   O5    S    
C23   O23   A    
C22   C24   S    
Cr1   O12   S    
C3    C4    S    
C23   O1    A    
C26   C36   S    
C40   C41   T    
C5    H12   S    
Cr3   O5    S    
C8    C31   S    
C16   H4    S    
Cr5   O9    S    
C4    C5    S    
C5    C8    S    
C22   H7    S    
C24   H8    S    
C37   O13   A    
Cr6   O18   S    
C12   O21   A    
C21   H6    S    
C2    C3    S    
C10   C16   S    
C11   C13   S    
Cr4   O14   S    
C4    C42   S    
C2    C42   S    
Cr1   O1    S    
C4    H11   S    
C35   O14   A    
N1    H18   S    
Cr6   O17   S    
Cr5   O16   S    
C43   H19   S    
C19   C25   S    
C10   C11   S    
C33   O6    A    
C38   O2    A    
C22   C26   S    
C27   C28   T    
C14   C15   S    
C37   O18   A    
Cr2   O2    S    
C13   C14   S    
C39   O24   A    
Cr2   O20   S    
C14   C17   S    
