data_mof_unit_10043.cif
_audit_creation_date              2013-03-05T16:48:31-0500
_audit_creation_method            fapswitch 2.2
_symmetry_space_group_name_H-M    P1
_symmetry_Int_Tables_number       1
_space_group_crystal_system       triclinic
_cell_length_a                    10.864756
_cell_length_b                    14.665066
_cell_length_c                    14.882642
_cell_angle_alpha                 64.68765
_cell_angle_beta                  103.197335
_cell_angle_gamma                 102.781013
_cell_volume                      2066.31923079

loop_
_atom_site_label
_atom_site_type_symbol
_atom_site_description
_atom_site_fract_x
_atom_site_fract_y
_atom_site_fract_z
_atom_type_partial_charge
O1    O     O_R   0.455540 0.022090 0.338120 -0.597405
O2    O     O_R   0.544460 0.977910 0.661880 -0.599947
O3    O     O_R   0.512510 0.160150 0.379180 -0.583592
O4    O     O_R   0.487490 0.839850 0.620820 -0.584382
C1    C     C_R   0.475877 0.120085 0.312766 0.825860
C2    C     C_R   0.517523 0.879935 0.687164 0.823829
O5    O     O_R   0.291160 0.930970 0.479480 -0.582564
O6    O     O_R   0.708840 0.069030 0.520520 -0.579693
O7    O     O_R   0.348130 0.069020 0.520540 -0.580901
O8    O     O_R   0.651870 0.930980 0.479460 -0.575355
C3    C     C_R   0.262927 0.999671 0.501978 0.798546
C4    C     C_R   0.737182 0.000077 0.498494 0.804695
Cu1   Cu    Cu3+1 0.466270 0.918260 0.475690 0.963759
Cu2   Cu    Cu3+1 0.533730 0.081740 0.524310 0.960182
H1    H     H_    0.420618 0.264566 0.746638 0.170331
H2    H     H_    0.592730 0.743017 0.241717 0.190035
C5    C     C_R   0.349150 0.117949 0.740887 -0.030442
C6    C     C_R   0.660061 0.887759 0.253063 -0.071352
H3    H     H_    0.411731 0.078003 0.808043 0.181127
H4    H     H_    0.600784 0.929815 0.184745 0.199381
C7    C     C_R   0.262883 0.064219 0.689527 -0.148849
C8    C     C_R   0.741877 0.938970 0.308814 -0.170740
H5    H     H_    0.258995 0.982314 0.718187 0.144751
H6    H     H_    0.746219 0.020758 0.281906 0.143285
C9    C     C_R   0.183831 0.115881 0.600468 -0.003359
C10   C     C_R   0.817246 0.885215 0.399119 0.007119
C11   C     C_R   0.189147 0.223097 0.565023 0.346899
C12   C     C_R   0.811526 0.778236 0.432427 0.346648
C13   C     C_R   0.272372 0.274904 0.620732 -0.212468
C14   C     C_R   0.732045 0.728775 0.373086 -0.220384
H7    H     H_    0.277628 0.356478 0.595682 0.184854
H8    H     H_    0.726410 0.647371 0.396543 0.188709
C15   C     C_R   0.353626 0.223008 0.706673 -0.128572
C16   C     C_R   0.655786 0.782941 0.284852 -0.142350
C17   C     C_R   0.963152 0.054044 0.544929 -0.146180
C18   C     C_R   0.037219 0.944878 0.457041 -0.151212
H9    H     H_    0.935177 0.095478 0.580684 0.161138
H10   H     H_    0.065132 0.903624 0.421064 0.159002
C19   C     C_R   0.870633 0.999113 0.497590 -0.082715
C20   C     C_R   0.129702 0.000094 0.503947 -0.079642
C21   C     C_R   0.908143 0.943398 0.453177 0.065284
C22   C     C_R   0.092344 0.055846 0.548464 0.065434
C23   C     C_R   0.450911 0.187648 0.206097 -0.123446
C24   C     C_R   0.508947 0.812223 0.792711 -0.115630
C25   C     C_R   0.383930 0.211371 0.031780 0.378406
C26   C     C_R   0.483466 0.786241 0.959896 0.380562
C27   C     C_R   0.409327 0.147387 0.132753 -0.216444
C28   C     C_R   0.504342 0.851414 0.862336 -0.223060
C29   C     C_R   0.462534 0.292703 0.178144 -0.230657
C30   C     C_R   0.491503 0.706900 0.821011 -0.225752
C31   C     C_R   0.434254 0.359205 0.077057 0.042382
C32   C     C_R   0.466243 0.639049 0.917768 0.042422
C33   C     C_R   0.400963 0.317968 0.002563 0.069020
C34   C     C_R   0.468576 0.679607 0.989521 0.077900
C35   C     C_R   0.442024 0.465915 0.048103 0.098616
C36   C     C_R   0.440727 0.531899 0.945202 0.094795
C37   C     C_R   0.409293 0.488808 0.872744 -0.220917
C38   C     C_R   0.446598 0.508343 0.118224 -0.216952
C39   C     C_R   0.386295 0.383984 0.900998 -0.168275
C40   C     C_R   0.455945 0.612867 0.088790 -0.172383
H11   H     H_    0.360161 0.355423 0.842148 0.189039
H12   H     H_    0.456152 0.640745 0.145404 0.182694
H13   H     H_    0.500748 0.679209 0.766733 0.156998
H14   H     H_    0.497894 0.321663 0.236137 0.163416
H15   H     H_    0.514203 0.932885 0.840398 0.176099
H16   H     H_    0.396451 0.065828 0.153690 0.194246
H17   H     H_    0.395459 0.534532 0.792970 0.152872
H18   H     H_    0.436601 0.461902 0.195883 0.140296
N1    N     N_R   0.584450 0.204570 0.560790 -0.184942
N2    N     N_R   0.415550 0.795430 0.439210 -0.185745
C41   C     C_R   0.709450 0.282023 0.669944 -0.278462
C42   C     C_R   0.293396 0.719360 0.328044 -0.251687
C43   C     C_R   0.677058 0.200880 0.640196 0.093343
C44   C     C_R   0.323755 0.799510 0.359219 0.102749
C45   C     C_R   0.522234 0.287090 0.507054 0.030704
C46   C     C_R   0.479361 0.713684 0.491799 0.027417
C47   C     C_R   0.550973 0.372655 0.533123 -0.019319
C48   C     C_R   0.452464 0.629021 0.464443 -0.020630
C49   C     C_R   0.645890 0.367618 0.617436 0.136063
C50   C     C_R   0.357979 0.634273 0.379833 0.139887
C51   C     C_R   0.486964 0.460790 0.480944 0.045097
C52   C     C_R   0.517270 0.541294 0.516088 0.039005
C53   C     C_R   0.611491 0.531511 0.601377 -0.198258
C54   C     C_R   0.393076 0.470727 0.395446 -0.207576
C55   C     C_R   0.675066 0.446876 0.650131 -0.126299
C56   C     C_R   0.329734 0.555484 0.346504 -0.136575
H19   H     H_    0.747005 0.442940 0.715071 0.166810
H20   H     H_    0.258245 0.559628 0.281266 0.168750
H21   H     H_    0.552464 0.718234 0.552646 0.131238
H22   H     H_    0.448732 0.282423 0.446460 0.129701
H23   H     H_    0.275445 0.866034 0.318588 0.130810
H24   H     H_    0.724727 0.134058 0.681273 0.133273
H25   H     H_    0.782480 0.277321 0.734396 0.156841
H26   H     H_    0.220941 0.724353 0.263199 0.163106
H27   H     H_    0.638824 0.588122 0.632910 0.157846
H28   H     H_    0.365840 0.414091 0.363961 0.150764
Cl1   Cl    Cl    0.327375 0.153128 0.945784 -0.654184
Cl2   Cl    Cl    0.469502 0.842424 0.039930 -0.691796
N3    N     N_R   0.113983 0.280393 0.472357 0.105306
O9    O     O_R   0.090912 0.254391 0.396118 -0.370792
O10   O     O_R   0.081853 0.366025 0.459544 -0.348797
N4    N     N_R   0.883360 0.719021 0.526056 0.103620
O11   O     O_R   0.903700 0.743371 0.603179 -0.371058
O12   O     O_R   0.916118 0.633842 0.538196 -0.351219

loop_
_geom_bond_atom_site_label_1
_geom_bond_atom_site_label_2
_geom_bond_distance
_ccdc_geom_bond_type
C35   C36   1.418051 A    
C11   C13   1.405213 A    
C41   C49   1.400542 A    
C51   C52   1.432885 A    
C33   C39   1.397992 A    
C19   C21   1.415180 A    
C34   C40   1.398617 A    
O5    C3    1.301295 A    
C11   N3    1.439904 S    
O1    C1    1.300143 A    
C17   H9    1.084797 S    
C54   C56   1.387276 A    
C48   C50   1.416759 A    
C37   C39   1.388407 A    
Cu1   N2    2.025737 S    
C38   C40   1.388908 A    
C13   C15   1.394193 A    
C36   C37   1.413474 A    
C40   H12   1.081844 S    
C54   H28   1.075973 S    
C25   C27   1.390795 A    
O4    Cu1   1.951093 S    
C17   C22   1.387352 A    
C50   C56   1.392470 A    
C45   H22   1.074896 S    
H2    C16   1.080447 S    
C29   C31   1.405619 A    
N2    C44   1.356035 A    
C30   C32   1.404776 A    
N1    C43   1.355860 A    
C28   H15   1.082281 S    
C27   H16   1.083706 S    
C6    H4    1.081421 S    
C46   H21   1.074779 S    
C42   H26   1.083785 S    
C55   H19   1.084266 S    
C1    C23   1.467226 S    
C25   C33   1.412289 A    
C29   H14   1.078299 S    
C2    C24   1.467747 S    
Cu1   Cu2   2.696726 S    
C30   H13   1.078495 S    
C18   C21   1.386084 A    
O2    C2    1.301375 A    
C5    C15   1.393804 A    
C37   H17   1.078952 S    
C32   C34   1.420862 A    
C47   C49   1.416695 A    
C26   C28   1.393167 A    
C39   H11   1.081980 S    
C14   C16   1.394370 A    
C56   H20   1.084314 S    
C3    C20   1.455862 S    
C18   C20   1.398465 A    
C42   C44   1.389441 A    
C41   C43   1.389229 A    
C23   C29   1.397289 A    
C5    C7    1.394539 A    
C31   C33   1.420973 A    
C44   H23   1.081707 S    
C17   C19   1.399779 A    
O7    Cu2   1.973593 S    
C45   C47   1.417822 A    
C48   C52   1.431711 A    
N3    O9    1.301320 A    
C47   C51   1.431812 A    
O6    C4    1.300805 A    
C53   H27   1.076147 S    
C26   C34   1.413184 A    
N4    O12   1.301564 A    
O7    C3    1.294020 A    
O3    Cu2   1.951093 S    
O8    C4    1.294684 A    
O4    C2    1.300498 A    
C53   C55   1.387259 A    
C7    H5    1.083574 S    
N2    C46   1.359418 A    
Cu2   N1    2.025737 S    
C8    H6    1.083554 S    
O1    Cu1   1.956458 S    
C49   C55   1.392289 A    
C51   C54   1.412595 A    
C24   C30   1.396303 A    
C7    C9    1.406377 A    
O6    Cu2   1.967849 S    
N3    O10   1.301552 A    
C6    C8    1.394032 A    
C43   H24   1.081644 S    
C46   C48   1.417754 A    
C20   C22   1.415980 A    
O3    C1    1.301566 A    
O8    Cu1   1.973593 S    
C9    C22   1.485371 S    
C41   H25   1.083771 S    
C9    C11   1.420672 A    
C10   C12   1.420145 A    
C4    C19   1.456275 S    
C18   H10   1.084897 S    
C13   H7    1.082350 S    
C25   Cl1   1.757431 S    
C14   H8    1.082501 S    
C38   H18   1.078402 S    
C32   C36   1.422348 A    
C6    C16   1.394791 A    
C12   C14   1.405061 A    
C5    H3    1.081519 S    
N1    C45   1.359606 A    
C31   C35   1.422415 A    
C26   Cl2   1.760006 S    
N4    O11   1.301354 A    
O2    Cu2   1.956458 S    
C12   N4    1.439962 S    
O5    Cu1   1.967848 S    
C42   C50   1.400534 A    
C52   C53   1.412671 A    
C8    C10   1.405480 A    
C35   C38   1.413004 A    
C23   C27   1.397189 A    
H1    C15   1.082128 S    
C24   C28   1.397204 A    
C10   C21   1.483912 S    
