data_mof_unit_6851.cif
_audit_creation_date              2012-10-26T21:06:32-0400
_audit_creation_method            fapswitch 2.2
_symmetry_space_group_name_H-M    P1
_symmetry_Int_Tables_number       1
_space_group_crystal_system       triclinic
_cell_length_a                    15.911685
_cell_length_b                    10.760346
_cell_length_c                    9.594065
_cell_angle_alpha                 90.790211
_cell_angle_beta                  90.357937
_cell_angle_gamma                 90.861631
_cell_volume                      1642.27393263

loop_
_atom_site_label
_atom_site_type_symbol
_atom_type_description
_atom_site_fract_x
_atom_site_fract_y
_atom_site_fract_z
_atom_type_partial_charge
C1    C     C_R   0.500584 0.262802 0.499106 0.566306
C2    C     C_R   0.551126 0.579511 0.077891 0.236545
C3    C     C_R   0.340178 0.498079 0.499568 0.573984
C4    C     C_R   0.659824 0.501196 0.500418 0.589315
C5    C     C_3   0.970504 0.388214 0.539667 0.104699
C6    C     C_3   0.029464 0.609349 0.460406 0.104155
C7    C     C_3   0.025975 0.411151 0.411307 0.100935
C8    C     C_3   0.974007 0.586413 0.588758 0.100541
C9    C     C_1   0.250924 0.497142 0.498835 0.028027
C10   C     C_1   0.749067 0.501334 0.501158 0.029616
C11   C     C_3   0.028344 0.474747 0.627803 0.105101
C12   C     C_R   0.498936 0.737187 0.500976 0.611722
C13   C     C_3   0.971637 0.522822 0.372267 0.104063
C14   C     C_3   0.084512 0.497660 0.499421 0.052492
C15   C     C_3   0.915466 0.499912 0.500646 0.052136
C16   C     C_1   0.175723 0.497020 0.498857 0.006502
C17   C     C_1   0.824261 0.500908 0.501170 0.004449
C18   C     C_R   0.424401 0.064105 0.473945 0.043123
C19   C     C_R   0.574035 0.935391 0.529341 0.034455
C20   C     C_2   0.341647 0.866157 0.454052 0.605884
C21   C     C_2   0.656791 0.135148 0.545490 0.570081
C22   C     C_R   0.422714 0.934307 0.476434 0.052318
C23   C     C_R   0.576084 0.065685 0.525246 0.039199
C24   C     C_R   0.497984 0.871238 0.503653 -0.011765
C25   C     C_R   0.500899 0.128713 0.497119 -0.031788
C26   C     C_R   0.448459 0.420249 0.072874 0.196368
C27   C     C_R   0.550086 0.582140 0.929996 0.187600
C28   C     C_R   0.448814 0.419726 0.923226 0.207534
Cu1   Cu    Cu3+1 0.500000 0.500020 0.640660 1.024943
Cu2   Cu    Cu3+1 0.500000 0.499980 0.359340 1.056497
H1    H     H_    0.000550 0.276156 0.266793 0.250696
H2    H     H_    0.908005 0.631401 0.237726 0.238292
H3    H     H_    0.006561 0.433037 0.830151 0.246928
H4    H     H_    0.092004 0.366192 0.762330 0.237562
H5    H     H_    0.352899 0.185320 0.366623 0.259823
H6    H     H_    0.337772 0.187505 0.541583 0.229999
H7    H     H_    0.694647 0.892741 0.481062 0.252342
H8    H     H_    0.671274 0.885491 0.653884 0.279212
H9    H     H_    0.233918 0.848535 0.343078 0.346916
H10   H     H_    0.760478 0.165985 0.663624 0.351990
H11   H     H_    0.331946 0.354853 0.118259 0.212440
H12   H     H_    0.088810 0.358727 0.237311 0.238461
H13   H     H_    0.408253 0.246025 0.117693 0.216461
H14   H     H_    0.561714 0.745973 0.826330 0.266886
H15   H     H_    0.642035 0.641958 0.795142 0.275530
H16   H     H_    0.409018 0.245122 0.872392 0.215454
H17   H     H_    0.332476 0.353602 0.872999 0.211676
H18   H     H_    0.590031 0.753887 0.130838 0.235387
H19   H     H_    0.667318 0.647123 0.124768 0.231617
H20   H     H_    0.999448 0.721434 0.733236 0.251063
H21   H     H_    0.911206 0.638847 0.762782 0.240084
H22   H     H_    0.990216 0.209958 0.596248 0.249007
H23   H     H_    0.902513 0.230184 0.501687 0.250793
H24   H     H_    0.009706 0.787535 0.403611 0.247474
H25   H     H_    0.097280 0.767496 0.498541 0.251974
H26   H     H_    0.993433 0.564505 0.169915 0.246422
N1    N     N_R   0.500020 0.500030 0.852070 -0.207944
N2    N     N_3   0.649094 0.865851 0.553163 -0.624551
N3    N     N_3   0.394120 0.337303 0.146579 -0.574977
N4    N     N_3   0.600042 0.677603 0.867098 -0.648164
N5    N     N_3   0.394742 0.336290 0.845792 -0.562890
N6    N     N_3   0.605381 0.662610 0.155521 -0.540599
N7    N     N_R   0.499980 0.499970 0.147930 -0.197038
N8    N     N_3   0.054066 0.314838 0.315053 -0.611766
N9    N     N_3   0.945926 0.682733 0.685012 -0.617061
N10   N     N_3   0.938541 0.267660 0.583899 -0.621468
N11   N     N_3   0.061405 0.729921 0.416202 -0.620568
N12   N     N_3   0.940958 0.548218 0.232395 -0.617361
N13   N     N_3   0.059031 0.449356 0.767671 -0.619345
N14   N     N_3   0.347301 0.129861 0.454644 -0.566324
O1    O     O_R   0.500000 0.319660 0.618740 -0.475684
O2    O     O_R   0.287065 0.901655 0.347487 -0.655897
O3    O     O_2   0.678988 0.211935 0.459964 -0.522764
O4    O     O_R   0.707379 0.112688 0.661773 -0.701404
O5    O     O_R   0.500000 0.680340 0.381260 -0.476767
O6    O     O_R   0.499990 0.319630 0.381170 -0.467208
O7    O     O_R   0.500010 0.680370 0.618830 -0.497241
O8    O     O_R   0.379080 0.500000 0.618760 -0.463470
O9    O     O_R   0.620920 0.500000 0.381240 -0.457026
O10   O     O_R   0.379080 0.499970 0.381190 -0.481179
O11   O     O_R   0.620920 0.500030 0.618810 -0.516216
O12   O     O_2   0.321998 0.780478 0.530130 -0.534617

loop_
_geom_bond_atom_site_label_1
_geom_bond_atom_site_label_2
_ccdc_geom_bond_type
C18   N14   S    
H15   N4    S    
C20   O12   D    
C28   N1    A    
C1    O1    A    
C9    C16   T    
C5    C11   S    
C27   N4    S    
C11   C14   S    
C10   C17   T    
C21   O3    D    
H21   N9    S    
H8    N2    S    
C7    C14   S    
Cu1   O8    S    
H5    N14   S    
H9    O2    S    
C2    C27   A    
C26   N3    S    
H7    N2    S    
H13   N3    S    
H2    N12   S    
Cu2   O10   S    
C28   N5    S    
C8    N9    S    
Cu2   N7    S    
C1    C25   S    
C18   C25   A    
C3    O10   A    
H6    N14   S    
C19   N2    S    
C4    O11   A    
H16   N5    S    
H11   N3    S    
C4    O9    A    
C27   N1    A    
C5    C7    S    
C6    C8    S    
H24   N11   S    
H26   N12   S    
C21   O4    S    
C19   C23   A    
C26   N7    A    
Cu1   O11   S    
Cu1   Cu2   S    
C3    C9    S    
C6    C14   S    
Cu2   O6    S    
H18   N6    S    
C12   O7    A    
H23   N10   S    
H4    N13   S    
Cu2   O9    S    
C6    N11   S    
C20   C22   S    
C8    C15   S    
C13   C15   S    
C22   C24   A    
C4    C10   S    
H12   N8    S    
H22   N10   S    
C2    N7    A    
C15   C17   S    
H19   N6    S    
C18   C22   A    
C1    O6    A    
H1    N8    S    
Cu1   N1    S    
C5    N10   S    
H17   N5    S    
H25   N11   S    
C11   N13   S    
H3    N13   S    
C12   C24   S    
C26   C28   A    
C21   C23   S    
C19   C24   A    
C6    C13   S    
Cu2   O5    S    
H14   N4    S    
C8    C11   S    
H10   O4    S    
C14   C16   S    
C23   C25   A    
H20   N9    S    
C7    N8    S    
C5    C15   S    
C7    C13   S    
Cu1   O7    S    
C12   O5    A    
C20   O2    S    
C3    O8    A    
C2    N6    S    
Cu1   O1    S    
C13   N12   S    
