data_mof_unit_16096.cif
_audit_creation_date              2012-12-11T16:35:21-0500
_audit_creation_method            fapswitch 2.2
_symmetry_space_group_name_H-M    P1
_symmetry_Int_Tables_number       1
_space_group_crystal_system       triclinic
_cell_length_a                    6.943634
_cell_length_b                    18.098688
_cell_length_c                    19.185792
_cell_angle_alpha                 108.60067
_cell_angle_beta                  91.099022
_cell_angle_gamma                 89.886572
_cell_volume                      2284.70495966

loop_
_atom_site_label
_atom_site_type_symbol
_atom_type_description
_atom_site_fract_x
_atom_site_fract_y
_atom_site_fract_z
_atom_type_partial_charge
O1    O     O_R   0.505700 0.440210 0.561730 -0.497620
O2    O     O_R   0.169350 0.406300 0.412660 -0.507271
O3    O     O_R   0.005650 0.559790 0.438270 -0.518486
C1    C     C_R   0.338788 0.381768 0.385615 0.779611
O4    O     O_R   0.175560 0.430650 0.559600 -0.505777
O5    O     O_R   0.011900 0.584320 0.586250 -0.552763
C2    C     C_R   0.347355 0.416763 0.582203 0.833268
O6    O     O_R   0.499450 0.415680 0.413750 -0.548662
O7    O     O_3   0.341370 0.550390 0.508570 -0.383922
V1    V     V_3+5 0.063940 0.490650 0.498410 1.649628
O8    O     O_R   0.682570 0.593700 0.587340 -0.528519
C3    C     C_R   0.852583 0.616873 0.614934 0.762379
O9    O     O_R   0.676370 0.569350 0.440400 -0.554439
C4    C     C_R   0.842952 0.580138 0.414873 0.735794
V2    V     V_3+5 0.564750 0.509350 0.501590 1.594724
O10   O     O_3   0.837190 0.449610 0.491430 -0.325515
C5    C     C_R   0.004156 0.666033 0.266239 0.352211
C6    C     C_R   0.005720 0.622899 0.315690 0.316772
C7    C     C_R   0.848048 0.626264 0.362280 -0.271158
C8    C     C_R   0.691982 0.674802 0.358363 -0.241218
H1    H     H_    0.569485 0.679211 0.393571 0.214365
C9    C     C_R   0.695641 0.721434 0.312406 0.476844
C10   C     C_R   0.851198 0.716765 0.265234 -0.113487
C11   C     C_R   0.757798 0.751364 0.151049 0.426799
C12   C     C_R   0.779967 0.799069 0.106138 0.248205
C13   C     C_R   0.914271 0.861755 0.125908 -0.199445
C14   C     C_R   0.026960 0.874581 0.191213 0.059185
C15   C     C_R   0.995924 0.828663 0.236762 -0.112520
H2    H     H_    0.082287 0.838719 0.286659 0.194157
C16   C     C_R   0.862372 0.767586 0.217734 0.021017
H3    H     H_    0.989697 0.644231 0.946401 0.212323
C17   C     C_R   0.908002 0.901249 0.741502 0.274838
C18   C     C_R   0.814424 0.918055 0.683638 -0.191590
C19   C     C_R   0.760072 0.857366 0.621756 0.405098
C20   C     C_R   0.832662 0.782709 0.614698 0.027565
C21   C     C_R   0.865169 0.762428 0.680723 -0.051480
C22   C     C_R   0.891815 0.825914 0.746953 0.005628
C23   C     C_R   0.867030 0.684264 0.683955 -0.103156
C24   C     C_R   0.886552 0.671568 0.754274 -0.049240
C25   C     C_R   0.920803 0.737247 0.818923 0.011035
C26   C     C_R   0.912882 0.814132 0.815880 -0.089266
C27   C     C_R   0.869996 0.596177 0.764197 0.247385
C28   C     C_R   0.908515 0.587476 0.833519 0.422883
C29   C     C_R   0.959053 0.651347 0.893334 -0.098935
C30   C     C_R   0.962324 0.725174 0.886692 -0.157421
H4    H     H_    0.806597 0.976682 0.681369 0.173123
H5    H     H_    0.997782 0.772976 0.935848 0.152490
C31   C     C_R   0.317194 0.213122 0.382185 0.351561
C32   C     C_R   0.371296 0.140255 0.386372 -0.063349
C33   C     C_R   0.453976 0.085324 0.326971 -0.183906
C34   C     C_R   0.468290 0.099917 0.260484 -0.176050
C35   C     C_R   0.415183 0.172587 0.254000 0.037649
C36   C     C_R   0.357583 0.234066 0.318180 -0.001351
C37   C     C_R   0.423927 0.184553 0.184819 -0.116895
C38   C     C_R   0.417768 0.261583 0.182495 0.016811
C39   C     C_R   0.404612 0.325456 0.248923 0.023362
C40   C     C_R   0.354647 0.312719 0.316319 -0.142587
C41   C     C_R   0.436095 0.276531 0.115154 -0.223357
C42   C     C_R   0.467088 0.351856 0.113418 0.414280
C43   C     C_R   0.489192 0.413614 0.179545 0.088094
C44   C     C_R   0.450596 0.400545 0.246302 -0.182918
H6    H     H_    0.345444 0.125346 0.435780 0.175931
H7    H     H_    0.498856 0.029731 0.331543 0.167696
H8    H     H_    0.527232 0.054817 0.214448 0.117871
H9    H     H_    0.432982 0.229627 0.063297 0.122825
H10   H     H_    0.466835 0.448837 0.296447 0.166537
C45   C     C_R   0.551892 0.293027 0.695492 -0.134129
H11   H     H_    0.672659 0.254802 0.694789 0.138546
C46   C     C_R   0.530340 0.326703 0.639051 0.443052
C47   C     C_R   0.367616 0.373776 0.636700 -0.106540
C48   C     C_R   0.231151 0.385735 0.692072 -0.144737
H12   H     H_    0.107641 0.422230 0.692792 0.211941
C49   C     C_R   0.253533 0.351918 0.747852 -0.068428
H13   H     H_    0.143249 0.361380 0.788863 0.185290
C50   C     C_R   0.412707 0.304350 0.749847 0.027275
C51   C     C_R   0.246887 0.215048 0.803294 -0.118474
H14   H     H_    0.121835 0.224865 0.773125 0.123940
C52   C     C_R   0.235597 0.163956 0.845213 0.193406
C53   C     C_R   0.405186 0.149419 0.882929 -0.108668
C54   C     C_R   0.563818 0.198796 0.886279 -0.156089
H15   H     H_    0.680704 0.198706 0.923789 0.143955
C55   C     C_R   0.570575 0.250279 0.844546 -0.042830
H16   H     H_    0.698015 0.285588 0.847333 0.155130
C56   C     C_R   0.413208 0.256009 0.800003 0.064167
O11   O     O_R   0.273230 0.084330 0.086440 -0.545490
O12   O     O_R   0.596660 0.069390 0.940470 -0.548469
O13   O     O_R   0.760270 0.915710 0.913690 -0.524941
C57   C     C_R   0.423628 0.089241 0.922815 0.730943
O14   O     O_R   0.603330 0.093680 0.087390 -0.545784
O15   O     O_R   0.766990 0.940160 0.061660 -0.525508
C58   C     C_R   0.435114 0.116357 0.115467 0.661062
O16   O     O_R   0.266510 0.059870 0.938470 -0.527440
O17   O     O_3   0.431050 0.949630 0.991510 -0.342924
V3    V     V_3+5 0.708490 0.009340 0.001580 1.486238
O18   O     O_R   0.096270 0.930570 0.059390 -0.546601
C59   C     C_R   0.927857 0.914366 0.079968 0.749331
O19   O     O_R   0.089600 0.906290 0.912460 -0.512029
C60   C     C_R   0.920250 0.882869 0.885082 0.781282
V4    V     V_3+5 0.207670 0.990600 0.998190 1.526673
O20   O     O_3   0.935250 0.050360 0.008480 -0.388743
Cl1   Cl    Cl    0.190643 0.653313 0.202238 -0.499237
Cl2   Cl    Cl    0.111193 0.957327 0.781505 -0.689957
Cl3   Cl    Cl    0.648579 0.879659 0.547495 -0.619018
C61   C     C_3   0.921995 0.740705 0.541487 -0.390920
C62   C     C_3   0.082612 0.788300 0.521854 -0.573171
H17   H     H_    0.026531 0.841818 0.512549 0.268440
H18   H     H_    0.194081 0.804807 0.566538 0.243296
H19   H     H_    0.151845 0.752564 0.470347 0.227417
H20   H     H_    0.994113 0.687199 0.540633 0.183599
H21   H     H_    0.806996 0.727797 0.498893 0.207929
Cl4   Cl    Cl    0.781024 0.511687 0.696226 -0.627586
Cl5   Cl    Cl    0.888500 0.496703 0.848678 -0.550698
C63   C     C_3   0.561888 0.492309 0.179734 -0.254663
C64   C     C_3   0.775988 0.488599 0.161952 -0.618768
H22   H     H_    0.861371 0.474484 0.205571 0.217007
H23   H     H_    0.804815 0.443962 0.108285 0.273699
H24   H     H_    0.824227 0.545709 0.158843 0.267851
H25   H     H_    0.477771 0.512234 0.139311 0.294627
H26   H     H_    0.544115 0.536926 0.234369 0.228716
Cl6   Cl    Cl    0.171769 0.267273 0.454083 -0.611357
Cl7   Cl    Cl    0.205867 0.563646 0.316274 -0.684995
Cl8   Cl    Cl    0.483875 0.366213 0.027132 -0.621728
Cl9   Cl    Cl    0.705053 0.303625 0.570013 -0.543852
C65   C     C_3   0.032149 0.141777 0.857365 -0.311792
C66   C     C_3   0.910247 0.113596 0.786042 -0.696615
H27   H     H_    0.848649 0.162951 0.770995 0.194944
H28   H     H_    0.999463 0.079976 0.739334 0.270707
H29   H     H_    0.788476 0.077287 0.793372 0.229771
H30   H     H_    0.017606 0.098522 0.885841 0.237497
H31   H     H_    0.970001 0.196073 0.894169 0.155279
Cl10  Cl    Cl    0.507332 0.788178 0.318178 -0.594611
Cl11  Cl    Cl    0.605752 0.668926 0.121633 -0.481291
Cl12  Cl    Cl    0.642815 0.777091 0.023258 -0.599773
C67   C     C_3   0.190200 0.932720 0.212726 -0.354868
C68   C     C_3   0.378055 0.892935 0.181100 -0.584811
H32   H     H_    0.390526 0.835016 0.189142 0.288917
H33   H     H_    0.383354 0.884956 0.121474 0.255997
H34   H     H_    0.504168 0.928088 0.208932 0.176091
H35   H     H_    0.162791 0.984322 0.194727 0.170786
H36   H     H_    0.204755 0.955234 0.273648 0.195091

loop_
_geom_bond_atom_site_label_1
_geom_bond_atom_site_label_2
_ccdc_geom_bond_type
C68   H34   S    
C38   C39   A    
O17   V3    S    
C33   H7    S    
C9    Cl10  S    
C49   H13   S    
O18   C59   A    
C1    O6    A    
C51   C56   A    
C2    C47   S    
O19   C60   A    
O11   C58   A    
C68   H32   S    
C31   Cl6   S    
C35   C36   A    
C62   H18   S    
C15   H2    S    
C13   C14   A    
C5    C10   A    
C21   C22   A    
C51   C52   A    
C6    C7    A    
C67   H36   S    
C61   H20   S    
O12   C57   A    
C50   C56   S    
C46   Cl9   S    
V2    O10   S    
O13   V3    S    
C39   C40   A    
C5    C6    A    
C19   C20   A    
O14   V3    S    
C5    Cl1   S    
C61   C62   S    
O12   V3    S    
C63   H26   S    
O8    V2    S    
C44   H10   S    
C57   O16   A    
C1    C40   S    
C66   H29   S    
C47   C48   A    
O1    V2    S    
O14   C58   A    
C52   C65   S    
O7    V1    S    
O17   V4    S    
O13   C60   A    
C42   Cl8   S    
C42   C43   A    
O9    C4    A    
C3    C23   S    
C18   H4    S    
C49   C50   A    
C43   C63   S    
C25   C30   A    
O5    C3    A    
C53   C57   S    
O19   V4    S    
C35   C37   A    
O15   V3    S    
C24   C27   A    
C30   H5    S    
C13   C59   S    
C31   C36   A    
C62   H19   S    
H3    C29   S    
C45   H11   S    
C10   C16   S    
C51   H14   S    
C54   C55   A    
C20   C61   S    
C67   H35   S    
C48   C49   A    
C36   C40   A    
C52   C53   A    
C12   C13   A    
C26   C60   S    
C34   C35   A    
C43   C44   A    
C45   C46   A    
C20   C21   A    
O2    C1    A    
C28   C29   A    
O11   V4    S    
C11   Cl11  S    
C41   H9    S    
V4    O20   S    
V3    O20   S    
C33   C34   A    
C65   H31   S    
C17   C22   A    
C11   C12   A    
O15   C59   A    
O3    C4    A    
C25   C26   A    
C8    C9    A    
C32   C33   A    
O6    V2    S    
C55   C56   A    
O9    V2    S    
C66   H27   S    
C17   Cl2   S    
C53   C54   A    
C45   C50   A    
C28   Cl5   S    
O2    V1    S    
C24   C25   A    
C12   Cl12  S    
C29   C30   A    
O4    C2    A    
C63   C64   S    
C68   H33   S    
C37   C38   A    
C31   C32   A    
C32   H6    S    
O1    C2    A    
C14   C67   S    
C4    C7    S    
C9    C10   A    
C34   H8    S    
C54   H15   S    
O5    V1    S    
C64   H23   S    
O8    C3    A    
C64   H22   S    
C67   C68   S    
C62   H17   S    
C19   Cl3   S    
C17   C18   A    
C7    C8    A    
C15   C16   A    
C41   C42   A    
O4    V1    S    
O3    V1    S    
V1    O10   S    
C61   H21   S    
C23   C24   A    
C21   C23   A    
C18   C19   A    
C65   H30   S    
O18   V4    S    
C27   Cl4   S    
C22   C26   A    
C46   C47   A    
C11   C16   A    
C64   H24   S    
C6    Cl7   S    
C63   H25   S    
C37   C58   S    
C48   H12   S    
C8    H1    S    
O16   V4    S    
C55   H16   S    
C27   C28   A    
C38   C41   A    
C14   C15   A    
C66   H28   S    
C39   C44   A    
O7    V2    S    
C65   C66   S    
