data_mof_unit_6954.cif
_audit_creation_date              2012-12-10T19:13:22-0500
_audit_creation_method            fapswitch 2.2
_symmetry_space_group_name_H-M    P1
_symmetry_Int_Tables_number       1
_space_group_crystal_system       triclinic
_cell_length_a                    10.106664
_cell_length_b                    10.73565
_cell_length_c                    16.648372
_cell_angle_alpha                 90.235107
_cell_angle_beta                  87.430536
_cell_angle_gamma                 87.415536
_cell_volume                      1802.68951192

loop_
_atom_site_label
_atom_site_type_symbol
_atom_type_description
_atom_site_fract_x
_atom_site_fract_y
_atom_site_fract_z
_atom_type_partial_charge
C1    C     C_R   0.498570 0.741084 0.497492 0.873660
C2    C     C_R   0.343728 0.509998 0.782312 -0.070322
C3    C     C_R   0.441882 0.425893 0.138201 -0.110184
C4    C     C_R   0.463212 0.410342 0.219233 -0.132447
C5    C     C_R   0.555921 0.615006 0.223856 -0.186346
C6    C     C_R   0.535956 0.630085 0.142549 -0.059163
C7    C     C_R   0.474328 0.537279 0.100420 0.194221
C8    C     C_2   0.415019 0.650529 0.975178 -0.077744
C9    C     C_2   0.456695 0.547460 0.014652 -0.306962
C10   C     C_R   0.518785 0.505527 0.262005 -0.008914
C11   C     C_3   0.420509 0.925197 0.420727 -0.432069
C12   C     C_R   0.483148 0.496250 0.653456 0.979028
C13   C     C_3   0.409172 0.069261 0.422303 -0.193927
C14   C     C_3   0.438068 0.933474 0.572683 -0.390745
C15   C     C_3   0.643014 0.922371 0.481269 -0.416943
C16   C     C_3   0.498511 0.877831 0.493028 0.075933
C17   C     C_3   0.502724 0.121005 0.488262 -0.089331
C18   C     C_3   0.453735 0.075138 0.573889 -0.236830
C19   C     C_3   0.644881 0.063224 0.464373 -0.191185
C20   C     C_3   0.911909 0.627366 0.524914 -0.257377
C21   C     C_3   0.071895 0.628180 0.530093 -0.154113
C22   C     C_3   0.926012 0.418040 0.565727 -0.108240
C23   C     C_R   0.502115 0.259105 0.492547 0.885685
C24   C     C_3   0.926281 0.471637 0.417969 -0.181229
C25   C     C_3   0.083898 0.407966 0.556950 -0.322988
C26   C     C_3   0.086027 0.464349 0.421154 -0.248459
C27   C     C_R   0.516240 0.499601 0.348113 0.890759
C28   C     C_R   0.471115 0.508310 0.742482 -0.126302
C29   C     C_R   0.578647 0.549226 0.785286 -0.082294
C30   C     C_R   0.553323 0.624633 0.853029 -0.216912
C31   C     C_R   0.425112 0.637777 0.887911 0.117680
C32   C     C_R   0.320728 0.581209 0.852307 -0.188263
N1    N     N_3   0.861190 0.500250 0.501720 -0.155921
N2    N     N_3   0.138550 0.503270 0.501080 -0.165084
O1    O     O_R   0.383960 0.685090 0.500020 -0.574688
O2    O     O_R   0.616040 0.685320 0.499960 -0.620486
O3    O     O_R   0.370240 0.499890 0.615830 -0.609905
O4    O     O_R   0.602330 0.500120 0.615770 -0.539424
O5    O     O_R   0.383960 0.314680 0.500040 -0.634448
O6    O     O_R   0.616040 0.314910 0.499980 -0.577303
O7    O     O_R   0.397670 0.499880 0.384230 -0.624022
O8    O     O_R   0.629760 0.500110 0.384170 -0.579222
Zn1   Zn    Zn3+2 0.345040 0.499850 0.500040 0.995832
Zn2   Zn    Zn3+2 0.654960 0.500150 0.499960 1.031842
C33   C     C_2   0.710364 0.483495 0.777874 1.006852
O9    O     O_2   0.810714 0.539089 0.789853 -0.563005
O10   O     O_R   0.717938 0.354428 0.766924 -0.742061
H1    H     H_    0.811915 0.317816 0.769181 0.334986
H2    H     H_    0.566877 0.714256 0.112925 0.146940
H3    H     H_    0.322622 0.884260 0.418397 0.232427
H4    H     H_    0.474808 0.892695 0.364184 0.161035
H5    H     H_    0.444992 0.097715 0.362024 0.176942
C34   C     C_2   0.266724 0.115366 0.422336 0.940239
O11   O     O_2   0.189858 0.098140 0.479486 -0.543588
O12   O     O_R   0.221895 0.167317 0.351049 -0.800177
H6    H     H_    0.122595 0.172833 0.348509 0.366378
H7    H     H_    0.331707 0.915316 0.579753 0.282575
H8    H     H_    0.353659 0.119390 0.588393 0.209877
H9    H     H_    0.695287 0.903682 0.536790 0.257178
H10   H     H_    0.698332 0.866923 0.433534 0.242507
C35   C     C_2   0.688523 0.086958 0.376365 0.901501
O13   O     O_2   0.767270 0.014433 0.340221 -0.624186
O14   O     O_R   0.638873 0.192098 0.336313 -0.813828
H11   H     H_    0.664370 0.190361 0.276687 0.372680
H12   H     H_    0.432654 0.326212 0.249185 0.191362
H13   H     H_    0.720292 0.102739 0.502311 0.199195
H14   H     H_    0.485139 0.886883 0.624592 0.177300
C36   C     C_2   0.540719 0.111504 0.641549 0.993221
O15   O     O_2   0.504346 0.197575 0.686611 -0.540259
O16   O     O_R   0.659572 0.044543 0.654657 -0.806694
H15   H     H_    0.705407 0.075676 0.703312 0.375352
C37   C     C_2   0.843680 0.704169 0.593742 0.969095
O17   O     O_2   0.876334 0.811667 0.603023 -0.621179
O18   O     O_R   0.753075 0.656929 0.648543 -0.748892
H16   H     H_    0.715362 0.722389 0.688435 0.347019
H17   H     H_    0.880606 0.692206 0.479543 0.194167
C38   C     C_2   0.107379 0.744802 0.480264 0.975109
O19   O     O_2   0.154740 0.833299 0.512757 -0.579842
O20   O     O_R   0.055688 0.765870 0.404722 -0.779509
H18   H     H_    0.075411 0.850982 0.382072 0.372007
C39   C     C_2   0.114885 0.652296 0.618133 0.974010
O21   O     O_2   0.048322 0.617491 0.676199 -0.598683
O22   O     O_R   0.231132 0.712801 0.632823 -0.759658
H19   H     H_    0.245341 0.724936 0.692192 0.340354
H20   H     H_    0.904574 0.464139 0.625014 0.178948
H21   H     H_    0.125745 0.415788 0.616540 0.199073
C40   C     C_2   0.887530 0.343655 0.388150 0.927147
O23   O     O_2   0.839055 0.331792 0.322763 -0.555144
O24   O     O_R   0.924795 0.237099 0.430184 -0.816581
H22   H     H_    0.918999 0.157398 0.398676 0.364260
H23   H     H_    0.593873 0.690801 0.257528 0.145209
C41   C     C_2   0.882790 0.567288 0.351040 1.006574
O25   O     O_2   0.922689 0.549821 0.281141 -0.558523
O26   O     O_R   0.793362 0.668741 0.365615 -0.799134
H24   H     H_    0.786370 0.726435 0.317817 0.351417
C42   C     C_2   0.157835 0.503858 0.343043 1.047292
O27   O     O_2   0.171065 0.428558 0.287401 -0.586939
O28   O     O_R   0.205618 0.622504 0.331150 -0.748008
H25   H     H_    0.245858 0.634522 0.274960 0.360913
H26   H     H_    0.117446 0.364184 0.416207 0.168200
C43   C     C_2   0.868509 0.293304 0.585019 0.962892
O29   O     O_2   0.757329 0.290149 0.615580 -0.575968
O30   O     O_R   0.948365 0.183154 0.580640 -0.731477
H27   H     H_    0.900252 0.107233 0.599746 0.383237
H28   H     H_    0.121892 0.313453 0.538205 0.261471
H29   H     H_    0.485253 0.463164 0.980166 0.182009
H30   H     H_    0.225921 0.579012 0.885362 0.206166
H31   H     H_    0.397836 0.352228 0.105259 0.160747
C44   C     C_2   0.241190 0.421976 0.761050 0.960050
O31   O     O_2   0.271891 0.329079 0.720571 -0.596367
O32   O     O_R   0.110745 0.440330 0.791916 -0.741920
H32   H     H_    0.051161 0.372896 0.774163 0.346060
C45   C     C_2   0.352442 0.765610 0.012788 0.944731
O33   O     O_2   0.305672 0.764884 0.081804 -0.607136
O34   O     O_R   0.342452 0.874509 0.967289 -0.775955
H33   H     H_    0.296626 0.946675 0.998530 0.358163
H34   H     H_    0.635629 0.652930 0.887542 0.184995

loop_
_geom_bond_atom_site_label_1
_geom_bond_atom_site_label_2
_ccdc_geom_bond_type
C10   C27   S    
C40   O23   D    
C2    C44   S    
C43   O29   D    
C15   H10   S    
C14   C18   S    
O32   H32   S    
O12   H6    S    
C39   O21   D    
C25   H28   S    
C38   O19   D    
C15   C19   S    
C17   C23   S    
C22   C43   S    
C12   C28   S    
O22   H19   S    
C5    C6    A    
C28   C29   A    
C8    C31   S    
C24   C26   S    
C3    C7    A    
C44   O32   S    
C30   C31   A    
C22   H20   S    
C18   C36   S    
C15   C16   S    
C20   H17   S    
C19   H13   S    
C2    C32   A    
C33   O10   S    
C12   O3    A    
C35   O14   S    
C25   H21   S    
C18   H8    S    
C31   C32   A    
C36   O15   D    
C22   C25   S    
C42   O28   S    
C14   H14   S    
O16   H15   S    
O1    Zn1   S    
C25   N2    S    
C38   O20   S    
C43   O30   S    
O7    Zn1   S    
C35   O13   D    
O8    Zn2   S    
C24   C41   S    
C39   O22   S    
C26   N2    S    
C13   C34   S    
C34   O12   S    
C26   C42   S    
O18   H16   S    
C37   O18   S    
C8    C9    D    
O5    Zn1   S    
C21   N2    S    
C9    H29   S    
C34   O11   D    
C32   H30   S    
O14   H11   S    
C29   C33   S    
O3    Zn1   S    
C14   H7    S    
O4    Zn2   S    
C29   C30   A    
C13   H5    S    
C11   C16   S    
C27   O7    A    
O10   H1    S    
C42   O27   D    
C41   O26   S    
C17   C18   S    
C1    C16   S    
C5    H23   S    
C8    C45   S    
C20   N1    S    
C21   C39   S    
C40   O24   S    
C14   C16   S    
O2    Zn2   S    
C4    C10   A    
C3    C4    A    
C1    O1    A    
C45   O33   D    
C7    C9    S    
C22   N1    S    
N1    Zn2   S    
C15   H9    S    
N2    Zn1   S    
C37   O17   D    
C6    C7    A    
C30   H34   S    
C3    H31   S    
C24   N1    S    
C13   C17   S    
C5    C10   A    
C11   H3    S    
C44   O31   D    
C11   C13   S    
C27   O8    A    
O34   H33   S    
C4    H12   S    
C19   C35   S    
C23   O5    A    
C41   O25   D    
C17   C19   S    
C6    H2    S    
C12   O4    A    
O26   H24   S    
C24   C40   S    
C11   H4    S    
O20   H18   S    
C33   O9    D    
O6    Zn2   S    
C20   C21   S    
C36   O16   S    
O28   H25   S    
C21   C38   S    
O30   H27   S    
C20   C37   S    
C2    C28   A    
O24   H22   S    
C23   O6    A    
C1    O2    A    
C26   H26   S    
C45   O34   S    
