data_mof_unit_6409.cif
_audit_creation_date              2012-10-26T19:08:03-0400
_audit_creation_method            fapswitch 2.2
_symmetry_space_group_name_H-M    P1
_symmetry_Int_Tables_number       1
_space_group_crystal_system       triclinic
_cell_length_a                    15.103442
_cell_length_b                    13.947457
_cell_length_c                    19.330728
_cell_angle_alpha                 89.438975
_cell_angle_beta                  84.349094
_cell_angle_gamma                 88.404693
_cell_volume                      4050.64531323

loop_
_atom_site_label
_atom_site_type_symbol
_atom_type_description
_atom_site_fract_x
_atom_site_fract_y
_atom_site_fract_z
_atom_type_partial_charge
C1    C     C_R   0.328593 0.501039 0.503212 0.545194
C2    C     C_R   0.083067 0.563738 0.547007 0.031683
C3    C     C_R   0.933776 0.624016 0.585511 -0.122398
C4    C     C_R   0.066351 0.376045 0.413666 -0.122586
C5    C     C_R   0.026057 0.633812 0.583188 -0.003298
C6    C     C_R   0.974064 0.366047 0.416130 -0.003727
C7    C     C_R   0.431098 0.797634 0.535488 0.133147
C8    C     C_R   0.568712 0.202389 0.464282 0.133141
C9    C     C_R   0.569298 0.794487 0.464552 0.135761
C10   C     C_R   0.430863 0.205492 0.535653 0.135388
C11   C     C_R   0.575907 0.895609 0.474495 -0.001202
C12   C     C_R   0.671412 0.498936 0.496535 0.544308
C13   C     C_R   0.424191 0.104412 0.525647 -0.001194
C14   C     C_R   0.424554 0.899424 0.526166 0.001992
C15   C     C_R   0.575371 0.100624 0.473598 0.001879
C16   C     C_R   0.500121 0.948711 0.500159 0.026535
C17   C     C_R   0.499935 0.051315 0.499882 0.026361
C18   C     C_R   0.654528 0.946029 0.455769 -0.159386
C19   C     C_R   0.345489 0.054065 0.544170 -0.159314
C20   C     C_R   0.345877 0.953847 0.544975 -0.155729
C21   C     C_R   0.653958 0.046246 0.454442 -0.155485
C22   C     C_R   0.499073 0.500264 0.367602 0.533398
C23   C     C_R   0.805658 0.551586 0.544465 -0.150228
C24   C     C_R   0.501649 0.499695 0.632320 0.533538
C25   C     C_R   0.512515 0.584534 0.252861 -0.139830
C26   C     C_R   0.493791 0.414304 0.746367 -0.139014
C27   C     C_R   0.525407 0.583095 0.742538 -0.131434
C28   C     C_R   0.484539 0.415026 0.256669 -0.135194
C29   C     C_R   0.517571 0.584678 0.180135 -0.011205
C30   C     C_R   0.495129 0.412453 0.818618 -0.011355
C31   C     C_R   0.529850 0.583393 0.814638 -0.011808
C32   C     C_R   0.487225 0.412554 0.184096 -0.014065
C33   C     C_R   0.504183 0.498037 0.145274 0.058515
C34   C     C_R   0.194488 0.448489 0.454779 -0.150077
C35   C     C_R   0.512723 0.497842 0.853257 0.053565
C36   C     C_R   0.498329 0.500140 0.291340 -0.017579
C37   C     C_R   0.506427 0.499209 0.708177 -0.017517
C38   C     C_R   0.511206 0.498209 0.929147 0.318088
C39   C     C_R   0.506396 0.497389 0.069171 0.320871
C40   C     C_R   0.825647 0.449668 0.442241 -0.004615
C41   C     C_R   0.174274 0.549912 0.557185 -0.005160
C42   C     C_R   0.768806 0.497384 0.494730 0.014597
C43   C     C_R   0.231228 0.502529 0.504675 0.014572
C44   C     C_3   0.539808 0.677697 0.141577 -0.254429
C45   C     C_R   0.897572 0.557397 0.543678 -0.010464
C46   C     C_3   0.635015 0.674081 0.105337 -0.293806
C47   C     C_3   0.659295 0.769967 0.070921 -0.460083
C48   C     C_3   0.474366 0.318834 0.856668 -0.252131
C49   C     C_3   0.553248 0.247175 0.845956 -0.286924
C50   C     C_3   0.532398 0.152460 0.883460 -0.457583
C51   C     C_3   0.556451 0.675014 0.847989 -0.249875
C52   C     C_3   0.481068 0.751106 0.850511 -0.293182
C53   C     C_3   0.502940 0.839155 0.891155 -0.456338
C54   C     C_3   0.470292 0.318090 0.150108 -0.256465
C55   C     C_3   0.376366 0.317041 0.126351 -0.289122
C56   C     C_R   0.102545 0.442673 0.455492 -0.010372
C57   C     C_3   0.360433 0.222980 0.090499 -0.458078
C58   C     C_3   0.796358 0.435971 0.369875 -0.290579
C59   C     C_3   0.757033 0.526764 0.339340 -0.446647
C60   C     C_3   0.203422 0.562809 0.629618 -0.291576
C61   C     C_3   0.241443 0.471271 0.660069 -0.445654
C62   C     C_3   0.059731 0.724907 0.613207 -0.263924
C63   C     C_3   0.025034 0.815398 0.577347 -0.293503
C64   C     C_3   0.058381 0.906171 0.608498 -0.458779
C65   C     C_3   0.940544 0.274678 0.386385 -0.263732
C66   C     C_3   0.975601 0.184497 0.422420 -0.293460
C67   C     C_R   0.953653 0.498338 0.498758 0.029215
C68   C     C_3   0.942174 0.093405 0.391781 -0.458554
C69   C     C_3   0.366571 0.753155 0.590537 -0.223334
C70   C     C_3   0.376330 0.793604 0.663267 -0.325194
C71   C     C_3   0.313586 0.746180 0.719372 -0.475196
C72   C     C_3   0.631963 0.246588 0.408240 -0.223246
C73   C     C_3   0.618724 0.206802 0.335927 -0.323049
C74   C     C_3   0.675471 0.258069 0.277998 -0.469873
C75   C     C_3   0.634463 0.748526 0.408675 -0.217848
C76   C     C_3   0.628411 0.797063 0.336975 -0.327778
C77   C     C_3   0.694761 0.752448 0.281147 -0.478832
C78   C     C_R   0.046415 0.501666 0.500430 0.029314
C79   C     C_3   0.365872 0.251413 0.591677 -0.219019
C80   C     C_3   0.372229 0.202946 0.663390 -0.326549
C81   C     C_3   0.306549 0.248020 0.719567 -0.476463
C82   C     C_R   0.916968 0.436105 0.452289 0.031202
Cu1   Cu    Cu3+1 0.500000 0.597420 0.500000 0.893082
Cu2   Cu    Cu3+1 0.500000 0.402580 0.500000 0.892810
H1    H     H_    0.521160 0.650443 0.279668 0.127924
H2    H     H_    0.283230 0.091404 0.560068 0.110233
H3    H     H_    0.283997 0.919813 0.561416 0.106966
H4    H     H_    0.715727 0.080232 0.437623 0.105952
H5    H     H_    0.614200 0.787700 0.030395 0.150348
H6    H     H_    0.654241 0.828103 0.110065 0.144726
H7    H     H_    0.728712 0.765457 0.045994 0.143024
H8    H     H_    0.682927 0.656052 0.143862 0.158086
H9    H     H_    0.642090 0.618025 0.064739 0.190405
H10   H     H_    0.491139 0.693632 0.103341 0.170255
H11   H     H_    0.533820 0.738795 0.178472 0.131591
H12   H     H_    0.481468 0.349034 0.719974 0.130255
H13   H     H_    0.518990 0.164222 0.940305 0.151958
H14   H     H_    0.473530 0.119924 0.863735 0.145946
H15   H     H_    0.590219 0.101727 0.874123 0.140358
H16   H     H_    0.569309 0.232686 0.789601 0.156793
H17   H     H_    0.612630 0.277934 0.866236 0.186391
H18   H     H_    0.456493 0.329703 0.913155 0.165279
H19   H     H_    0.414893 0.287919 0.836797 0.130673
H20   H     H_    0.508222 0.819620 0.946413 0.154269
H21   H     H_    0.566532 0.869830 0.868464 0.147211
H22   H     H_    0.449019 0.894554 0.888960 0.138295
H23   H     H_    0.538798 0.648390 0.713056 0.128299
H24   H     H_    0.470625 0.774098 0.796810 0.153452
H25   H     H_    0.418387 0.720586 0.875320 0.185341
H26   H     H_    0.575675 0.661792 0.901290 0.165370
H27   H     H_    0.616541 0.703098 0.817367 0.129139
H28   H     H_    0.408242 0.213714 0.043437 0.150636
H29   H     H_    0.368212 0.161396 0.126475 0.148589
H30   H     H_    0.291807 0.223880 0.074476 0.141881
H31   H     H_    0.326377 0.326048 0.172197 0.160088
H32   H     H_    0.366449 0.376961 0.089463 0.188635
H33   H     H_    0.521223 0.303866 0.105782 0.169816
H34   H     H_    0.470391 0.350168 0.286368 0.128905
H35   H     H_    0.477371 0.257669 0.187358 0.126345
H36   H     H_    0.686594 0.536644 0.359963 0.148754
H37   H     H_    0.795556 0.590325 0.351008 0.156749
H38   H     H_    0.758570 0.519641 0.282036 0.130865
H39   H     H_    0.853498 0.414795 0.332183 0.147035
H40   H     H_    0.748379 0.378943 0.370778 0.131644
H41   H     H_    0.202902 0.408160 0.647448 0.157004
H42   H     H_    0.312158 0.461253 0.640233 0.148243
H43   H     H_    0.238764 0.477603 0.717487 0.132421
H44   H     H_    0.252454 0.618709 0.628573 0.133295
H45   H     H_    0.762358 0.593127 0.581799 0.119421
H46   H     H_    0.146584 0.584951 0.667273 0.146948
H47   H     H_    0.033179 0.911596 0.664313 0.150433
H48   H     H_    0.132175 0.905485 0.603579 0.143237
H49   H     H_    0.034122 0.970128 0.580544 0.140265
H50   H     H_    0.048153 0.813333 0.520943 0.166381
H51   H     H_    0.951149 0.819237 0.583072 0.157226
H52   H     H_    0.038376 0.727274 0.669888 0.132622
H53   H     H_    0.133210 0.727397 0.605764 0.141354
H54   H     H_    0.868385 0.093858 0.397156 0.142822
H55   H     H_    0.966873 0.087709 0.335883 0.150657
H56   H     H_    0.237862 0.407020 0.417455 0.119399
H57   H     H_    0.966881 0.029703 0.419774 0.140372
H58   H     H_    0.049487 0.180778 0.416409 0.157363
H59   H     H_    0.952840 0.186916 0.478878 0.166308
H60   H     H_    0.867090 0.271931 0.393935 0.141972
H61   H     H_    0.961779 0.272091 0.329694 0.132589
H62   H     H_    0.243625 0.754256 0.706648 0.144744
H63   H     H_    0.331912 0.668929 0.724511 0.161865
H64   H     H_    0.318276 0.781327 0.770071 0.142324
H65   H     H_    0.446042 0.781716 0.675665 0.159770
H66   H     H_    0.361640 0.871892 0.665129 0.165037
H67   H     H_    0.889798 0.672589 0.617090 0.104360
H68   H     H_    0.297416 0.763410 0.576569 0.104418
H69   H     H_    0.379154 0.676678 0.594090 0.217744
H70   H     H_    0.658487 0.336024 0.277936 0.163350
H71   H     H_    0.747245 0.247187 0.284809 0.144273
H72   H     H_    0.662737 0.228374 0.226928 0.146580
H73   H     H_    0.636661 0.129202 0.332847 0.162893
H74   H     H_    0.547576 0.215271 0.326478 0.161839
H75   H     H_    0.620501 0.323313 0.405607 0.217574
H76   H     H_    0.701752 0.235171 0.420360 0.101162
H77   H     H_    0.763500 0.755616 0.296623 0.152008
H78   H     H_    0.110354 0.327499 0.382084 0.104336
H79   H     H_    0.678424 0.676989 0.272300 0.152514
H80   H     H_    0.691747 0.792879 0.231692 0.147586
H81   H     H_    0.559858 0.791631 0.321638 0.157547
H82   H     H_    0.642379 0.874438 0.337926 0.167121
H83   H     H_    0.703278 0.750923 0.424087 0.115997
H84   H     H_    0.621117 0.673444 0.401738 0.210509
H85   H     H_    0.323847 0.323130 0.728829 0.150363
H86   H     H_    0.237702 0.246081 0.704166 0.153014
H87   H     H_    0.309071 0.207012 0.768879 0.140113
H88   H     H_    0.357732 0.125682 0.662442 0.167270
H89   H     H_    0.716813 0.908725 0.439892 0.110306
H90   H     H_    0.440995 0.207895 0.678400 0.158839
H91   H     H_    0.379194 0.326493 0.598432 0.210665
H92   H     H_    0.296968 0.248954 0.576467 0.115604
N1    N     N_R   0.570668 0.446517 0.030247 -0.258475
N2    N     N_R   0.447089 0.549239 0.967992 -0.245607
N3    N     N_R   0.572964 0.446769 0.961274 -0.248059
N4    N     N_R   0.444717 0.548798 0.036935 -0.253496
N5    N     N_R   0.500000 0.743810 0.500000 -0.235391
N6    N     N_R   0.500000 0.256190 0.500000 -0.235361
O1    O     O_R   0.370260 0.582280 0.500020 -0.508868
O2    O     O_R   0.629740 0.417720 0.499980 -0.508624
O3    O     O_R   0.629740 0.582280 0.499980 -0.521258
O4    O     O_R   0.370260 0.417720 0.500020 -0.520488
O5    O     O_R   0.499990 0.582300 0.400140 -0.515240
O6    O     O_R   0.500010 0.417700 0.599860 -0.516225
O7    O     O_R   0.500010 0.582300 0.599860 -0.518350
O8    O     O_R   0.499990 0.417700 0.400140 -0.518208

loop_
_geom_bond_atom_site_label_1
_geom_bond_atom_site_label_2
_ccdc_geom_bond_type
C59   H37   S    
C66   C68   S    
C11   C18   A    
C34   C56   A    
C59   H36   S    
C6    C82   A    
C29   C33   A    
C18   C21   A    
C47   H5    S    
C73   C74   S    
C71   H63   S    
C19   C20   A    
C70   H66   S    
C19   H2    S    
C39   N4    A    
C1    O1    A    
C1    O4    A    
C70   H65   S    
Cu1   N5    S    
C50   H15   S    
C33   C39   S    
C72   H75   S    
C30   C35   A    
C23   C45   A    
C69   H68   S    
C30   C48   S    
C27   C37   A    
C68   H54   S    
C38   N2    A    
C49   H17   S    
C57   H28   S    
C46   H8    S    
C55   H32   S    
C53   H20   S    
C20   H3    S    
C73   H73   S    
C56   C78   A    
C23   H45   S    
C62   H52   S    
C22   O5    A    
C49   C50   S    
C12   C42   S    
C46   C47   S    
Cu2   O4    S    
C53   H22   S    
C1    C43   S    
C6    C65   S    
C64   H48   S    
C16   C17   A    
N1    N3    A    
C45   C67   A    
Cu2   O8    S    
C24   O7    A    
C27   H23   S    
C22   O8    A    
C3    H67   S    
C59   H38   S    
C40   C42   A    
C71   H64   S    
C21   H4    S    
C54   H35   S    
C4    C56   A    
C25   C29   A    
C41   C43   A    
Cu1   O5    S    
C67   C78   A    
C32   C54   S    
C39   N1    A    
C44   C46   S    
C7    C14   A    
C26   H12   S    
C50   H14   S    
C40   C58   S    
C7    N5    A    
C27   C31   A    
C77   H79   S    
C63   H50   S    
C40   C82   A    
C28   C32   A    
C35   C38   S    
C44   H10   S    
C76   C77   S    
C41   C60   S    
C4    C6    A    
C60   H46   S    
C65   H60   S    
C13   C19   A    
C72   C73   S    
C57   H29   S    
C66   H59   S    
C58   C59   S    
C63   C64   S    
C48   H19   S    
C73   H74   S    
C3    C45   A    
C69   H69   S    
C51   C52   S    
C60   C61   S    
C74   H70   S    
C63   H51   S    
C75   C76   S    
C62   C63   S    
C2    C78   A    
C14   C20   A    
C9    C11   A    
C11   C16   A    
Cu1   Cu2   S    
C64   H47   S    
Cu2   O2    S    
C48   H18   S    
C25   H1    S    
C24   C37   S    
C58   H39   S    
Cu1   O1    S    
C76   H81   S    
C61   H43   S    
C81   H86   S    
C76   H82   S    
C23   C42   A    
C52   H24   S    
C61   H42   S    
C48   C49   S    
C26   C30   A    
C8    C15   A    
C81   H85   S    
C55   C57   S    
C29   C44   S    
C10   N6    A    
C47   H6    S    
C4    H78   S    
Cu2   O6    S    
C2    C5    A    
C61   H41   S    
C80   H88   S    
C65   H61   S    
C70   C71   S    
C52   C53   S    
C64   H49   S    
C8    N6    A    
C15   C17   A    
C54   C55   S    
C50   H13   S    
C51   H27   S    
C38   N3    A    
C8    C72   S    
C47   H7    S    
C79   H92   S    
Cu1   O7    S    
Cu1   O3    S    
C34   C43   A    
C60   H44   S    
C31   C51   S    
C80   C81   S    
C3    C5    A    
C10   C13   A    
C7    C69   S    
N2    N4    A    
C10   C79   S    
C26   C37   A    
C57   H30   S    
C66   H58   S    
C51   H26   S    
C22   C36   S    
C58   H40   S    
C72   H76   S    
C9    C75   S    
C13   C17   A    
C24   O6    A    
C75   H84   S    
C32   C33   A    
Cu2   N6    S    
C80   H90   S    
C44   H11   S    
C28   H34   S    
C49   H16   S    
C79   H91   S    
C12   O2    A    
C46   H9    S    
C55   H31   S    
C52   H25   S    
C77   H80   S    
C12   O3    A    
C31   C35   A    
C34   H56   S    
C77   H77   S    
C5    C62   S    
C14   C16   A    
C81   H87   S    
C62   H53   S    
C69   C70   S    
C9    N5    A    
C25   C36   A    
C79   C80   S    
C18   H89   S    
C53   H21   S    
C15   C21   A    
C71   H62   S    
C28   C36   A    
C67   C82   A    
C65   C66   S    
C54   H33   S    
C74   H72   S    
C68   H55   S    
C75   H83   S    
C2    C41   A    
C74   H71   S    
C68   H57   S    
