data_mof_unit_28335.cif
_audit_creation_date              2013-03-05T16:14:26-0500
_audit_creation_method            fapswitch 2.2
_symmetry_space_group_name_H-M    P1
_symmetry_Int_Tables_number       1
_space_group_crystal_system       triclinic
_cell_length_a                    8.438831
_cell_length_b                    17.348322
_cell_length_c                    26.971435
_cell_angle_alpha                 100.326973
_cell_angle_beta                  92.338065
_cell_angle_gamma                 80.777185
_cell_volume                      3834.12718372

loop_
_atom_site_label
_atom_site_type_symbol
_atom_site_description
_atom_site_fract_x
_atom_site_fract_y
_atom_site_fract_z
_atom_type_partial_charge
P1    P     P_3+3 0.071770 0.565500 0.613330 0.612083
O1    O     O_2   0.906370 0.542040 0.619810 -0.308568
O2    O     O_3   0.138370 0.541980 0.559630 -0.411585
O3    O     O_3   0.686580 0.398330 0.583860 -0.376732
O4    O     O_2   0.762610 0.452199 0.678968 -0.263194
O5    O     O_3   0.036950 0.668630 0.632385 -0.481871
O6    O     O_3   0.758221 0.298978 0.654352 -0.463232
H1    H     H_    0.713110 0.247802 0.580808 0.098060
C1    C     C_3   0.740684 0.159156 0.627666 -0.810715
H2    H     H_    0.854419 0.135033 0.607511 0.238406
H3    H     H_    0.756559 0.155807 0.668273 0.270690
P2    P     P_3+3 0.664870 0.318630 0.453960 0.512676
P3    P     P_3+3 0.159077 0.255023 0.550222 0.456993
O7    O     O_2   0.844570 0.306830 0.467970 -0.331996
O8    O     O_3   0.101900 0.357890 0.557750 -0.370305
O9    O     O_2   0.071399 0.218395 0.502481 -0.386162
O10   O     O_3   0.693959 0.284854 0.388857 -0.557118
O11   O     O_3   0.072754 0.222218 0.599105 -0.520253
C2    C     C_3   0.189000 0.208041 0.636831 0.136207
H4    H     H_    0.215875 0.265357 0.658626 0.125486
H5    H     H_    0.301111 0.171529 0.620673 0.096804
C3    C     C_3   0.122758 0.161140 0.671955 0.172510
H6    H     H_    0.014650 0.197150 0.691168 0.134275
H7    H     H_    0.089999 0.105718 0.649438 0.121664
C4    C     C_3   0.207406 0.299083 0.415182 0.455746
H8    H     H_    0.309546 0.325541 0.434163 0.033823
H9    H     H_    0.108042 0.310798 0.442037 0.174952
C5    C     C_3   0.256036 0.209879 0.399991 -0.956016
H10   H     H_    0.360364 0.196782 0.374532 0.242480
H11   H     H_    0.289921 0.182413 0.433602 0.245801
H12   H     H_    0.154289 0.183177 0.380429 0.278051
Ba1   Ba    Ba6+2 0.860160 0.462360 0.521850 1.692272
C6    C     C_3   0.929187 0.712187 0.603141 0.094833
H13   H     H_    0.821830 0.683969 0.598822 0.087876
C7    C     C_3   0.894971 0.799663 0.634031 0.333521
H14   H     H_    0.778112 0.807233 0.651017 0.056059
H15   H     H_    0.977090 0.806226 0.666988 0.159407
C8    C     C_3   0.588076 0.327677 0.359068 0.386973
H16   H     H_    0.468795 0.343584 0.375820 0.111811
C9    C     C_3   0.570569 0.275629 0.307668 -1.024425
H17   H     H_    0.688112 0.259388 0.288213 0.270945
H18   H     H_    0.482093 0.307585 0.283714 0.243124
H19   H     H_    0.527652 0.220095 0.312354 0.272372
P4    P     P_3+3 0.117940 0.434440 0.386660 0.468803
O12   O     O_2   0.283330 0.457940 0.380160 -0.381010
O13   O     O_3   0.051340 0.457960 0.440360 -0.394545
O14   O     O_3   0.503130 0.601610 0.416130 -0.348738
O15   O     O_3   0.158378 0.330745 0.371828 -0.599726
P5    P     P_3+3 0.034467 0.735974 0.426134 0.522021
O16   O     O_3   0.616890 0.595000 0.528820 -0.348937
O17   O     O_3   0.087820 0.642040 0.442240 -0.382665
O18   O     O_2   0.148858 0.786901 0.458610 -0.326365
O19   O     O_3   0.099415 0.732029 0.364688 -0.466897
Ba2   Ba    Ba6+2 0.329680 0.537570 0.478140 1.686863
P6    P     P_3+3 0.660851 0.393746 0.647327 0.606817
C10   C     C_3   0.683787 0.244084 0.619942 0.442692
H20   H     H_    0.551669 0.255656 0.625011 0.047263
H21   H     H_    0.650736 0.121119 0.611410 0.243419
O20   O     O_3   0.572820 0.404940 0.471170 -0.365586
C11   C     C_3   0.510676 0.748027 0.653238 0.934073
C12   C     C_3   0.471745 0.836387 0.685176 -0.137808
H22   H     H_    0.349429 0.845355 0.700915 0.172732
P7    P     P_3+3 0.531065 0.697222 0.542201 0.549147
O21   O     O_2   0.345130 0.693150 0.532000 -0.260411
O22   O     O_3   0.576368 0.750231 0.604687 -0.733774
C13   C     C_3   0.968009 0.741987 0.331012 0.492876
H23   H     H_    0.867644 0.713812 0.340566 -0.059042
C14   C     C_3   0.024908 0.701441 0.278454 -0.915219
H24   H     H_    0.923117 0.702386 0.250855 0.182974
H25   H     H_    0.118931 0.731386 0.265799 0.270501
H26   H     H_    0.078464 0.638958 0.279375 0.288224
P8    P     P_3+3 0.528803 0.595395 0.351184 0.547008
C15   C     C_3   0.473645 0.746951 0.362162 0.487833
H27   H     H_    0.606688 0.739153 0.363926 -0.047787
O23   O     O_2   0.441959 0.527333 0.323170 -0.334273
O24   O     O_3   0.416634 0.680480 0.333649 -0.468202
H28   H     H_    0.425106 0.758098 0.400900 0.119601
H29   H     H_    0.464190 0.809001 0.298683 0.241347
C16   C     C_3   0.417971 0.819521 0.337933 -0.921632
H30   H     H_    0.464453 0.872034 0.360352 0.214485
H31   H     H_    0.284611 0.832001 0.337001 0.313173
C17   C     C_R   0.103665 0.502799 0.188363 0.576736
O25   O     O_2   0.210989 0.496969 0.219895 -0.572824
N1    N     N_R   0.944132 0.511902 0.202571 -0.155851
C18   C     C_R   0.824281 0.522523 0.166321 0.544575
C19   C     C_2   0.779463 0.571459 0.276591 -0.203568
C20   C     C_3   0.747119 0.585241 0.332301 0.047693
C21   C     C_1   0.985192 0.483006 0.340178 0.165293
C22   C     C_2   0.995866 0.462581 0.289498 -0.185843
C23   C     C_2   0.901603 0.515840 0.255639 0.163245
C24   C     C_R   0.022638 0.518744 0.102118 -0.057804
C25   C     C_R   0.144112 0.501553 0.137599 -0.080309
C26   C     C_R   0.303771 0.484021 0.121684 -0.032389
C27   C     C_R   0.861874 0.531767 0.117300 -0.051209
C28   C     C_2   0.874389 0.540886 0.362423 -0.221069
H32   H     H_    0.399988 0.468560 0.147654 0.207650
C29   C     C_2   0.337209 0.464869 0.635722 -0.357357
C30   C     C_R   0.262605 0.507935 0.984983 0.052477
C31   C     C_R   0.976374 0.549251 0.966522 0.009494
C32   C     C_R   0.137716 0.528231 0.950341 0.105765
C33   C     C_R   0.422362 0.492207 0.967358 -0.217293
C34   C     C_R   0.457876 0.497062 0.918083 -0.028611
C35   C     C_R   0.335272 0.512974 0.883133 -0.054416
C36   C     C_R   0.174751 0.527401 0.898899 -0.032746
C37   C     C_R   0.051863 0.542427 0.863236 -0.165534
C38   C     C_R   0.090711 0.522668 0.811071 0.567978
N2    N     N_R   0.249589 0.508157 0.795715 -0.153523
C39   C     C_R   0.369513 0.513051 0.832287 0.685557
C40   C     C_2   0.405408 0.426641 0.722178 0.467457
C41   C     C_3   0.440916 0.410091 0.665744 -0.067127
C42   C     C_1   0.213940 0.516006 0.656216 0.344291
C43   C     C_2   0.193763 0.535532 0.705629 -0.155276
C44   C     C_2   0.289197 0.488679 0.741750 -0.077201
O26   O     O_2   0.506436 0.515155 0.820367 -0.541498
C45   C     C_R   0.224223 0.504850 0.035808 0.040089
C46   C     C_R   0.061691 0.522932 0.051473 0.095475
C47   C     C_R   0.937612 0.545304 0.017129 0.059229
C48   C     C_R   0.342578 0.483629 0.071822 -0.207215
H33   H     H_    0.582414 0.484632 0.906772 0.173069
H34   H     H_    0.523915 0.475724 0.990685 0.134210
H35   H     H_    0.467423 0.465777 0.062769 0.139575
O27   O     O_2   0.684173 0.523300 0.176495 -0.595244
C49   C     C_R   0.741188 0.554314 0.083293 -0.108795
H36   H     H_    0.713611 0.613951 0.255291 0.166768
H37   H     H_    0.616823 0.568193 0.094611 0.160494
C50   C     C_R   0.859829 0.576572 0.931783 -0.176943
C51   C     C_R   0.895776 0.575479 0.881156 -0.024205
O28   O     O_2   0.983563 0.514547 0.779673 -0.551094
C52   C     C_R   0.777879 0.561922 0.034723 -0.206601
H38   H     H_    0.740007 0.602404 0.943652 0.158822
H39   H     H_    0.109769 0.587981 0.720630 0.210956
H40   H     H_    0.676638 0.580097 0.011739 0.127582
H41   H     H_    0.876509 0.561313 0.402930 0.157841
H42   H     H_    0.362211 0.458310 0.595940 0.170360
C53   C     C_2   0.457847 0.277759 0.515585 -0.439068
C54   C     C_3   0.381480 0.224595 0.542984 0.083889
C55   C     C_2   0.428881 0.137350 0.522613 -0.211361
C56   C     C_2   0.554408 0.111713 0.491081 0.096231
C57   C     C_2   0.639640 0.171870 0.474478 -0.265019
C58   C     C_1   0.580524 0.248501 0.484985 0.267583
C59   C     C_R   0.751434 0.850723 0.446638 -0.234882
C60   C     C_R   0.821423 0.771747 0.445806 0.221194
C61   C     C_R   0.597836 0.752277 0.495205 0.251329
C62   C     C_R   0.527231 0.831038 0.494607 -0.199273
C63   C     C_R   0.602752 0.881025 0.470418 0.152778
C64   C     C_2   0.619751 0.025678 0.476589 -0.115615
C65   C     C_2   0.532557 0.966675 0.476778 -0.146971
C66   C     C_R   0.738870 0.721993 0.467887 -0.474576
H43   H     H_    0.405785 0.981529 0.485522 0.137028
H44   H     H_    0.747889 0.152028 0.452312 0.166982
H45   H     H_    0.816601 0.888736 0.430718 0.160030
H46   H     H_    0.746180 0.011688 0.467571 0.148052
H47   H     H_    0.370318 0.095950 0.538160 0.140787
H48   H     H_    0.420182 0.855265 0.516506 0.165712
H49   H     H_    0.425097 0.341278 0.527370 0.151416
H50   H     H_    0.791846 0.661324 0.468184 0.126244
C67   C     C_2   0.990320 0.704006 0.551474 0.676685
H51   H     H_    0.988076 0.648989 0.525742 0.000933
O29   O     O_2   0.041206 0.757723 0.537587 -0.460608
S1    S     S_3+6 0.890893 0.887879 0.606781 -0.006376
O30   O     O_2   0.775986 0.886244 0.563106 -0.347284
O31   O     O_2   0.833087 0.958490 0.646370 -0.279149
O32   O     O_3   0.071688 0.899119 0.587700 -0.403339
H52   H     H_    0.052210 0.948670 0.573447 0.364042
C68   C     C_2   0.656312 0.399276 0.352979 0.609258
H53   H     H_    0.684207 0.409961 0.315916 -0.026393
O33   O     O_2   0.682769 0.446245 0.390440 -0.561748
S2    S     S_3+6 0.330830 0.713342 0.645303 -0.003591
O34   O     O_2   0.225957 0.771384 0.618991 -0.319856
O35   O     O_2   0.357372 0.632559 0.613282 -0.266002
O36   O     O_3   0.253705 0.708358 0.701235 -0.520891
H54   H     H_    0.188706 0.760601 0.713166 0.359362
S3    S     S_3+6 0.631665 0.677579 0.687346 0.040895
O37   O     O_2   0.636981 0.596752 0.655944 -0.259364
O38   O     O_2   0.799507 0.693633 0.698935 -0.291569
O39   O     O_3   0.545274 0.675990 0.742206 -0.437977
H55   H     H_    0.570309 0.620291 0.747568 0.380716
C69   C     C_2   0.461894 0.898772 0.652278 0.681840
H56   H     H_    0.565490 0.905153 0.632362 0.083505
O40   O     O_2   0.336315 0.943094 0.647787 -0.497271
S4    S     S_3+6 0.580916 0.866569 0.742975 0.052620
O41   O     O_2   0.759939 0.846435 0.738746 -0.263535
O42   O     O_2   0.538639 0.954978 0.758195 -0.220257
O43   O     O_3   0.520265 0.825033 0.789157 -0.418477
H57   H     H_    0.583281 0.844282 0.819341 0.384166
S5    S     S_3+6 0.265172 0.133086 0.718657 0.051429
O44   O     O_2   0.271765 0.202749 0.760274 -0.193255
O45   O     O_2   0.212703 0.066963 0.739882 -0.176003
O46   O     O_3   0.447201 0.101737 0.692719 -0.521258
H58   H     H_    0.519937 0.089509 0.721198 0.399957
C70   C     C_2   0.908259 0.828602 0.329973 0.413202
H59   H     H_    0.798992 0.845273 0.308963 0.007349
O47   O     O_2   0.980592 0.880594 0.352185 -0.570192
C71   C     C_2   0.074772 0.382248 0.266000 0.605360
H60   H     H_    0.170805 0.349703 0.285193 0.059114
O48   O     O_2   0.033084 0.351476 0.224206 -0.576047
S6    S     S_3+6 0.494729 0.352666 0.757136 0.027012
O49   O     O_2   0.656370 0.370682 0.776901 -0.210161
O50   O     O_2   0.391226 0.348165 0.800246 -0.257699
O51   O     O_3   0.520907 0.263947 0.719374 -0.529340
H61   H     H_    0.591884 0.228830 0.738937 0.394397
C72   C     C_2   0.775600 0.619364 0.850023 0.673690
H62   H     H_    0.807046 0.630803 0.813791 0.087579
O52   O     O_2   0.641044 0.647315 0.865676 -0.562061

loop_
_geom_bond_atom_site_label_1
_geom_bond_atom_site_label_2
_geom_bond_distance
_ccdc_geom_bond_type
C8    C68   1.487126 S    
C71   O48   1.221264 D    
O36   H54   0.988101 S    
P7    O22   1.826655 S    
O32   H52   0.990852 S    
C67   H51   1.077143 S    
O16   P7    1.783206 S    
C15   H27   1.109213 S    
C13   C14   1.524646 S    
C2    H4    1.112449 S    
P5    C60   1.871097 S    
O6    P6    1.754989 S    
P8    O24   1.750541 S    
C53   C58   1.327256 D    
H1    C10   1.109169 S    
C69   H56   1.075061 S    
C17   C25   1.420155 A    
C53   C54   1.511896 S    
C68   H53   1.090273 S    
C18   O27   1.222071 D    
S3    O37   1.497573 D    
C10   H20   1.110365 S    
C4    C5    1.521186 S    
C11   S2    1.712118 S    
C72   O52   1.221444 D    
P3    O11   1.753032 S    
C29   H42   1.084313 S    
C5    H10   1.107936 S    
C65   H43   1.084871 S    
C1    H21   1.110642 S    
C14   H26   1.109765 S    
C8    H16   1.094031 S    
C29   C42   1.322860 D    
O2    Ba2   2.762727 S    
C49   H37   1.082303 S    
C38   N2    1.390059 Am   
C50   H38   1.074928 S    
C61   C62   1.402988 A    
C38   O28   1.220736 D    
C28   H41   1.086821 S    
C53   H49   1.084282 S    
C24   C46   1.435181 A    
O1    Ba1   2.796954 S    
P1    O1    1.540097 D    
C39   O26   1.219767 D    
S6    O50   1.502758 D    
C7    S1    1.807728 S    
N2    C44   1.473605 S    
C34   C35   1.399078 A    
P2    O20   1.571074 S    
C40   S6    1.780419 S    
C9    H19   1.111094 S    
C42   C43   1.325936 D    
P4    O13   1.536603 S    
O51   H61   0.990367 S    
P5    O17   1.746333 S    
C20   C28   1.514480 S    
P2    O10   1.762675 S    
N2    C39   1.385807 Am   
P2    C58   1.837985 S    
C35   C39   1.413273 A    
C47   C52   1.415581 A    
C1    H2    1.106388 S    
C59   C63   1.412569 A    
C52   H40   1.074318 S    
C27   C49   1.398659 A    
P5    O18   1.551317 D    
S2    O35   1.497113 D    
C71   H60   1.080471 S    
C21   C28   1.330919 D    
C12   C69   1.508301 S    
C68   O33   1.216314 D    
C49   C52   1.391963 A    
C11   S3    1.819038 S    
C12   H22   1.109259 S    
N1    C23   1.476870 S    
O6    C10   1.410716 S    
P8    O23   1.553870 D    
Ba1   Ba2   4.623968 S    
C36   C37   1.410834 A    
C63   C65   1.490952 S    
C6    C67   1.480713 S    
C31   C50   1.415782 A    
Ba2   O20   2.811145 S    
S4    O42   1.503000 D    
C61   C66   1.402761 A    
C72   H62   1.082756 S    
C37   C51   1.416986 A    
C70   H59   1.088878 S    
C33   C34   1.394248 A    
C60   C66   1.412786 A    
O8    Ba1   2.768890 S    
C2    C3    1.528821 S    
N1    C18   1.391755 Am   
S1    O32   1.681077 S    
C19   C23   1.358667 D    
C24   C25   1.407073 A    
C16   H31   1.111570 S    
H29   C16   1.117036 S    
C14   H24   1.113541 S    
C32   C36   1.431677 A    
C4    H8    1.105564 S    
S4    O41   1.499327 D    
P1    Ba1   3.400026 S    
P1    O5    1.750888 S    
C11   C12   1.608709 S    
P1    O2    1.536604 S    
C48   H35   1.074607 S    
S1    O31   1.503566 D    
C3    S5    1.782323 S    
S6    O51   1.674027 S    
C70   O47   1.223913 D    
C31   C47   1.432440 A    
C18   C27   1.414581 A    
C31   C32   1.417569 A    
C45   C48   1.416960 A    
C13   C70   1.511287 S    
O13   Ba2   2.966976 S    
C6    H13   1.089534 S    
C15   C16   1.520881 S    
C55   H47   1.083786 S    
O2    Ba1   2.966132 S    
C1    C10   1.523106 S    
O16   Ba2   2.958203 S    
O19   C13   1.413223 S    
C1    H3    1.108691 S    
C4    O15   1.399353 S    
Ba1   O16   2.811924 S    
O3    Ba1   2.750344 S    
S3    O38   1.496842 D    
O14   Ba2   2.749764 S    
C64   H46   1.083227 S    
C9    H17   1.112887 S    
P2    O7    1.538118 D    
O12   Ba2   2.797325 S    
C26   H32   1.083060 S    
C17   N1    1.391568 Am   
P3    O8    1.749508 S    
P6    C41   1.904699 S    
C19   H36   1.084784 S    
C15   O24   1.407960 S    
C3    H7    1.109878 S    
C16   H30   1.116734 S    
S2    O34   1.489985 D    
C67   O29   1.208158 D    
C26   C48   1.395647 A    
S5    O45   1.502868 D    
P8    C20   1.903935 S    
P4    O12   1.540422 D    
C59   H45   1.076425 S    
C64   C65   1.353817 D    
C55   C56   1.352818 D    
S4    O43   1.680679 S    
O46   H58   0.994967 S    
O39   H55   0.990658 S    
P7    C61   1.871165 S    
P3    C54   1.874724 S    
C7    H15   1.105462 S    
C19   C20   1.507702 S    
C33   H34   1.074242 S    
Ba1   O13   2.762091 S    
O4    P6    1.550191 D    
C5    H12   1.110456 S    
O7    Ba1   2.846352 S    
C54   C55   1.509449 S    
C11   O22   1.451721 S    
C69   O40   1.220927 D    
C57   C58   1.326807 D    
S3    O39   1.682478 S    
C40   C44   1.378026 D    
C4    H9    1.100546 S    
C30   C33   1.416278 A    
C66   H50   1.076839 S    
C37   C38   1.425917 A    
C57   H44   1.086452 S    
C12   S4    1.816029 S    
O5    C6    1.398206 S    
C62   C63   1.413402 A    
O17   Ba2   2.769515 S    
S1    O30   1.494092 D    
S5    O46   1.681756 S    
C5    H11   1.104831 S    
S5    O44   1.501221 D    
O3    P6    1.751685 S    
P4    O15   1.751849 S    
P4    C21   1.870315 S    
C59   C60   1.398997 A    
P1    C42   1.851290 S    
C24   C27   1.404686 A    
C8    C9    1.528494 S    
C29   C41   1.508674 S    
C30   C45   1.433539 A    
Ba2   O21   2.846710 S    
C56   C64   1.493044 S    
C50   C51   1.406977 A    
P5    O19   1.753023 S    
C22   C71   1.485796 S    
C9    H18   1.112927 S    
C25   C26   1.400392 A    
C6    C7    1.583163 S    
C46   C47   1.422864 A    
C13   H23   1.103776 S    
C43   C44   1.506139 S    
O10   C8    1.392293 S    
C43   H39   1.085683 S    
C62   H48   1.083720 S    
S6    O49   1.503372 D    
C51   C72   1.491784 S    
O14   P8    1.755771 S    
C30   C32   1.423500 A    
C56   C57   1.497155 S    
P7    O21   1.592489 D    
P4    Ba2   3.400580 S    
C21   C22   1.352163 D    
C14   H25   1.110745 S    
C17   O25   1.221636 D    
P3    O9    1.545596 D    
C35   C36   1.406633 A    
O11   C2    1.410373 S    
C15   H28   1.110813 S    
C3    H6    1.109482 S    
O43   H57   0.990565 S    
C7    H14   1.083240 S    
S2    O36   1.688701 S    
Ba1   O20   2.959071 S    
C22   C23   1.525807 S    
C40   C41   1.530353 S    
P2    Ba1   3.423494 S    
C34   H33   1.083515 S    
C45   C46   1.421260 A    
C2    H5    1.108513 S    
