data_mof_unit_67438.cif
_audit_creation_date              2013-03-05T15:40:11-0500
_audit_creation_method            fapswitch 2.2
_symmetry_space_group_name_H-M    P1
_symmetry_Int_Tables_number       1
_space_group_crystal_system       triclinic
_cell_length_a                    7.532503
_cell_length_b                    8.674294
_cell_length_c                    12.982669
_cell_angle_alpha                 86.873728
_cell_angle_beta                  78.61498
_cell_angle_gamma                 102.871776
_cell_volume                      806.369535501

loop_
_atom_site_label
_atom_site_type_symbol
_atom_site_description
_atom_site_fract_x
_atom_site_fract_y
_atom_site_fract_z
_atom_type_partial_charge
O1    O     O_R   0.621060 0.286250 0.492350 -0.572615
O2    O     O_R   0.378940 0.713750 0.507650 -0.597555
O3    O     O_R   0.306310 0.256580 0.512240 -0.619312
O4    O     O_R   0.693690 0.743420 0.487760 -0.596181
C1    C     C_R   0.452743 0.199835 0.502710 0.849537
C2    C     C_R   0.547415 0.800277 0.492566 0.837456
O5    O     O_R   0.631800 0.512400 0.642670 -0.540285
O6    O     O_R   0.368200 0.487600 0.357330 -0.563234
O7    O     O_R   0.317060 0.482730 0.662570 -0.607660
O8    O     O_R   0.682940 0.517270 0.337430 -0.562573
C3    C     C_R   0.465556 0.495088 0.701320 0.801926
C4    C     C_R   0.534329 0.506274 0.298473 0.783487
Cu1   Cu    Cu3+1 0.686350 0.517570 0.488220 1.022023
Cu2   Cu    Cu3+1 0.313650 0.482430 0.511780 0.984679
N1    N     N_2   0.033570 0.455950 0.529530 0.125024
N2    N     N_2   0.966430 0.544050 0.470470 0.142010
C5    C     C_R   0.553530 0.517312 0.184117 -0.140612
C6    C     C_R   0.445323 0.490510 0.815244 -0.147624
C7    C     C_R   0.248901 0.437594 0.991484 0.481742
C8    C     C_R   0.748038 0.582281 0.007301 0.443955
C9    C     C_R   0.268424 0.442958 0.882271 -0.250976
C10   C     C_R   0.729618 0.568011 0.116675 -0.235041
C11   C     C_R   0.603946 0.536367 0.856955 -0.241972
C12   C     C_R   0.393884 0.478324 0.142258 -0.241499
C13   C     C_R   0.587985 0.534622 0.965551 -0.008717
C14   C     C_R   0.409093 0.484023 0.033477 -0.012036
H1    H     H_    0.853371 0.594804 0.148584 0.206521
H2    H     H_    0.144874 0.413040 0.849964 0.179780
C15   C     C_2   0.425974 0.031125 0.507724 -0.383363
C16   C     C_2   0.571968 0.968674 0.479211 -0.375678
H3    H     H_    0.285905 0.958005 0.538477 0.169777
H4    H     H_    0.710129 0.041671 0.444856 0.166904
H5    H     H_    0.257800 0.438972 0.194699 0.218312
H6    H     H_    0.740056 0.575294 0.804454 0.224201
O9    O     O_3   0.072611 0.406165 0.056217 -0.604272
C17   C     C_3   0.991485 0.240736 0.072809 0.056419
H7    H     H_    0.910006 0.215880 0.155635 0.186003
H8    H     H_    0.096592 0.167239 0.066516 0.102738
C18   C     C_3   0.860232 0.191299 0.997039 -0.346195
H9    H     H_    0.810429 0.294249 0.970273 0.262463
H10   H     H_    0.938013 0.150634 0.926169 0.178907
C19   C     C_3   0.689406 0.058598 0.047703 -0.947265
H11   H     H_    0.731402 0.949856 0.071913 0.244830
H12   H     H_    0.599668 0.028856 0.989774 0.258126
H13   H     H_    0.606597 0.097787 0.117717 0.263005
O10   O     O_3   0.923817 0.622076 0.941438 -0.603456
C20   C     C_3   0.998103 0.787396 0.936020 0.034262
H14   H     H_    0.017238 0.822762 0.014801 0.144142
H15   H     H_    0.904419 0.853561 0.906514 0.151311
C21   C     C_3   0.188847 0.831449 0.859967 -0.291195
H16   H     H_    0.285706 0.771562 0.891515 0.229392
H17   H     H_    0.175165 0.790009 0.781705 0.231912
C22   C     C_3   0.272249 0.010495 0.845932 -0.973777
H18   H     H_    0.184360 0.073792 0.808767 0.245200
H19   H     H_    0.413139 0.036586 0.793776 0.264288
H20   H     H_    0.285329 0.055121 0.923320 0.257998
O11   O     O_3   0.929838 0.425923 0.629118 -0.500486
C23   C     C_3   0.944698 0.280882 0.677856 0.136723
H21   H     H_    0.897409 0.282610 0.764190 0.120637
H22   H     H_    0.086818 0.263621 0.665181 0.175050
C24   C     C_3   0.820022 0.138139 0.643993 -0.360247
H23   H     H_    0.676319 0.155287 0.655277 0.235924
H24   H     H_    0.876978 0.129254 0.559747 0.226248
C25   C     C_3   0.814651 0.983845 0.708270 -0.961931
H25   H     H_    0.956490 0.961714 0.697475 0.260643
H26   H     H_    0.722089 0.882707 0.681589 0.277868
H27   H     H_    0.758452 0.990084 0.793262 0.253349
O12   O     O_3   0.065064 0.580902 0.370236 -0.494034
C26   C     C_3   0.139754 0.747667 0.354153 0.227578
H28   H     H_    0.291073 0.769616 0.350518 0.116643
H29   H     H_    0.080224 0.814455 0.418172 0.127304
C27   C     C_3   0.124684 0.816902 0.246012 -0.409346
H30   H     H_    0.251515 0.913081 0.212604 0.176834
H31   H     H_    0.120537 0.724593 0.190077 0.239180
C28   C     C_3   0.956816 0.889642 0.253197 -0.876834
H32   H     H_    0.825672 0.801301 0.287803 0.282520
H33   H     H_    0.948860 0.932379 0.173135 0.221202
H34   H     H_    0.971017 0.991863 0.301376 0.239936

loop_
_geom_bond_atom_site_label_1
_geom_bond_atom_site_label_2
_geom_bond_distance
_ccdc_geom_bond_type
C3    C6    1.454049 S    
C24   C25   1.526443 S    
C6    C9    1.400392 A    
O9    C17   1.415140 S    
C28   H32   1.102207 S    
C20   H15   1.112342 S    
C22   H18   1.109826 S    
O5    C3    1.302972 A    
O1    C1    1.298334 A    
C17   H7    1.111150 S    
C7    C9    1.393413 A    
C12   C14   1.391417 A    
C26   H28   1.103970 S    
C8    C13   1.406607 A    
C23   H22   1.095472 S    
N1    N2    1.299639 D    
C26   H29   1.117421 S    
O4    Cu1   1.947167 S    
C24   H24   1.106762 S    
C7    C14   1.408034 A    
O12   C26   1.418009 S    
C4    C5    1.458696 S    
C21   H17   1.112145 S    
N2    O12   1.347101 S    
C18   C19   1.528628 S    
C23   C24   1.520742 S    
Cu1   Cu2   2.708749 S    
N1    O11   1.350466 S    
O2    C2    1.293691 A    
C19   H12   1.110520 S    
C27   C28   1.523484 S    
C20   C21   1.529514 S    
C1    C15   1.428118 S    
C22   H19   1.108398 S    
C5    C12   1.397381 A    
C6    C11   1.395084 A    
C21   C22   1.526178 S    
C25   H27   1.109947 S    
C27   H31   1.109377 S    
C18   H9    1.107176 S    
C13   C14   1.418168 A    
C19   H13   1.111385 S    
C25   H26   1.109835 S    
C26   C27   1.531660 S    
O7    Cu2   1.963025 S    
C15   C16   1.329054 D    
C28   H33   1.101762 S    
C20   H14   1.110718 S    
O6    C4    1.301817 A    
C11   H6    1.083739 S    
C21   H16   1.110646 S    
O7    C3    1.300135 A    
O3    Cu2   1.947167 S    
O8    C4    1.303532 A    
O4    C2    1.295940 A    
C2    C16   1.427351 S    
C9    H2    1.080618 S    
C8    C10   1.395092 A    
C10   H1    1.077494 S    
O1    Cu1   1.951698 S    
C19   H11   1.108362 S    
C22   H20   1.110628 S    
O10   C20   1.410835 S    
O6    Cu2   1.961699 S    
C17   C18   1.539506 S    
C5    C10   1.399619 A    
C27   H30   1.112961 S    
O3    C1    1.291846 A    
O8    Cu1   1.963023 S    
C12   H5    1.083514 S    
C25   H25   1.110487 S    
C17   H8    1.115784 S    
C23   H21   1.109047 S    
C15   H3    1.087560 S    
C7    O9    1.384580 S    
C16   H4    1.084100 S    
O11   C23   1.414093 S    
C11   C13   1.390091 A    
C24   H23   1.107606 S    
O2    Cu2   1.951698 S    
C28   H34   1.110654 S    
O5    Cu1   1.961700 S    
C18   H10   1.108561 S    
Cu1   N2    2.035460 S    
Cu2   N1    2.035460 S    
C8    O10   1.385864 S    
