data_mof_unit_7807.cif
_audit_creation_date              2012-12-10T17:51:29-0500
_audit_creation_method            fapswitch 2.2
_symmetry_space_group_name_H-M    P1
_symmetry_Int_Tables_number       1
_space_group_crystal_system       triclinic
_cell_length_a                    9.889721
_cell_length_b                    10.730042
_cell_length_c                    16.712226
_cell_angle_alpha                 91.359746
_cell_angle_beta                  85.820519
_cell_angle_gamma                 87.810372
_cell_volume                      1766.82001833

loop_
_atom_site_label
_atom_site_type_symbol
_atom_type_description
_atom_site_fract_x
_atom_site_fract_y
_atom_site_fract_z
_atom_type_partial_charge
C1    C     C_R   0.497920 0.739228 0.490980 0.867532
C2    C     C_R   0.349913 0.571078 0.779645 -0.188981
C3    C     C_R   0.443859 0.679129 0.159786 -0.171814
C4    C     C_R   0.424040 0.630540 0.235683 0.151326
C5    C     C_R   0.648600 0.527391 0.217427 -0.204797
C6    C     C_R   0.665641 0.574650 0.140839 -0.150024
C7    C     C_R   0.561405 0.647179 0.110993 0.155265
C8    C     C_2   0.457188 0.641444 0.985169 -0.221054
C9    C     C_2   0.565944 0.668015 0.024920 -0.220838
C10   C     C_R   0.526813 0.551734 0.264799 -0.094862
C11   C     C_R   0.239995 0.900902 0.494744 -0.123485
C12   C     C_R   0.481918 0.503706 0.653283 0.855167
C13   C     C_R   0.127109 0.966109 0.531730 -0.136918
C14   C     C_R   0.144865 0.071191 0.579237 -0.168118
C15   C     C_R   0.273856 0.119289 0.582106 0.049522
C16   C     C_R   0.385385 0.064480 0.532996 0.041001
C17   C     C_R   0.372307 0.944447 0.501066 0.072620
C18   C     C_R   0.492442 0.872643 0.477975 -0.170765
C19   C     C_R   0.615644 0.930806 0.460449 -0.069011
C20   C     C_R   0.625039 0.056044 0.480549 -0.066332
C21   C     C_R   0.507743 0.124958 0.512976 -0.197638
C22   C     C_R   0.840942 0.659828 0.607960 -0.138365
C23   C     C_R   0.502165 0.259796 0.506339 0.915912
C24   C     C_R   0.902176 0.738090 0.660841 -0.210899
C25   C     C_R   0.042137 0.738575 0.660015 -0.208994
C26   C     C_R   0.121619 0.660964 0.606189 -0.156214
C27   C     C_R   0.063069 0.578919 0.552784 0.117886
C28   C     C_R   0.918278 0.578356 0.553292 0.162017
C29   C     C_R   0.936738 0.428088 0.447735 -0.123507
C30   C     C_R   0.079352 0.425720 0.448394 0.238918
C31   C     C_R   0.517461 0.509201 0.347262 0.900476
C32   C     C_R   0.472730 0.527524 0.739564 -0.017825
C33   C     C_R   0.591070 0.520326 0.780682 -0.215627
C34   C     C_R   0.587859 0.559642 0.860232 -0.145779
C35   C     C_R   0.466186 0.608154 0.899624 0.199372
C36   C     C_R   0.346837 0.611151 0.859422 -0.175557
H1    H     H_    0.686773 0.485658 0.751147 0.163398
H2    H     H_    0.756995 0.549065 0.103365 0.139566
H3    H     H_    0.221229 0.818673 0.459718 0.198750
H4    H     H_    0.026710 0.930872 0.527279 0.169284
H5    H     H_    0.058439 0.113881 0.614685 0.144881
H6    H     H_    0.889216 0.370892 0.404574 0.174805
H7    H     H_    0.733195 0.667149 0.611583 0.203461
H8    H     H_    0.840445 0.799620 0.702201 0.153678
H9    H     H_    0.089653 0.800760 0.700490 0.155020
H10   H     H_    0.228296 0.669298 0.607333 0.203863
H11   H     H_    0.729888 0.469911 0.239187 0.170917
H12   H     H_    0.664118 0.680424 0.993377 0.147882
H13   H     H_    0.251423 0.644987 0.889738 0.131477
H14   H     H_    0.364536 0.738210 0.137375 0.159241
H15   H     H_    0.257270 0.577243 0.749013 0.159961
H16   H     H_    0.359914 0.628024 0.017796 0.159347
H17   H     H_    0.680289 0.548990 0.890586 0.128251
N1    N     N_R   0.857140 0.501200 0.500750 -0.136588
N2    N     N_R   0.142740 0.501280 0.500770 -0.142720
O1    O     O_R   0.385310 0.683220 0.500000 -0.649857
O2    O     O_R   0.614640 0.683250 0.500010 -0.631664
O3    O     O_R   0.371780 0.500010 0.615800 -0.630643
O4    O     O_R   0.601110 0.500030 0.615800 -0.645633
O5    O     O_R   0.385360 0.316750 0.499990 -0.582161
O6    O     O_R   0.614690 0.316780 0.500000 -0.611524
O7    O     O_R   0.398890 0.499970 0.384200 -0.562570
O8    O     O_R   0.628220 0.499990 0.384200 -0.618020
Zn1   Zn    Zn3+2 0.346870 0.499980 0.499990 0.980557
Zn2   Zn    Zn3+2 0.653130 0.500020 0.500010 0.954398
C37   C     C_1   0.731726 0.863353 0.418570 0.224676
N3    N     N_1   0.823964 0.809913 0.385354 -0.168163
C38   C     C_1   0.292713 0.208476 0.645841 0.147974
N4    N     N_1   0.306384 0.277755 0.698412 -0.206897
C39   C     C_1   0.758150 0.108885 0.471161 0.216348
N5    N     N_1   0.865314 0.148564 0.463992 -0.205459
I1    I     I_    0.235310 0.686595 0.298229 -0.363447
I2    I     I_    0.185142 0.298733 0.365006 -0.281997

loop_
_geom_bond_atom_site_label_1
_geom_bond_atom_site_label_2
_ccdc_geom_bond_type
C1    O1    A    
C24   C25   A    
O1    Zn1   S    
C16   C21   A    
C12   C32   S    
C1    O2    A    
C29   H6    S    
C5    H11   S    
C30   N2    A    
C8    H16   S    
C27   N2    A    
C19   C20   A    
C4    I1    S    
C8    C35   S    
O5    Zn1   S    
C12   O3    A    
N2    Zn1   S    
O8    Zn2   S    
C17   C18   A    
C1    C18   S    
C5    C10   A    
C19   C37   S    
N1    Zn2   S    
C22   C28   A    
C13   C14   A    
C32   C33   A    
C11   H3    S    
C23   O5    A    
C11   C13   A    
C31   O7    A    
C20   C39   S    
C26   C27   A    
C29   C30   A    
C34   H17   S    
C14   H5    S    
C15   C38   S    
C3    H14   S    
C33   C34   A    
C6    C7    A    
C3    C7    A    
C21   C23   S    
O6    Zn2   S    
O3    Zn1   S    
C5    C6    A    
C24   H8    S    
C22   C24   A    
C16   C17   A    
C2    H15   S    
C26   H10   S    
C25   H9    S    
C4    C10   A    
C15   C16   A    
C31   O8    A    
C23   O6    A    
C39   N5    T    
C37   N3    T    
C20   C21   A    
C3    C4    A    
C9    H12   S    
C2    C32   A    
C34   C35   A    
C29   N1    A    
C2    C36   A    
C27   C28   A    
C7    C9    S    
C30   I2    S    
C28   N1    A    
C14   C15   A    
C18   C19   A    
C13   H4    S    
O7    Zn1   S    
C25   C26   A    
O4    Zn2   S    
C12   O4    A    
C6    H2    S    
C10   C31   S    
C38   N4    T    
C33   H1    S    
C36   H13   S    
C22   H7    S    
O2    Zn2   S    
C8    C9    D    
C35   C36   A    
C11   C17   A    
