data_mof_unit_28667.cif
_audit_creation_date              2012-12-11T15:50:34-0500
_audit_creation_method            fapswitch 2.2
_symmetry_space_group_name_H-M    P1
_symmetry_Int_Tables_number       1
_space_group_crystal_system       triclinic
_cell_length_a                    18.917984
_cell_length_b                    10.988191
_cell_length_c                    18.753912
_cell_angle_alpha                 90.13447
_cell_angle_beta                  91.096366
_cell_angle_gamma                 89.640889
_cell_volume                      3897.65868063

loop_
_atom_site_label
_atom_site_type_symbol
_atom_type_description
_atom_site_fract_x
_atom_site_fract_y
_atom_site_fract_z
_atom_type_partial_charge
C1    C     C_R   0.272839 0.041349 0.854174 0.568143
C2    C     C_R   0.756690 0.579683 0.926579 0.056815
C3    C     C_R   0.229181 0.548906 0.352647 0.542574
C4    C     C_R   0.439584 0.819813 0.639456 0.539541
C5    C     C_R   0.529039 0.823495 0.352330 0.536261
C6    C     C_R   0.939584 0.319813 0.639456 0.539541
C7    C     C_R   0.029039 0.323495 0.352330 0.536261
C8    C     C_R   0.273584 0.687195 0.636531 0.552816
C9    C     C_R   0.740990 0.636061 0.355570 0.535509
C10   C     C_R   0.773584 0.187195 0.636531 0.552816
C11   C     C_R   0.240990 0.136062 0.355570 0.535509
C12   C     C_3   0.457382 0.928848 0.036472 -0.140615
C13   C     C_R   0.741301 0.075475 0.071881 0.062991
C14   C     C_3   0.507914 0.927910 0.972159 -0.126049
C15   C     C_3   0.957383 0.428848 0.036472 -0.140615
C16   C     C_3   0.007915 0.427910 0.972159 -0.126049
C17   C     C_3   0.413289 0.827665 0.000331 0.193968
C18   C     C_3   0.552738 0.828512 0.009222 0.226475
C19   C     C_3   0.913289 0.327664 0.000331 0.193968
C20   C     C_3   0.052738 0.328512 0.009222 0.226475
C21   C     C_3   0.463419 0.826172 0.937262 0.016247
C22   C     C_3   0.502214 0.828989 0.072063 0.019220
C23   C     C_3   0.963419 0.326172 0.937262 0.016247
C24   C     C_R   0.256690 0.079684 0.926579 0.056816
C25   C     C_3   0.002214 0.328989 0.072063 0.019220
C26   C     C_R   0.303386 0.541696 0.037244 0.001994
C27   C     C_R   0.693787 0.550152 0.960843 0.020107
C28   C     C_R   0.803386 0.041695 0.037244 0.001995
C29   C     C_R   0.193787 0.050152 0.960842 0.020106
C30   C     C_R   0.307568 0.547806 0.963115 0.121941
C31   C     C_R   0.689855 0.555805 0.034935 0.144827
C32   C     C_R   0.807568 0.047805 0.963115 0.121942
C33   C     C_R   0.726524 0.040061 0.145136 0.569933
C34   C     C_R   0.189855 0.055805 0.034934 0.144826
C35   C     C_R   0.186755 0.618133 0.956164 -0.109615
C36   C     C_R   0.810660 0.622462 0.042227 -0.131877
C37   C     C_R   0.686755 0.118133 0.956164 -0.109616
C38   C     C_R   0.310660 0.122463 0.042227 -0.131876
C39   C     C_R   0.183992 0.618981 0.029886 -0.085091
C40   C     C_R   0.813772 0.622227 0.968747 -0.112696
C41   C     C_R   0.683992 0.118981 0.029886 -0.085092
C42   C     C_R   0.313772 0.122227 0.968747 -0.112696
C43   C     C_3   0.342086 0.423906 0.040656 -0.232532
C44   C     C_R   0.772839 0.541349 0.854174 0.568143
C45   C     C_3   0.650381 0.437580 0.956510 -0.221250
C46   C     C_3   0.842085 0.923904 0.040656 -0.232533
C47   C     C_3   0.150381 0.937580 0.956510 -0.221250
C48   C     C_3   0.344821 0.428131 0.960010 0.093308
C49   C     C_3   0.648422 0.440779 0.037412 0.099206
C50   C     C_3   0.844820 0.928129 0.960010 0.093308
C51   C     C_3   0.148422 0.940779 0.037412 0.099206
C52   C     C_R   0.249038 0.584491 0.921602 0.038026
C53   C     C_R   0.748922 0.588811 0.076772 0.045030
C54   C     C_R   0.749038 0.084491 0.921602 0.038026
C55   C     C_R   0.226524 0.540061 0.145136 0.569932
C56   C     C_R   0.248921 0.088811 0.076771 0.045031
C57   C     C_R   0.491171 0.828529 0.419164 0.012487
C58   C     C_R   0.455636 0.827078 0.564030 0.025981
C59   C     C_R   0.991171 0.328529 0.419164 0.012487
C60   C     C_R   0.955636 0.327078 0.564030 0.025981
C61   C     C_R   0.439861 0.817720 0.862429 0.608755
C62   C     C_R   0.528987 0.821767 0.145172 0.582614
C63   C     C_R   0.939861 0.317720 0.862429 0.608755
C64   C     C_R   0.028987 0.321767 0.145172 0.582614
C65   C     C_R   0.483562 0.719530 0.456479 0.030522
C66   C     C_3   0.509185 0.727100 0.973542 -0.053401
C67   C     C_R   0.467887 0.719502 0.527282 0.002693
C68   C     C_R   0.983562 0.219530 0.456479 0.030522
C69   C     C_R   0.967887 0.219502 0.527281 0.002693
C70   C     C_R   0.452925 0.936894 0.525129 -0.098453
C71   C     C_R   0.471522 0.937882 0.452733 -0.133274
C72   C     C_R   0.952925 0.436893 0.525129 -0.098453
C73   C     C_R   0.971522 0.437882 0.452734 -0.133273
C74   C     C_3   0.535034 0.616502 0.466167 -0.257806
C75   C     C_3   0.517739 0.617185 0.544323 -0.259871
C76   C     C_3   0.035033 0.116501 0.466167 -0.257806
C77   C     C_3   0.458077 0.727954 0.037019 -0.073403
C78   C     C_3   0.017738 0.117185 0.544323 -0.259871
C79   C     C_R   0.252157 0.611075 0.416647 0.021594
C80   C     C_R   0.756589 0.574508 0.572673 0.014884
C81   C     C_R   0.752157 0.111074 0.416647 0.021594
C82   C     C_R   0.256589 0.074508 0.572673 0.014884
C83   C     C_R   0.203606 0.686941 0.451306 -0.022261
C84   C     C_R   0.810538 0.632071 0.537361 -0.020228
C85   C     C_R   0.703606 0.186941 0.451306 -0.022261
C86   C     C_R   0.310538 0.132071 0.537361 -0.020228
C87   C     C_R   0.210837 0.708557 0.522854 0.017923
C88   C     C_3   0.009185 0.227100 0.973542 -0.053402
C89   C     C_R   0.811298 0.636989 0.465028 0.071126
C90   C     C_R   0.710837 0.208557 0.522854 0.017923
C91   C     C_R   0.311298 0.136989 0.465028 0.071125
C92   C     C_R   0.322182 0.600410 0.525193 -0.162415
C93   C     C_R   0.706204 0.512848 0.458517 -0.180382
C94   C     C_R   0.822182 0.100410 0.525193 -0.162415
C95   C     C_R   0.206204 0.012848 0.458517 -0.180382
C96   C     C_R   0.315175 0.578198 0.452153 -0.164073
C97   C     C_R   0.705707 0.509480 0.532820 -0.171929
C98   C     C_R   0.815175 0.078198 0.452153 -0.164073
C99   C     C_3   0.958077 0.227954 0.037019 -0.073403
C100  C     C_R   0.205707 0.009481 0.532820 -0.171929
C101  C     C_3   0.124430 0.678668 0.455844 -0.195386
C102  C     C_3   0.838616 0.756843 0.548546 -0.236154
C103  C     C_3   0.624430 0.178668 0.455844 -0.195387
C104  C     C_3   0.338616 0.256844 0.548546 -0.236154
C105  C     C_3   0.132871 0.696802 0.535219 0.120646
C106  C     C_3   0.838855 0.765328 0.468254 0.110456
C107  C     C_3   0.632871 0.196802 0.535219 0.120646
C108  C     C_3   0.338855 0.265328 0.468254 0.110456
C109  C     C_R   0.260126 0.633881 0.850711 0.582499
C110  C     C_R   0.241301 0.575475 0.071881 0.062992
C111  C     C_R   0.739429 0.635080 0.148739 0.561684
C112  C     C_R   0.760126 0.133881 0.850711 0.582499
C113  C     C_R   0.239429 0.135080 0.148739 0.561684
C114  C     C_R   0.268357 0.661871 0.561394 0.044562
C115  C     C_R   0.755848 0.585858 0.424685 0.005952
C116  C     C_R   0.768357 0.161871 0.561394 0.044562
C117  C     C_R   0.255848 0.085858 0.424685 0.005952
C118  C     C_R   0.271421 0.044692 0.645642 0.539569
C119  C     C_R   0.729181 0.048906 0.352647 0.542574
C120  C     C_R   0.771421 0.544692 0.645642 0.539569
Cl1   Cl    Cl    0.320196 0.829275 0.996116 -0.738652
Cl2   Cl    Cl    0.562059 0.464441 0.071234 -0.600524
Cl3   Cl    Cl    0.932087 0.941846 0.927043 -0.609434
Cl4   Cl    Cl    0.062059 0.964440 0.071234 -0.600523
Cl5   Cl    Cl    0.646349 0.831877 0.015083 -0.680293
Cl6   Cl    Cl    0.820196 0.329274 0.996116 -0.738651
Cl7   Cl    Cl    0.146349 0.331878 0.015083 -0.680291
Cl8   Cl    Cl    0.109774 0.562266 0.583255 -0.582792
Cl9   Cl    Cl    0.925772 0.777061 0.433493 -0.694669
Cl10  Cl    Cl    0.609774 0.062266 0.583255 -0.582792
Cl11  Cl    Cl    0.425772 0.277061 0.433493 -0.694669
Cl12  Cl    Cl    0.432088 0.441849 0.927043 -0.609434
Cr1   Cr    Cr6+3 0.229640 0.835880 0.747370 1.044291
Cr2   Cr    Cr6+3 0.614230 0.677220 0.250660 1.087403
Cr3   Cr    Cr6+3 0.885770 0.177220 0.749340 1.073757
Cr4   Cr    Cr6+3 0.114230 0.177220 0.250660 1.087403
Cr5   Cr    Cr6+3 0.770360 0.835880 0.252630 1.069278
Cr6   Cr    Cr6+3 0.729640 0.335880 0.747370 1.044291
Cr7   Cr    Cr6+3 0.270360 0.335880 0.252630 1.069278
Cr8   Cr    Cr6+3 0.387390 0.989720 0.750850 1.065735
Cr9   Cr    Cr6+3 0.612610 0.989720 0.249150 1.059868
Cr10  Cr    Cr6+3 0.887390 0.489720 0.750850 1.065735
Cr11  Cr    Cr6+3 0.112610 0.489720 0.249150 1.059868
Cr12  Cr    Cr6+3 0.385770 0.677220 0.749340 1.073757
H1    H     H_    0.441186 0.022039 0.551513 0.182127
H2    H     H_    0.563010 0.645535 0.579131 0.173184
H3    H     H_    0.017711 0.032464 0.437887 0.180932
H4    H     H_    0.063009 0.145535 0.579131 0.173184
H5    H     H_    0.367055 0.562661 0.554037 0.146086
H6    H     H_    0.664179 0.468741 0.428375 0.133186
H7    H     H_    0.867055 0.062660 0.554037 0.146086
H8    H     H_    0.164179 0.968741 0.428375 0.133186
H9    H     H_    0.355140 0.524641 0.425733 0.175843
H10   H     H_    0.665463 0.458031 0.559097 0.128764
H11   H     H_    0.855140 0.024641 0.425733 0.175843
H12   H     H_    0.475133 0.023620 0.424895 0.187099
H13   H     H_    0.165463 0.958032 0.559097 0.128764
H14   H     H_    0.102939 0.587907 0.441220 0.202295
H15   H     H_    0.892068 0.755814 0.574242 0.187659
H16   H     H_    0.602939 0.087907 0.441221 0.202295
H17   H     H_    0.392068 0.255814 0.574242 0.187659
H18   H     H_    0.097388 0.756407 0.428754 0.143412
H19   H     H_    0.799686 0.819209 0.573561 0.136743
H20   H     H_    0.597388 0.256407 0.428754 0.143412
H21   H     H_    0.299686 0.319209 0.573561 0.136743
H22   H     H_    0.106990 0.780977 0.554764 0.130333
H23   H     H_    0.941186 0.522039 0.551513 0.182127
H24   H     H_    0.800229 0.833084 0.447101 0.155598
H25   H     H_    0.606990 0.280977 0.554764 0.130333
H26   H     H_    0.300229 0.333084 0.447101 0.155598
H27   H     H_    0.438869 0.009865 0.065741 0.135419
H28   H     H_    0.528739 0.009130 0.944667 0.150674
H29   H     H_    0.938869 0.509865 0.065741 0.135419
H30   H     H_    0.028739 0.509130 0.944667 0.150674
H31   H     H_    0.532115 0.645925 0.947246 0.208563
H32   H     H_    0.437379 0.647557 0.065215 0.186138
H33   H     H_    0.032115 0.145925 0.947246 0.208561
H34   H     H_    0.975133 0.523620 0.424895 0.187099
H35   H     H_    0.937379 0.147557 0.065215 0.186139
H36   H     H_    0.140633 0.649729 0.926301 0.140049
H37   H     H_    0.856204 0.655519 0.072018 0.133514
H38   H     H_    0.640633 0.149730 0.926301 0.140049
H39   H     H_    0.356204 0.155520 0.072018 0.133513
H40   H     H_    0.134174 0.644995 0.053231 0.163247
H41   H     H_    0.863854 0.646702 0.945855 0.168514
H42   H     H_    0.634174 0.144995 0.053231 0.163247
H43   H     H_    0.363853 0.146703 0.945855 0.168513
H44   H     H_    0.807491 0.851967 0.060898 0.170726
H45   H     H_    0.089891 0.145821 0.456059 0.163232
H46   H     H_    0.180353 0.859245 0.935377 0.179562
H47   H     H_    0.307494 0.351968 0.060899 0.170725
H48   H     H_    0.680353 0.359245 0.935377 0.179562
H49   H     H_    0.394245 0.431968 0.068442 0.202749
H50   H     H_    0.598448 0.454032 0.929512 0.200009
H51   H     H_    0.894244 0.931964 0.068442 0.202748
H52   H     H_    0.098448 0.954032 0.929512 0.200008
H53   H     H_    0.312481 0.358012 0.932201 0.146789
H54   H     H_    0.678112 0.365654 0.064092 0.158658
H55   H     H_    0.812480 0.858012 0.932200 0.146789
H56   H     H_    0.990463 0.033210 0.561413 0.150938
H57   H     H_    0.178112 0.865654 0.064092 0.158658
H58   H     H_    0.589891 0.645822 0.456059 0.163232
H59   H     H_    0.490463 0.533210 0.561413 0.150938
H60   H     H_    0.517711 0.532464 0.437887 0.180932
O1    O     O_R   0.214300 0.709080 0.827500 -0.516606
O2    O     O_R   0.543340 0.717710 0.330180 -0.519218
O3    O     O_R   0.956660 0.217710 0.669820 -0.514408
O4    O     O_R   0.043340 0.217710 0.330180 -0.519218
O5    O     O_R   0.320590 0.625770 0.672930 -0.518097
O6    O     O_R   0.679410 0.625770 0.327070 -0.517982
O7    O     O_R   0.820590 0.125770 0.672930 -0.518097
O8    O     O_R   0.179410 0.125770 0.327070 -0.517982
O9    O     O_3   0.334270 0.834280 0.749190 -0.329567
O10   O     O_3   0.665730 0.834280 0.250810 -0.262896
O11   O     O_3   0.834270 0.334280 0.749190 -0.329567
O12   O     O_R   0.785700 0.709080 0.172500 -0.531474
O13   O     O_3   0.165730 0.334280 0.250810 -0.262896
O14   O     O_R   0.236190 0.958390 0.823150 -0.496528
O15   O     O_R   0.763810 0.958390 0.176850 -0.499823
O16   O     O_R   0.736190 0.458390 0.823150 -0.496528
O17   O     O_R   0.263810 0.458390 0.176850 -0.499822
O18   O     O_R   0.332090 0.075280 0.831290 -0.517137
O19   O     O_R   0.667910 0.075280 0.168710 -0.511271
O20   O     O_R   0.832090 0.575280 0.831290 -0.517136
O21   O     O_R   0.167910 0.575280 0.168710 -0.511271
O22   O     O_R   0.446280 0.918040 0.826620 -0.489457
O23   O     O_R   0.714300 0.209080 0.827500 -0.516606
O24   O     O_R   0.553720 0.918040 0.173380 -0.493263
O25   O     O_R   0.946280 0.418040 0.826620 -0.489457
O26   O     O_R   0.053720 0.418040 0.173380 -0.493263
O27   O     O_R   0.457080 0.716270 0.831760 -0.474991
O28   O     O_R   0.542920 0.716270 0.168240 -0.461664
O29   O     O_R   0.957080 0.216270 0.831760 -0.474992
O30   O     O_R   0.042920 0.216270 0.168240 -0.461664
O31   O     O_R   0.320980 0.624440 0.823040 -0.466471
O32   O     O_R   0.679020 0.624440 0.176960 -0.453036
O33   O     O_R   0.820980 0.124440 0.823040 -0.466471
O34   O     O_R   0.285700 0.209080 0.172500 -0.531474
O35   O     O_R   0.179020 0.124440 0.176960 -0.453036
O36   O     O_R   0.213880 0.710510 0.665560 -0.454221
O37   O     O_R   0.786120 0.710510 0.334440 -0.484873
O38   O     O_R   0.713880 0.210510 0.665560 -0.454221
O39   O     O_R   0.286120 0.210510 0.334440 -0.484873
O40   O     O_R   0.235800 0.959720 0.673040 -0.531283
O41   O     O_R   0.764200 0.959720 0.326960 -0.503547
O42   O     O_R   0.735800 0.459720 0.673040 -0.531283
O43   O     O_R   0.264200 0.459720 0.326960 -0.503547
O44   O     O_R   0.331670 0.076720 0.669350 -0.521258
O45   O     O_R   0.445900 0.919370 0.676500 -0.463088
O46   O     O_R   0.668330 0.076720 0.330650 -0.524184
O47   O     O_R   0.831670 0.576720 0.669350 -0.521258
O48   O     O_R   0.168330 0.576720 0.330650 -0.524184
O49   O     O_R   0.554100 0.919370 0.323500 -0.509786
O50   O     O_R   0.945900 0.419370 0.676500 -0.463088
O51   O     O_R   0.054100 0.419370 0.323500 -0.509786
O52   O     O_R   0.456660 0.717710 0.669820 -0.514408

loop_
_geom_bond_atom_site_label_1
_geom_bond_atom_site_label_2
_ccdc_geom_bond_type
C42   H43   S    
C106  Cl9   S    
Cr3   O7    S    
C80   C120  S    
C34   C56   A    
Cr2   O6    S    
C108  H26   S    
Cr5   O10   S    
C109  O31   A    
C84   C102  S    
C14   C18   S    
Cr12  O27   S    
C19   C23   S    
C10   O38   A    
C120  O47   A    
C32   C54   A    
C80   C84   A    
C9    O37   A    
C89   C115  A    
C69   C78   S    
C88   H33   S    
C60   C72   A    
C95   C117  A    
C15   C19   S    
Cr12  O52   S    
C28   C46   S    
C34   C51   S    
C3    O43   A    
C29   C47   S    
C35   H36   S    
C14   C21   S    
C30   C48   S    
C101  H18   S    
C76   C78   S    
C4    O45   A    
C38   C42   A    
C86   C91   A    
Cr1   O40   S    
Cr12  O9    S    
C80   C97   A    
C118  O44   A    
C103  H16   S    
Cr2   O2    S    
C22   C62   S    
C81   C98   A    
C94   C98   A    
Cr1   O1    S    
C15   C16   S    
C12   C22   S    
C60   C69   A    
C92   C96   A    
C24   C42   A    
C105  H22   S    
C6    O50   A    
C6    O3    A    
C93   C115  A    
Cr8   O18   S    
C5    O49   A    
C24   C29   A    
C87   C114  A    
C36   C53   A    
C46   H51   S    
C5    O2    A    
Cr4   O8    S    
C63   O25   A    
C100  H13   S    
C25   C99   S    
C39   C110  A    
Cr3   O11   S    
C76   H3    S    
C2    C44   S    
C102  H19   S    
C65   C67   A    
Cr4   O30   S    
C12   C17   S    
C41   H42   S    
C56   C113  S    
C91   C117  A    
C13   C28   A    
C2    C27   A    
C44   O20   A    
Cr1   O36   S    
Cr2   O28   S    
Cr7   O39   S    
C43   C48   S    
C26   C110  A    
C92   H5    S    
C21   C61   S    
C39   H40   S    
C85   C103  S    
C8    C114  S    
C55   O17   A    
Cr5   O37   S    
C53   C111  S    
Cr9   O24   S    
C23   C63   S    
C7    C59   S    
C104  H21   S    
Cr7   O43   S    
C112  O23   A    
C18   C22   S    
Cr11  O51   S    
Cr7   O34   S    
C51   Cl4   S    
C93   H6    S    
Cr6   O23   S    
C120  O42   A    
Cr11  O21   S    
C107  Cl10  S    
C13   C41   A    
Cr12  O5    S    
C118  O40   A    
C26   C43   S    
C12   H27   S    
C49   H54   S    
C8    O36   A    
C75   H2    S    
C101  C105  S    
C85   C90   A    
Cr6   O11   S    
C74   C75   S    
C15   H29   S    
Cr2   O32   S    
C27   C31   A    
C9    C115  S    
C6    C60   S    
C47   H52   S    
C28   C32   A    
C111  O12   A    
C20   Cl7   S    
C14   H28   S    
Cr11  O48   S    
C119  O46   A    
C104  H17   S    
Cr4   O4    S    
C94   C116  A    
C95   C100  A    
C58   C70   A    
Cr10  O25   S    
C47   C51   S    
Cr4   O13   S    
C74   H58   S    
C75   H59   S    
C94   H7    S    
C82   C86   A    
C102  H15   S    
C29   C34   A    
C36   C40   A    
C17   C21   S    
C65   C74   S    
Cr3   O33   S    
C1    O18   A    
C21   C66   S    
C106  H24   S    
C99   H35   S    
C89   C106  S    
C37   H38   S    
C108  Cl11  S    
C13   C33   S    
Cr6   O42   S    
C2    C40   A    
C59   C68   A    
Cr11  O13   S    
C57   C71   A    
Cr5   O41   S    
Cr7   O13   S    
C45   H48   S    
C96   H9    S    
C87   C105  S    
C45   C49   S    
C9    O6    A    
C16   C20   S    
C78   H56   S    
Cr5   O15   S    
C17   C77   S    
C111  O32   A    
C103  H20   S    
C86   C104  S    
C54   C112  S    
C70   H1    S    
C97   H10   S    
C3    O48   A    
C109  O1    A    
C32   C50   S    
C3    C79   S    
C1    O14   A    
C36   H37   S    
Cr8   O9    S    
Cr9   O19   S    
C73   H34   S    
C33   O19   A    
Cr1   O14   S    
C17   Cl1   S    
C113  O34   A    
C12   C14   S    
C101  H14   S    
C26   C30   A    
C77   H32   S    
C90   C116  A    
C23   C88   S    
C55   C110  S    
C90   C107  S    
C7    O4    A    
C72   H23   S    
C66   H31   S    
C31   C53   A    
C67   C75   S    
C84   C89   A    
C82   C118  S    
C48   H53   S    
C8    O5    A    
C11   C117  S    
C93   C97   A    
C104  C108  S    
C70   C71   A    
C10   C116  S    
Cr3   O3    S    
C107  H25   S    
Cr9   O10   S    
C16   H30   S    
C45   H50   S    
Cr10  O20   S    
C66   C77   S    
C30   C52   A    
C98   H11   S    
Cr5   O12   S    
C19   C99   S    
Cr10  O47   S    
C83   C101  S    
C105  Cl8   S    
C7    O51   A    
C64   O30   A    
Cr8   O44   S    
C33   O15   A    
C82   C100  A    
C91   C108  S    
C68   C69   A    
C10   O7    A    
Cr8   O45   S    
C50   Cl3   S    
C22   C77   S    
C57   C65   A    
C11   O8    A    
Cr10  O50   S    
C83   C87   A    
Cr10  O11   S    
C50   H55   S    
C40   H41   S    
C78   H4    S    
C16   C23   S    
C37   C54   A    
C46   C50   S    
C19   Cl6   S    
C62   O28   A    
C61   O22   A    
Cr2   O10   S    
C76   H45   S    
C5    C57   S    
C11   O39   A    
C43   H49   S    
Cr1   O9    S    
C55   O21   A    
C47   H46   S    
C119  O41   A    
Cr9   O49   S    
C79   C96   A    
Cr3   O29   S    
C64   O26   A    
C81   C119  S    
Cr9   O46   S    
C79   C83   A    
C68   C76   S    
C27   C45   S    
Cr6   O38   S    
C74   H60   S    
C52   C109  S    
Cr12  O31   S    
C72   C73   A    
C62   O24   A    
C49   Cl2   S    
C20   C88   S    
C18   Cl5   S    
Cr6   O16   S    
Cr7   O17   S    
C102  C106  S    
Cr11  O26   S    
C37   C41   A    
C59   C73   A    
C18   C66   S    
Cr8   O22   S    
C88   C99   S    
C15   C25   S    
C38   H39   S    
C63   O29   A    
C43   H47   S    
C44   O16   A    
C58   C67   A    
C113  O35   A    
C35   C39   A    
C38   C56   A    
C1    C24   S    
C112  O33   A    
C20   C25   S    
Cr4   O35   S    
C4    C58   S    
C35   C52   A    
C4    O52   A    
C48   Cl12  S    
C103  C107  S    
C95   H8    S    
C31   C49   S    
C71   H12   S    
C46   H44   S    
C92   C114  A    
C25   C64   S    
C81   C85   A    
C51   H57   S    
C61   O27   A    
