data_mof_unit_11630.cif
_audit_creation_date              2012-12-10T18:07:34-0500
_audit_creation_method            fapswitch 2.2
_symmetry_space_group_name_H-M    P1
_symmetry_Int_Tables_number       1
_space_group_crystal_system       triclinic
_cell_length_a                    18.341591
_cell_length_b                    18.341565
_cell_length_c                    30.488596
_cell_angle_alpha                 89.995874
_cell_angle_beta                  90.002567
_cell_angle_gamma                 90.000235
_cell_volume                      10256.7747513

loop_
_atom_site_label
_atom_site_type_symbol
_atom_type_description
_atom_site_fract_x
_atom_site_fract_y
_atom_site_fract_z
_atom_type_partial_charge
C1    C     C_R   0.139925 0.500000 1.000000 0.854869
C2    C     C_1   0.500000 0.217505 0.000004 -0.205344
C3    C     C_R   0.098688 0.589493 0.772510 0.304931
C4    C     C_R   0.410552 0.901285 0.227489 0.304933
C5    C     C_R   0.901282 0.589450 0.227480 0.304915
C6    C     C_R   0.589472 0.098701 0.227485 0.304962
C7    C     C_R   0.098649 0.410470 0.227496 0.304931
C8    C     C_3   0.907906 0.720978 0.285421 0.122488
C9    C     C_3   0.858961 0.783268 0.300142 -0.784788
C10   C     C_3   0.279026 0.907883 0.285436 0.122478
C11   C     C_3   0.216746 0.858927 0.300163 -0.784777
C12   C     C_3   0.091909 0.278962 0.285472 0.122451
C13   C     C_1   0.782494 0.499999 0.000001 -0.206033
C14   C     C_3   0.140805 0.216632 0.300198 -0.784785
C15   C     C_3   0.720980 0.092066 0.285462 0.122523
C16   C     C_3   0.783277 0.141011 0.300177 -0.784846
C17   C     C_3   0.907632 0.279072 0.714601 0.122528
C18   C     C_3   0.858576 0.216865 0.699884 -0.784696
C19   C     C_3   0.278156 0.088337 0.714270 0.122005
C20   C     C_3   0.214833 0.135816 0.699396 -0.784980
C21   C     C_3   0.092077 0.721016 0.714550 0.122574
C22   C     C_3   0.141036 0.783302 0.699831 -0.784859
C23   C     C_3   0.721182 0.908937 0.714521 0.122415
C24   C     C_1   0.500000 0.782494 0.999996 -0.205889
C25   C     C_3   0.783783 0.860389 0.699802 -0.784751
C26   C     C_3   0.404181 0.220108 0.785011 0.122914
C27   C     C_3   0.353910 0.281381 0.799664 -0.784766
C28   C     C_3   0.778991 0.408032 0.785452 0.122393
C29   C     C_3   0.716674 0.359122 0.800180 -0.784714
C30   C     C_3   0.593275 0.779235 0.785382 0.122578
C31   C     C_3   0.642679 0.717305 0.800107 -0.784795
C32   C     C_3   0.220937 0.592300 0.785419 0.122479
C33   C     C_3   0.283172 0.641319 0.800141 -0.784861
C34   C     C_3   0.407799 0.779040 0.214581 0.122470
C35   C     C_1   0.717506 0.000002 0.499996 -0.206110
C36   C     C_3   0.358808 0.716786 0.199858 -0.784761
C37   C     C_3   0.779035 0.592249 0.214569 0.122487
C38   C     C_3   0.716799 0.641263 0.199839 -0.784798
C39   C     C_3   0.592277 0.220944 0.214562 0.122493
C40   C     C_3   0.641301 0.283175 0.199841 -0.784757
C41   C     C_3   0.220899 0.407557 0.214601 0.122535
C42   C     C_3   0.283091 0.358479 0.199890 -0.784767
C43   C     C_R   0.098387 0.406163 0.368628 0.212395
C44   C     C_R   0.073804 0.343044 0.390105 -0.130353
C45   C     C_R   0.122889 0.299717 0.413615 -0.128712
C46   C     C_1   0.000000 0.717506 0.500003 -0.206005
C47   C     C_R   0.196286 0.319645 0.416360 -0.114235
C48   C     C_R   0.220890 0.382835 0.395448 -0.138911
C49   C     C_R   0.172184 0.426078 0.371633 -0.047094
C50   C     C_R   0.593830 0.098395 0.368624 0.212341
C51   C     C_R   0.656959 0.073794 0.390082 -0.130524
C52   C     C_R   0.700296 0.122859 0.413597 -0.128710
C53   C     C_R   0.680366 0.196253 0.416367 -0.114309
C54   C     C_R   0.617165 0.220874 0.395473 -0.138890
C55   C     C_R   0.573913 0.172188 0.371652 -0.046936
C56   C     C_R   0.901629 0.593854 0.368621 0.212373
C57   C     C_1   0.282494 0.999999 0.500001 -0.206583
C58   C     C_R   0.926253 0.656987 0.390060 -0.130580
C59   C     C_R   0.877210 0.700344 0.413575 -0.128785
C60   C     C_R   0.803813 0.680429 0.416365 -0.114265
C61   C     C_R   0.779169 0.617223 0.395490 -0.138899
C62   C     C_R   0.827833 0.573952 0.371669 -0.046887
C63   C     C_R   0.406156 0.901623 0.368627 0.212345
C64   C     C_R   0.343025 0.926232 0.390076 -0.130533
C65   C     C_R   0.299683 0.877175 0.413595 -0.128701
C66   C     C_R   0.319607 0.803779 0.416377 -0.114305
C67   C     C_R   0.382809 0.779150 0.395493 -0.138898
C68   C     C_1   0.999999 0.282494 0.499997 -0.205977
C69   C     C_R   0.426067 0.827829 0.371669 -0.046858
C70   C     C_R   0.098377 0.593850 0.631371 0.212387
C71   C     C_R   0.073782 0.656990 0.609921 -0.130495
C72   C     C_R   0.122848 0.700326 0.586405 -0.128740
C73   C     C_R   0.196239 0.680385 0.583626 -0.114245
C74   C     C_R   0.220854 0.617173 0.604511 -0.138923
C75   C     C_R   0.172167 0.573922 0.628333 -0.046969
C76   C     C_R   0.593873 0.901598 0.631392 0.212451
C77   C     C_R   0.656924 0.926233 0.609868 -0.129786
C78   C     C_R   0.700317 0.877156 0.586401 -0.128724
C79   C     C_R   0.999999 0.499997 0.085616 0.796179
C80   C     C_R   0.680523 0.803713 0.583748 -0.114053
C81   C     C_R   0.617400 0.779057 0.604708 -0.138947
C82   C     C_R   0.574094 0.827755 0.628481 -0.047823
C83   C     C_R   0.901652 0.406131 0.631370 0.212341
C84   C     C_R   0.926297 0.342974 0.609966 -0.130845
C85   C     C_R   0.877279 0.299602 0.586438 -0.128821
C86   C     C_R   0.803890 0.319527 0.583600 -0.114313
C87   C     C_R   0.779226 0.382756 0.604439 -0.138883
C88   C     C_R   0.827864 0.426042 0.628273 -0.046604
C89   C     C_R   0.406273 0.098526 0.631446 0.212796
C90   C     C_R   0.500002 1.000000 0.085616 0.796126
C91   C     C_R   0.343446 0.074247 0.609538 -0.126843
C92   C     C_R   0.300337 0.123702 0.586160 -0.128224
C93   C     C_R   0.320166 0.197181 0.584008 -0.113211
C94   C     C_R   0.383052 0.221494 0.605368 -0.139102
C95   C     C_R   0.426085 0.172409 0.629039 -0.050779
C96   C     C_R   0.598328 0.906146 0.868650 0.212257
C97   C     C_R   0.573715 0.842917 0.889996 -0.131507
C98   C     C_R   0.622722 0.799595 0.913567 -0.128830
C99   C     C_R   0.696067 0.819642 0.916510 -0.114528
C100  C     C_R   0.720697 0.882945 0.895731 -0.138843
C101  C     C_R   0.000001 0.500003 0.914384 0.796129
C102  C     C_R   0.672070 0.926184 0.871854 -0.045792
C103  C     C_R   0.093842 0.598387 0.868628 0.212368
C104  C     C_R   0.156991 0.573763 0.890056 -0.130708
C105  C     C_R   0.200343 0.622800 0.913581 -0.128783
C106  C     C_R   0.180409 0.696190 0.916391 -0.114318
C107  C     C_R   0.117188 0.720833 0.895529 -0.138898
C108  C     C_R   0.073920 0.672174 0.871698 -0.046728
C109  C     C_R   0.401873 0.094062 0.868687 0.211952
C110  C     C_R   0.426870 0.157521 0.889612 -0.134334
C111  C     C_R   0.378275 0.201159 0.913274 -0.129443
C112  C     C_R   0.500000 0.139925 0.999999 0.855379
C113  C     C_R   0.499995 0.000009 0.914382 0.796604
C114  C     C_R   0.304978 0.181172 0.916755 -0.114888
C115  C     C_R   0.279975 0.117630 0.896410 -0.138697
C116  C     C_R   0.328182 0.074087 0.872428 -0.043126
C117  C     C_R   0.906170 0.401613 0.868624 0.212382
C118  C     C_R   0.843051 0.426199 0.890094 -0.130401
C119  C     C_R   0.799727 0.377119 0.913608 -0.128721
C120  C     C_R   0.819658 0.303723 0.916363 -0.114272
C121  C     C_R   0.882849 0.279115 0.895457 -0.138896
C122  C     C_R   0.926088 0.327817 0.871638 -0.047017
C123  C     C_R   0.598388 0.093836 0.131370 0.212381
C124  C     C_R   0.500008 0.999992 0.585614 0.795713
C125  C     C_R   0.573778 0.156983 0.109934 -0.130721
C126  C     C_R   0.622827 0.200326 0.086410 -0.128819
C127  C     C_R   0.696214 0.180384 0.083608 -0.114310
C128  C     C_R   0.720844 0.117164 0.104478 -0.138899
C129  C     C_R   0.672174 0.073906 0.128308 -0.046734
C130  C     C_R   0.093851 0.401630 0.131373 0.212337
C131  C     C_R   0.157011 0.426270 0.109968 -0.130880
C132  C     C_R   0.200375 0.377252 0.086438 -0.128806
C133  C     C_R   0.180438 0.303866 0.083599 -0.114352
C134  C     C_R   0.117205 0.279207 0.104438 -0.138886
C135  C     C_R   0.000001 0.500000 0.585615 0.796168
C136  C     C_R   0.073927 0.327846 0.128274 -0.046558
C137  C     C_R   0.401632 0.906149 0.131374 0.212384
C138  C     C_R   0.426249 0.843008 0.109941 -0.130655
C139  C     C_R   0.377203 0.799661 0.086418 -0.128784
C140  C     C_R   0.303812 0.819593 0.083615 -0.114306
C141  C     C_R   0.279176 0.882806 0.104483 -0.138926
C142  C     C_R   0.327842 0.926068 0.128311 -0.046778
C143  C     C_R   0.906150 0.598367 0.131366 0.212368
C144  C     C_R   0.843002 0.573758 0.109933 -0.130655
C145  C     C_R   0.799660 0.622808 0.086407 -0.128769
C146  C     C_R   0.499998 0.000002 0.414384 0.796161
C147  C     C_R   0.819603 0.696196 0.083601 -0.114296
C148  C     C_R   0.882822 0.720825 0.104469 -0.138893
C149  C     C_R   0.926080 0.672154 0.128301 -0.046758
C150  C     C_R   0.999999 0.500000 0.414384 0.796119
C151  C     C_1   0.282869 0.500000 0.999998 -0.214567
C152  C     C_1   0.500001 0.282869 0.000006 -0.214743
C153  C     C_1   0.717131 0.499999 0.000002 -0.214517
C154  C     C_1   0.500001 0.717131 0.999996 -0.214547
C155  C     C_1   0.782869 0.000002 0.499997 -0.214494
C156  C     C_R   0.860075 0.500000 0.000000 0.854790
C157  C     C_1   0.000000 0.782869 0.500004 -0.214496
C158  C     C_1   0.217131 1.000000 0.500003 -0.214304
C159  C     C_1   0.999999 0.217131 0.499996 -0.214480
C160  C     C_R   0.500001 0.360464 0.000002 0.835240
C161  C     C_R   0.639536 0.500000 0.000001 0.835329
C162  C     C_R   0.500000 0.639536 0.999999 0.835305
C163  C     C_R   0.360464 0.500000 0.999999 0.835318
C164  C     C_R   0.000000 0.860464 0.500001 0.835274
C165  C     C_R   0.139536 0.000000 0.500001 0.835346
C166  C     C_R   1.000000 0.139536 0.499999 0.835275
C167  C     C_R   0.500000 0.860075 0.999998 0.854954
C168  C     C_R   0.860464 0.000001 0.499999 0.835293
C169  C     C_R   0.046803 0.452252 0.343162 -0.063866
C170  C     C_R   0.547727 0.046829 0.343158 -0.063858
C171  C     C_R   0.953173 0.547728 0.343156 -0.063845
C172  C     C_R   0.452267 0.953181 0.343159 -0.063847
C173  C     C_R   0.046811 0.547747 0.656840 -0.063865
C174  C     C_R   0.547736 0.953156 0.656840 -0.063792
C175  C     C_R   0.953171 0.452277 0.656842 -0.063830
C176  C     C_R   0.452086 0.046592 0.656838 -0.063997
C177  C     C_R   0.546802 0.952259 0.843158 -0.063901
C178  C     C_R   0.639925 0.000000 0.499998 0.854693
C179  C     C_R   0.047717 0.546847 0.843157 -0.063842
C180  C     C_R   0.452995 0.047585 0.843150 -0.063627
C181  C     C_R   0.952260 0.453195 0.843158 -0.063863
C182  C     C_R   0.546837 0.047722 0.156841 -0.063857
C183  C     C_R   0.047712 0.453153 0.156845 -0.063838
C184  C     C_R   0.453180 0.952268 0.156843 -0.063850
C185  C     C_R   0.952262 0.546814 0.156839 -0.063854
C186  C     C_R   0.999993 0.499994 0.366021 -0.169971
C187  C     C_R   0.499996 0.000006 0.366020 -0.169991
C188  C     C_R   0.999998 0.500005 0.633980 -0.169995
C189  C     C_R   0.000000 0.639925 0.500001 0.854802
C190  C     C_R   0.499964 0.999940 0.633972 -0.169756
C191  C     C_R   0.499953 0.999968 0.866011 -0.170253
C192  C     C_R   0.999995 0.500013 0.866020 -0.169989
C193  C     C_R   0.500006 0.999997 0.133980 -0.169976
C194  C     C_R   0.999992 0.499989 0.133981 -0.170012
C195  C     C_R   0.954390 0.549460 0.296654 -0.058177
C196  C     C_R   0.450532 0.954402 0.296658 -0.058190
C197  C     C_R   0.045561 0.450497 0.296662 -0.058204
C198  C     C_R   0.549471 0.045601 0.296658 -0.058212
C199  C     C_R   0.954369 0.450561 0.703344 -0.058149
C200  C     C_R   0.360075 0.999999 0.499998 0.854276
C201  C     C_R   0.450112 0.045072 0.703323 -0.058555
C202  C     C_R   0.045579 0.549495 0.703340 -0.058165
C203  C     C_R   0.549476 0.954399 0.703342 -0.058284
C204  C     C_R   0.453904 0.049065 0.796635 -0.057694
C205  C     C_R   0.950510 0.454432 0.796658 -0.058209
C206  C     C_R   0.545617 0.950534 0.796658 -0.058079
C207  C     C_R   0.049442 0.545641 0.796656 -0.058152
C208  C     C_R   0.454397 0.950536 0.203344 -0.058181
C209  C     C_R   0.950526 0.545596 0.203340 -0.058156
C210  C     C_R   0.545622 0.049454 0.203342 -0.058182
C211  C     C_R   1.000000 0.360075 0.499999 0.854814
C212  C     C_R   0.049427 0.454348 0.203347 -0.058151
C213  C     C_R   0.999975 0.499976 0.273391 -0.075049
C214  C     C_R   0.500003 0.000000 0.273391 -0.075040
C215  C     C_R   0.999975 0.500030 0.726609 -0.075049
C216  C     C_R   0.499791 0.999754 0.726604 -0.075060
C217  C     C_R   0.499771 0.999785 0.773385 -0.075062
C218  C     C_R   0.999976 0.500034 0.773390 -0.075048
C219  C     C_R   0.500007 0.999997 0.226609 -0.075054
C220  C     C_R   0.999976 0.499973 0.226610 -0.075051
C221  C     C_R   0.910571 0.598732 0.272508 0.304910
C222  C     C_1   0.217505 0.500000 0.999999 -0.205963
C223  C     C_R   0.401269 0.910571 0.272515 0.304914
C224  C     C_R   0.089355 0.401201 0.272524 0.304914
C225  C     C_R   0.598744 0.089422 0.272514 0.304913
C226  C     C_R   0.910507 0.401325 0.727491 0.304921
C227  C     C_R   0.400324 0.088307 0.727429 0.304805
C228  C     C_R   0.089400 0.598770 0.727481 0.304887
C229  C     C_R   0.598944 0.910816 0.727487 0.304956
C230  C     C_R   0.409477 0.097797 0.772454 0.304911
C231  C     C_R   0.901230 0.410620 0.772518 0.304927
C232  C     C_R   0.589705 0.901483 0.772515 0.304894
Cu1   Cu    Cu3+1 1.000000 0.572490 0.000000 0.949820
Cu2   Cu    Cu3+1 0.500000 0.500000 0.955520 0.925647
Cu3   Cu    Cu3+1 0.000000 0.000000 0.544480 0.925954
Cu4   Cu    Cu3+1 1.000000 1.000000 0.455520 0.925814
Cu5   Cu    Cu3+1 0.427510 0.000000 0.000000 0.949606
Cu6   Cu    Cu3+1 1.000000 0.427510 0.000000 0.949836
Cu7   Cu    Cu3+1 0.572490 0.000000 0.000000 0.949809
Cu8   Cu    Cu3+1 0.500000 0.072490 0.500000 0.950015
Cu9   Cu    Cu3+1 0.927510 0.500000 0.500000 0.949816
Cu10  Cu    Cu3+1 0.500000 0.927510 0.500000 0.949848
Cu11  Cu    Cu3+1 0.072490 0.500000 0.500000 0.949850
Cu12  Cu    Cu3+1 0.500000 0.500000 0.044480 0.925800
H1    H     H_    0.921039 0.730035 0.250136 0.154282
H2    H     H_    0.216746 0.807826 0.280614 0.247983
H3    H     H_    0.474813 0.808219 0.355460 0.095156
H4    H     H_    0.017003 0.672865 0.611846 0.100266
H5    H     H_    0.104160 0.749670 0.570578 0.138189
H6    H     H_    0.234058 0.714024 0.565379 0.121025
H7    H     H_    0.277706 0.601803 0.602344 0.112625
H8    H     H_    0.191765 0.525169 0.644543 0.095128
H9    H     H_    0.672694 0.983050 0.611702 0.100088
H10   H     H_    0.749599 0.895875 0.570520 0.138115
H11   H     H_    0.714209 0.765885 0.565541 0.121003
H12   H     H_    0.602144 0.722163 0.602640 0.112695
H13   H     H_    0.078742 0.269902 0.250192 0.154252
H14   H     H_    0.525417 0.808121 0.644756 0.095156
H15   H     H_    0.983076 0.327114 0.611935 0.100378
H16   H     H_    0.896005 0.250245 0.570647 0.138271
H17   H     H_    0.766108 0.285859 0.565344 0.121073
H18   H     H_    0.722376 0.398113 0.602226 0.112635
H19   H     H_    0.808229 0.474811 0.644446 0.095145
H20   H     H_    0.327633 0.017412 0.611000 0.099461
H21   H     H_    0.251242 0.105247 0.569962 0.137475
H22   H     H_    0.286693 0.235303 0.565877 0.120784
H23   H     H_    0.398329 0.278417 0.603690 0.112824
H24   H     H_    0.040466 0.277310 0.304807 0.120853
H25   H     H_    0.474572 0.191779 0.645628 0.095125
H26   H     H_    0.516968 0.826968 0.887951 0.100499
H27   H     H_    0.604022 0.750185 0.929315 0.138324
H28   H     H_    0.733840 0.786015 0.934801 0.121056
H29   H     H_    0.777513 0.898398 0.898026 0.112598
H30   H     H_    0.691676 0.975015 0.855733 0.095161
H31   H     H_    0.172859 0.516984 0.888107 0.100275
H32   H     H_    0.249694 0.604091 0.929390 0.138211
H33   H     H_    0.214061 0.733987 0.934645 0.121001
H34   H     H_    0.101823 0.777684 0.897721 0.112648
H35   H     H_    0.154720 0.222600 0.335413 0.254440
H36   H     H_    0.025159 0.691793 0.855507 0.095175
H37   H     H_    0.483592 0.173404 0.887169 0.101220
H38   H     H_    0.397258 0.250757 0.928678 0.138928
H39   H     H_    0.267527 0.215036 0.935123 0.121219
H40   H     H_    0.223197 0.102226 0.899122 0.112448
H41   H     H_    0.308296 0.025062 0.856654 0.095210
H42   H     H_    0.827183 0.482982 0.888187 0.100222
H43   H     H_    0.750400 0.395801 0.929452 0.138155
H44   H     H_    0.786027 0.265892 0.934608 0.121008
H45   H     H_    0.898211 0.222259 0.897606 0.112690
H46   H     H_    0.112299 0.163837 0.295349 0.185706
H47   H     H_    0.974825 0.308225 0.855413 0.095189
H48   H     H_    0.517000 0.172858 0.111876 0.100276
H49   H     H_    0.604127 0.249676 0.070593 0.138191
H50   H     H_    0.734020 0.214030 0.065354 0.121026
H51   H     H_    0.777694 0.101793 0.102292 0.112641
H52   H     H_    0.691784 0.025146 0.144506 0.095160
H53   H     H_    0.172880 0.483047 0.111937 0.100342
H54   H     H_    0.249735 0.395974 0.070646 0.138253
H55   H     H_    0.214098 0.266084 0.065341 0.121019
H56   H     H_    0.101838 0.222360 0.102224 0.112628
H57   H     H_    0.191895 0.216572 0.280639 0.247985
H58   H     H_    0.025155 0.308215 0.144447 0.095164
H59   H     H_    0.483029 0.827141 0.111883 0.100287
H60   H     H_    0.395908 0.750316 0.070603 0.138207
H61   H     H_    0.266009 0.785945 0.065362 0.121021
H62   H     H_    0.222323 0.898170 0.102296 0.112636
H63   H     H_    0.308228 0.974824 0.144507 0.095156
H64   H     H_    0.827127 0.516980 0.111878 0.100300
H65   H     H_    0.750310 0.604109 0.070592 0.138210
H66   H     H_    0.785958 0.734004 0.065346 0.121013
H67   H     H_    0.898193 0.777675 0.102281 0.112637
H68   H     H_    0.730050 0.078886 0.250185 0.154217
H69   H     H_    0.974840 0.691762 0.144497 0.095155
H70   H     H_    0.722666 0.040632 0.304808 0.120850
H71   H     H_    0.777250 0.155013 0.335375 0.254525
H72   H     H_    0.836083 0.112507 0.295383 0.185716
H73   H     H_    0.959363 0.722689 0.304743 0.120838
H74   H     H_    0.783358 0.192052 0.280570 0.247925
H75   H     H_    0.920734 0.270012 0.749889 0.154340
H76   H     H_    0.959092 0.277254 0.695290 0.120873
H77   H     H_    0.844704 0.222843 0.664663 0.254478
H78   H     H_    0.886933 0.163995 0.704765 0.185724
H79   H     H_    0.807468 0.216961 0.719429 0.247952
H80   H     H_    0.269173 0.074963 0.749532 0.154024
H81   H     H_    0.277803 0.036888 0.694927 0.120919
H82   H     H_    0.220472 0.149468 0.664130 0.253803
H83   H     H_    0.162634 0.106298 0.704369 0.185874
H84   H     H_    0.845072 0.777300 0.335360 0.254460
H85   H     H_    0.213725 0.187084 0.718754 0.248262
H86   H     H_    0.078931 0.730075 0.749833 0.154274
H87   H     H_    0.040628 0.722734 0.695222 0.120846
H88   H     H_    0.154939 0.777333 0.664615 0.254452
H89   H     H_    0.112590 0.836126 0.704689 0.185729
H90   H     H_    0.192132 0.783302 0.719388 0.247937
H91   H     H_    0.730188 0.922185 0.749796 0.154187
H92   H     H_    0.722525 0.960372 0.695166 0.120860
H93   H     H_    0.777872 0.846409 0.664593 0.254389
H94   H     H_    0.836418 0.889203 0.704634 0.185741
H95   H     H_    0.887413 0.836089 0.295274 0.185690
H96   H     H_    0.784152 0.809314 0.719381 0.247958
H97   H     H_    0.416844 0.229165 0.749666 0.154666
H98   H     H_    0.455735 0.223196 0.804167 0.120737
H99   H     H_    0.340412 0.275407 0.834936 0.254705
H100  H     H_    0.381082 0.334804 0.794557 0.185471
H101  H     H_    0.302682 0.280024 0.780254 0.248071
H102  H     H_    0.769928 0.421187 0.750169 0.154248
H103  H     H_    0.777325 0.459480 0.804781 0.120839
H104  H     H_    0.722644 0.345221 0.835397 0.254437
H105  H     H_    0.663871 0.387610 0.795320 0.185672
H106  H     H_    0.807857 0.783273 0.280591 0.247975
H107  H     H_    0.716631 0.308024 0.780627 0.248019
H108  H     H_    0.580264 0.770122 0.750087 0.154360
H109  H     H_    0.541803 0.777097 0.804670 0.120813
H110  H     H_    0.656478 0.723337 0.835334 0.254542
H111  H     H_    0.614640 0.664273 0.795206 0.185621
H112  H     H_    0.693806 0.717717 0.780582 0.247989
H113  H     H_    0.230000 0.579188 0.750132 0.154295
H114  H     H_    0.222718 0.540839 0.804734 0.120789
H115  H     H_    0.277204 0.655178 0.835363 0.254469
H116  H     H_    0.336027 0.612939 0.795262 0.185630
H117  H     H_    0.269963 0.921019 0.250151 0.154272
H118  H     H_    0.283101 0.692432 0.780602 0.248009
H119  H     H_    0.420923 0.769976 0.249867 0.154281
H120  H     H_    0.459256 0.777288 0.195262 0.120833
H121  H     H_    0.344934 0.722756 0.164636 0.254460
H122  H     H_    0.387217 0.663944 0.204736 0.185679
H123  H     H_    0.307699 0.716828 0.219401 0.247998
H124  H     H_    0.769970 0.579141 0.249857 0.154312
H125  H     H_    0.777259 0.540787 0.195258 0.120832
H126  H     H_    0.722762 0.655109 0.164613 0.254443
H127  H     H_    0.663945 0.612887 0.204726 0.185685
H128  H     H_    0.277311 0.959337 0.304757 0.120841
H129  H     H_    0.716878 0.692385 0.219367 0.248009
H130  H     H_    0.579149 0.230014 0.249846 0.154292
H131  H     H_    0.540826 0.222719 0.195236 0.120826
H132  H     H_    0.655186 0.277195 0.164623 0.254470
H133  H     H_    0.612912 0.336029 0.204705 0.185674
H134  H     H_    0.692402 0.283114 0.219394 0.248000
H135  H     H_    0.229965 0.420667 0.249888 0.154304
H136  H     H_    0.222734 0.459014 0.195282 0.120826
H137  H     H_    0.277111 0.344605 0.164671 0.254482
H138  H     H_    0.335971 0.386817 0.204768 0.185668
H139  H     H_    0.222722 0.845034 0.335381 0.254456
H140  H     H_    0.282975 0.307374 0.219441 0.247981
H141  H     H_    0.017020 0.327177 0.388204 0.100218
H142  H     H_    0.104209 0.250388 0.429463 0.138154
H143  H     H_    0.234121 0.286011 0.434602 0.121036
H144  H     H_    0.277748 0.398196 0.397589 0.112673
H145  H     H_    0.191774 0.474814 0.355401 0.095156
H146  H     H_    0.672826 0.017012 0.388165 0.100251
H147  H     H_    0.749632 0.104166 0.429431 0.138196
H148  H     H_    0.714007 0.234071 0.434613 0.121036
H149  H     H_    0.601803 0.277729 0.397633 0.112672
H150  H     H_    0.163921 0.887373 0.295299 0.185694
H151  H     H_    0.525168 0.191791 0.355436 0.095164
H152  H     H_    0.983037 0.672843 0.388127 0.100277
H153  H     H_    0.895921 0.749684 0.429394 0.138211
H154  H     H_    0.766011 0.714085 0.434612 0.121042
H155  H     H_    0.722313 0.601873 0.397666 0.112655
H156  H     H_    0.808212 0.525203 0.355467 0.095158
H157  H     H_    0.327163 0.983015 0.388148 0.100286
H158  H     H_    0.250347 0.895874 0.429422 0.138217
H159  H     H_    0.285961 0.765967 0.434626 0.121034
H160  H     H_    0.398166 0.722294 0.397663 0.112660
O1    O     O_R   0.105780 0.561220 0.000020 -0.580557
O2    O     O_R   0.938780 0.605780 0.500020 -0.580559
O3    O     O_R   0.394220 0.938780 0.500020 -0.580436
O4    O     O_R   0.061220 0.394220 0.500020 -0.580567
O5    O     O_R   0.605780 0.938780 0.499980 -0.580589
O6    O     O_R   0.938780 0.394220 0.499980 -0.580539
O7    O     O_R   0.394220 0.061220 0.499980 -0.580751
O8    O     O_R   0.061220 0.605780 0.499980 -0.580558
O9    O     O_R   0.999940 0.561230 0.064880 -0.586196
O10   O     O_R   0.438770 0.999940 0.064880 -0.586229
O11   O     O_R   0.000060 0.438770 0.064880 -0.586204
O12   O     O_R   0.438780 0.105780 0.000020 -0.580378
O13   O     O_R   0.561230 0.000060 0.064880 -0.586211
O14   O     O_R   0.999940 0.438770 0.935120 -0.586173
O15   O     O_R   0.438770 0.000060 0.935120 -0.586454
O16   O     O_R   0.000060 0.561230 0.935120 -0.586200
O17   O     O_R   0.561230 0.999940 0.935120 -0.586213
O18   O     O_R   0.499940 0.061230 0.564880 -0.585962
O19   O     O_R   0.938770 0.499940 0.564880 -0.586211
O20   O     O_R   0.500060 0.938770 0.564880 -0.586171
O21   O     O_R   0.061230 0.500060 0.564880 -0.586185
O22   O     O_R   0.499940 0.938770 0.435120 -0.586175
O23   O     O_R   0.894220 0.438780 0.000020 -0.580572
O24   O     O_R   0.938770 0.500060 0.435120 -0.586192
O25   O     O_R   0.500060 0.061230 0.435120 -0.586146
O26   O     O_R   0.061230 0.499940 0.435120 -0.586177
O27   O     O_R   0.499980 0.394200 0.037580 -0.587239
O28   O     O_R   0.605800 0.499980 0.037580 -0.587284
O29   O     O_R   0.500020 0.605800 0.037580 -0.587277
O30   O     O_R   0.394200 0.500020 0.037580 -0.587277
O31   O     O_R   0.499980 0.605800 0.962420 -0.587305
O32   O     O_R   0.605800 0.500020 0.962420 -0.587272
O33   O     O_R   0.500020 0.394200 0.962420 -0.587459
O34   O     O_R   0.561220 0.894220 0.000020 -0.580512
O35   O     O_R   0.394200 0.499980 0.962420 -0.587327
O36   O     O_R   0.999980 0.894200 0.537580 -0.587276
O37   O     O_R   0.105800 0.999980 0.537580 -0.587135
O38   O     O_R   0.000020 0.105800 0.537580 -0.587257
O39   O     O_R   0.894200 0.000020 0.537580 -0.587275
O40   O     O_R   0.999980 0.105800 0.462420 -0.587284
O41   O     O_R   0.105800 0.000020 0.462420 -0.587320
O42   O     O_R   0.000020 0.894200 0.462420 -0.587291
O43   O     O_R   0.894200 0.999980 0.462420 -0.587281
O44   O     O_3   0.871474 0.654066 0.292520 -0.566843
O45   O     O_R   0.105780 0.438780 0.999980 -0.580549
O46   O     O_3   0.345944 0.871461 0.292532 -0.566832
O47   O     O_3   0.128412 0.345841 0.292546 -0.566826
O48   O     O_3   0.654074 0.128523 0.292530 -0.566826
O49   O     O_3   0.871328 0.346048 0.707477 -0.566862
O50   O     O_3   0.344256 0.126323 0.707393 -0.566626
O51   O     O_3   0.128501 0.654099 0.707460 -0.566855
O52   O     O_3   0.654509 0.872047 0.707475 -0.566783
O53   O     O_3   0.369377 0.152429 0.792448 -0.567021
O54   O     O_3   0.845879 0.371549 0.792535 -0.566828
O55   O     O_3   0.629177 0.846418 0.792536 -0.566889
O56   O     O_R   0.438780 0.894220 0.999980 -0.580623
O57   O     O_3   0.153982 0.628645 0.792526 -0.566837
O58   O     O_3   0.371417 0.845978 0.207474 -0.566827
O59   O     O_3   0.845987 0.628600 0.207460 -0.566847
O60   O     O_3   0.628631 0.153990 0.207466 -0.566815
O61   O     O_3   0.153912 0.371272 0.207483 -0.566850
O62   O     O_R   0.894220 0.561220 0.999980 -0.580547
O63   O     O_R   0.561220 0.105780 0.999980 -0.580683
O64   O     O_R   0.605780 0.061220 0.500020 -0.580497

loop_
_geom_bond_atom_site_label_1
_geom_bond_atom_site_label_2
_ccdc_geom_bond_type
Cu11  O4    S    
C173  C188  A    
C126  C127  A    
C177  C191  A    
C96   C102  A    
C113  O15   A    
Cu10  O5    S    
C19   C20   S    
C57   C158  T    
C197  C224  A    
C39   O60   S    
C114  C115  A    
C197  C213  A    
C110  H37   S    
Cu4   O42   S    
C79   C194  S    
C25   H94   S    
C15   H70   S    
C97   H26   S    
C106  C107  A    
C143  C144  A    
C99   H28   S    
C73   C74   A    
C138  H59   S    
C110  C111  A    
C175  C188  A    
C33   H115  S    
C101  O16   A    
C162  O29   A    
C170  C187  A    
C14   H46   S    
C27   H101  S    
C28   H103  S    
C21   H87   S    
C28   O54   S    
C185  C209  A    
C35   C178  S    
C83   C88   A    
C59   C60   A    
C21   C22   S    
C38   H127  S    
C143  C185  S    
C36   H123  S    
C39   H131  S    
C104  C105  A    
C24   C154  T    
C4    C208  A    
C45   C47   A    
C2    C152  T    
C179  C207  A    
C51   C52   A    
C189  O8    A    
C146  C187  S    
C140  C141  A    
C171  C195  A    
C67   H160  S    
C200  O7    A    
C135  O19   A    
C32   H113  S    
C144  C145  A    
C28   H102  S    
C93   H22   S    
C212  C220  A    
C226  O49   S    
C65   H158  S    
C23   H92   S    
C153  C161  S    
C43   C44   A    
C37   C38   S    
Cu1   O1    S    
Cu3   O36   S    
C26   C27   S    
C231  O54   S    
C134  H56   S    
C34   O58   S    
C30   O55   S    
C87   H18   S    
C41   H136  S    
C8    H1    S    
C17   H76   S    
C79   O11   A    
C98   H27   S    
C111  H38   S    
C56   C62   A    
C172  C196  A    
C54   H149  S    
C37   H125  S    
C226  C231  A    
C75   H8    S    
C198  C214  A    
C91   C92   A    
C203  C229  A    
Cu2   O32   S    
C201  C227  A    
C42   H137  S    
C105  H32   S    
C43   C49   A    
C72   C73   A    
C25   H96   S    
C139  C140  A    
Cu8   O25   S    
C31   H111  S    
Cu11  O8    S    
C151  C222  T    
C8    H73   S    
C3    C207  A    
C130  C131  A    
C183  C212  A    
C32   C33   S    
C37   O59   S    
Cu3   O38   S    
C63   C172  S    
C90   C193  S    
C16   H74   S    
C147  H66   S    
C7    O61   S    
Cu4   O40   S    
C32   H114  S    
C148  C149  A    
C143  C149  A    
Cu2   O31   S    
C98   C99   A    
C211  O6    A    
C89   C176  S    
C67   C69   A    
C18   H79   S    
C3    C228  A    
C165  O37   A    
C184  C193  A    
C158  C165  S    
Cu2   Cu12  S    
Cu8   O7    S    
C137  C142  A    
C164  O36   A    
C82   H14   S    
C189  O2    A    
C160  O33   A    
C147  C148  A    
C26   H98   S    
C128  C129  A    
C97   C98   A    
C13   C156  S    
C53   C54   A    
C94   H23   S    
C53   H148  S    
C66   H159  S    
C132  H54   S    
C199  C215  A    
Cu5   O10   S    
C40   H132  S    
C35   C155  T    
C229  C232  A    
C130  C183  S    
C181  C192  A    
C78   C80   A    
C141  H62   S    
C6    C225  A    
C182  C210  A    
C183  C194  A    
C177  C206  A    
C14   H57   S    
C69   H3    S    
Cu1   O62   S    
C63   C69   A    
C22   H89   S    
C79   O9    A    
C107  C108  A    
C72   H5    S    
C89   C91   A    
C156  O23   A    
C200  O3    A    
C34   H120  S    
C208  C219  A    
C66   C67   A    
Cu1   O16   S    
C29   H105  S    
Cu8   Cu10  S    
C135  O21   A    
C206  C217  A    
C27   H100  S    
C195  C213  A    
C24   C167  S    
C77   H9    S    
C215  C218  A    
C76   C82   A    
C36   H121  S    
C52   H147  S    
C48   H144  S    
C10   H117  S    
C202  C228  A    
C32   O57   S    
C29   H104  S    
C210  C219  A    
C117  C122  A    
C12   H24   S    
C201  C216  A    
C64   H157  S    
C196  C214  A    
C83   C84   A    
C17   C18   S    
C116  H41   S    
C18   H77   S    
C40   H133  S    
C157  C164  S    
C175  C199  A    
C168  O43   A    
C166  O40   A    
C96   C177  S    
Cu2   O35   S    
C205  C231  A    
C12   H13   S    
C46   C189  S    
C146  O25   A    
C120  C121  A    
C169  C197  A    
C120  H44   S    
C54   C55   A    
C37   H124  S    
Cu5   O12   S    
C154  C162  S    
C131  H53   S    
Cu6   O11   S    
C180  C191  A    
C150  C186  S    
C17   O49   S    
C4    C223  A    
C5    C209  A    
Cu7   O13   S    
C42   H140  S    
Cu11  O21   S    
C41   O61   S    
C76   C174  S    
C229  O52   S    
C71   C72   A    
C117  C118  A    
C25   H93   S    
C109  C180  S    
C56   C58   A    
C34   C36   S    
C61   C62   A    
C199  C226  A    
C10   C11   S    
C90   O13   A    
C163  O35   A    
C63   C64   A    
C39   C40   S    
Cu3   O39   S    
C114  H39   S    
C70   C75   A    
C29   H107  S    
C107  H34   S    
C21   H86   S    
C16   H71   S    
C224  O47   S    
C14   H35   S    
C90   O10   A    
C1    O45   A    
C87   C88   A    
C228  O51   S    
Cu12  O29   S    
C41   C42   S    
C84   H15   S    
C11   H139  S    
C185  C194  A    
Cu6   O23   S    
C163  O30   A    
C124  C190  S    
C43   C169  S    
C19   H80   S    
C77   C78   A    
C52   C53   A    
C161  O32   A    
C2    C112  S    
C162  O31   A    
C9    H95   S    
C124  O18   A    
C119  H43   S    
C28   C29   S    
C150  O26   A    
C169  C186  A    
Cu9   O24   S    
C146  O22   A    
C30   C31   S    
C136  H58   S    
C123  C125  A    
Cu12  O28   S    
C172  C187  A    
Cu5   O15   S    
C58   H152  S    
C19   O50   S    
C109  C116  A    
C166  O38   A    
Cu7   O34   S    
C33   H118  S    
Cu3   Cu4   S    
Cu2   O33   S    
C4    O58   S    
C70   C71   A    
C202  C215  A    
C15   H68   S    
C41   H135  S    
C17   H75   S    
C209  C220  A    
C71   H4    S    
C8    O44   S    
C145  C147  A    
C213  C220  A    
C74   H7    S    
C7    C212  A    
Cu4   O41   S    
C42   H138  S    
C206  C232  A    
C203  C216  A    
C84   C85   A    
C221  O44   S    
C86   C87   A    
C23   H91   S    
C58   C59   A    
C85   C86   A    
Cu9   O2    S    
C173  C202  A    
C89   C95   A    
Cu1   Cu6   S    
C33   H116  S    
Cu3   O37   S    
C176  C190  A    
C9    H84   S    
C155  C168  S    
C50   C51   A    
C50   C170  S    
C106  H33   S    
C30   H109  S    
C13   C153  T    
C121  C122  A    
C174  C190  A    
C148  H67   S    
C92   H21   S    
C48   C49   A    
C11   H150  S    
C125  C126  A    
C38   H126  S    
Cu11  O26   S    
C131  C132  A    
C55   H151  S    
C44   C45   A    
Cu10  O22   S    
C16   H72   S    
C207  C218  A    
C30   H108  S    
C171  C186  A    
C124  O20   A    
C11   H2    S    
C150  O24   A    
C122  H47   S    
C180  C204  A    
C119  C120  A    
C20   H83   S    
C149  H69   S    
Cu12  O30   S    
C105  C106  A    
C204  C217  A    
C142  H63   S    
C184  C208  A    
Cu9   O6    S    
C64   C65   A    
Cu6   O14   S    
C195  C221  A    
C168  O39   A    
C109  C110  A    
C7    C224  A    
C164  O42   A    
C92   C93   A    
C12   O47   S    
C230  O53   S    
C111  C114  A    
C103  C179  S    
C94   C95   A    
C118  H42   S    
C196  C223  A    
C138  C139  A    
C3    O57   S    
C145  H65   S    
C45   H142  S    
C26   O53   S    
C22   H90   S    
C103  C104  A    
C31   H112  S    
C60   C61   A    
Cu1   O9    S    
C91   H20   S    
C115  C116  A    
C47   H143  S    
C128  H51   S    
C5    C221  A    
C152  C160  S    
Cu4   O43   S    
C93   C94   A    
Cu7   O17   S    
C80   H11   S    
C83   C175  S    
C5    O59   S    
C101  C192  S    
C81   C82   A    
C178  O64   A    
C167  O56   A    
C27   H99   S    
Cu10  O3    S    
C15   O48   S    
C123  C182  S    
C214  C219  A    
C36   H122  S    
C117  C181  S    
C19   H81   S    
C15   C16   S    
C232  O55   S    
C10   H128  S    
C137  C184  S    
C49   H145  S    
C118  C119  A    
C112  O12   A    
C179  C192  A    
C62   H156  S    
C132  C133  A    
C216  C217  A    
C103  C108  A    
C18   H78   S    
C39   H130  S    
C40   H134  S    
Cu5   Cu7   S    
C86   H17   S    
C198  C225  A    
C126  H49   S    
Cu8   O18   S    
Cu6   O45   S    
C140  H61   S    
C85   H16   S    
C123  C129  A    
C26   H97   S    
C20   H85   S    
C95   H25   S    
C223  O46   S    
C113  C191  S    
C205  C218  A    
C74   C75   A    
C78   H10   S    
C47   C48   A    
C76   C77   A    
C59   H153  S    
C211  O4    A    
C182  C193  A    
C8    C9    S    
C134  C136  A    
C129  H52   S    
Cu12  O27   S    
C46   C157  T    
C9    H106  S    
C1    C222  S    
Cu5   O56   S    
C102  H30   S    
Cu9   Cu11  S    
Cu9   O19   S    
C181  C205  A    
Cu10  O20   S    
C99   C100  A    
C22   H88   S    
C96   C97   A    
C100  C102  A    
C133  H55   S    
C144  H64   S    
C104  H31   S    
C139  H60   S    
C127  H50   S    
C34   H119  S    
C101  O14   A    
C12   C14   S    
C151  C163  S    
C10   O46   S    
C57   C200  S    
C51   H146  S    
C68   C159  T    
C135  C188  S    
C170  C198  A    
C227  O50   S    
C73   H6    S    
C31   H110  S    
C60   H154  S    
C38   H129  S    
C176  C201  A    
C61   H155  S    
C130  C136  A    
C80   C81   A    
C165  O41   A    
C1    O1    A    
C6    C210  A    
C115  H40   S    
C137  C138  A    
C6    O60   S    
C50   C55   A    
C159  C166  S    
C100  H29   S    
C121  H45   S    
C160  O27   A    
C56   C171  S    
C141  C142  A    
C113  O17   A    
C20   H82   S    
C133  C134  A    
C21   O51   S    
Cu8   O64   S    
C225  O48   S    
C174  C203  A    
Cu7   O63   S    
C23   C25   S    
C81   H12   S    
C204  C230  A    
C70   C173  S    
C125  H48   S    
C178  O5    A    
C156  O62   A    
C167  O34   A    
C112  O63   A    
C227  C230  A    
C65   C66   A    
C161  O28   A    
C44   H141  S    
C108  H36   S    
C68   C211  S    
C23   O52   S    
C127  C128  A    
C88   H19   S    
