data_mof_unit_53126.cif
_audit_creation_date              2012-12-11T15:52:28-0500
_audit_creation_method            fapswitch 2.2
_symmetry_space_group_name_H-M    P1
_symmetry_Int_Tables_number       1
_space_group_crystal_system       triclinic
_cell_length_a                    6.922563
_cell_length_b                    14.602424
_cell_length_c                    15.99672
_cell_angle_alpha                 90.248202
_cell_angle_beta                  90.041314
_cell_angle_gamma                 89.975096
_cell_volume                      1617.0318953

loop_
_atom_site_label
_atom_site_type_symbol
_atom_type_description
_atom_site_fract_x
_atom_site_fract_y
_atom_site_fract_z
_atom_type_partial_charge
O1    O     O_R   0.494400 0.415640 0.412830 -0.547564
O2    O     O_R   0.823920 0.405510 0.586560 -0.519760
O3    O     O_R   0.994250 0.584360 0.587170 -0.532857
C1    C     C_R   0.654908 0.383319 0.615605 0.797612
O4    O     O_R   0.824110 0.404610 0.413450 -0.548093
O5    O     O_R   0.994440 0.583460 0.412820 -0.546099
C2    C     C_R   0.655000 0.382132 0.384348 0.662092
O6    O     O_R   0.494210 0.416540 0.587180 -0.528144
O7    O     O_3   0.660810 0.558680 0.500000 -0.372939
V1    V     V_3+5 0.935650 0.489110 0.500000 1.459279
O8    O     O_R   0.324150 0.594490 0.413440 -0.549228
C3    C     C_R   0.155031 0.616622 0.384300 0.664315
O9    O     O_R   0.323970 0.595390 0.586550 -0.522141
C4    C     C_R   0.155124 0.617614 0.615709 0.752628
V2    V     V_3+5 0.435660 0.510890 0.500000 1.454860
O10   O     O_3   0.160630 0.441320 0.500000 -0.369026
C5    C     C_3   0.198523 0.641713 0.772726 0.192384
H1    H     H_    0.091628 0.586684 0.784425 0.142746
C6    C     C_3   0.179307 0.712710 0.846144 0.042976
H2    H     H_    0.057210 0.689233 0.886152 0.110778
H3    H     H_    0.832373 0.671299 0.707720 0.202105
H4    H     H_    0.811845 0.776853 0.811739 0.163056
C7    C     C_3   0.937528 0.727168 0.695176 -0.381258
C8    C     C_3   0.284780 0.768457 0.671867 -0.320636
C9    C     C_3   0.145548 0.686894 0.687240 -0.015714
H5    H     H_    0.248784 0.801689 0.611346 0.125604
H6    H     H_    0.436483 0.743928 0.666991 0.177837
C10   C     C_3   0.123036 0.809513 0.811462 0.031305
C11   C     C_3   0.924753 0.798745 0.766537 -0.376034
C12   C     C_3   0.270516 0.840049 0.743409 -0.314557
H7    H     H_    0.416282 0.851638 0.770466 0.139265
H8    H     H_    0.224306 0.906938 0.716922 0.132447
H9    H     H_    0.894117 0.759742 0.635246 0.153195
H10   H     H_    0.877714 0.865740 0.740525 0.151237
C13   C     C_R   0.953184 0.773850 0.215854 -0.150103
H11   H     H_    0.812242 0.792354 0.191875 0.117402
C14   C     C_R   0.964138 0.710743 0.281445 -0.149540
H12   H     H_    0.831124 0.682439 0.305765 0.117397
C15   C     C_R   0.143909 0.684506 0.315027 -0.043197
C16   C     C_R   0.312422 0.723131 0.281000 -0.152713
H13   H     H_    0.453364 0.704621 0.304974 0.114790
C17   C     C_R   0.301469 0.786228 0.215398 -0.147583
H14   H     H_    0.434481 0.814510 0.191055 0.118167
C18   C     C_R   0.121683 0.812547 0.181889 -0.046074
C19   C     C_R   0.786918 0.313125 0.748448 0.218770
C20   C     C_R   0.776440 0.248166 0.813474 0.166240
C21   C     C_R   0.622796 0.184925 0.816093 -0.142728
C22   C     C_R   0.481230 0.187305 0.753722 -0.181893
H15   H     H_    0.363838 0.138190 0.754717 0.143446
C23   C     C_R   0.490903 0.250114 0.688119 0.194227
C24   C     C_R   0.644316 0.314825 0.684601 -0.162979
C25   C     C_R   0.812295 0.274441 0.281093 -0.152082
H16   H     H_    0.953265 0.293208 0.304980 0.115989
C26   C     C_R   0.801270 0.210645 0.215544 -0.144772
H17   H     H_    0.934285 0.182114 0.191168 0.119832
C27   C     C_R   0.621454 0.183991 0.182093 -0.046032
C28   C     C_R   0.452980 0.223002 0.216157 -0.149367
H18   H     H_    0.312016 0.204234 0.192266 0.118554
C29   C     C_R   0.464006 0.286801 0.281711 -0.148198
H19   H     H_    0.330999 0.315335 0.306092 0.118164
C30   C     C_R   0.643827 0.313450 0.315162 -0.041820
O11   O     O_R   0.771300 0.080930 0.910090 -0.517721
O12   O     O_R   0.441270 0.092800 0.083770 -0.543558
O13   O     O_R   0.271080 0.913920 0.084380 -0.544053
C31   C     C_R   0.610341 0.115301 0.112909 0.693713
O14   O     O_R   0.441580 0.091910 0.910670 -0.547157
O15   O     O_R   0.271390 0.913020 0.910040 -0.546177
C32   C     C_R   0.610866 0.114934 0.882802 0.755669
O16   O     O_R   0.770990 0.081830 0.084440 -0.538431
O17   O     O_3   0.604750 0.938760 0.997250 -0.377316
V3    V     V_3+5 0.329850 0.008280 0.997210 1.410751
O18   O     O_R   0.941680 0.901940 0.910610 -0.546234
C33   C     C_R   0.110632 0.880375 0.881180 0.667052
O19   O     O_R   0.941370 0.902830 0.083720 -0.543962
C34   C     C_R   0.110516 0.880605 0.112773 0.676510
V4    V     V_3+5 0.829860 0.986420 0.997150 1.420126
O20   O     O_3   0.104830 0.056030 0.997180 -0.355264
Br1   Br    Br    0.994612 0.401101 0.752016 -0.565778
N1    N     N_3   0.919005 0.247630 0.878691 -0.630671
H20   H     H_    0.917795 0.311248 0.908901 0.265820
H21   H     H_    0.054925 0.237141 0.851822 0.261080
Br2   Br    Br    0.449010 0.578012 0.770348 -0.523304
N2    N     N_3   0.346296 0.243436 0.624182 -0.660552
H22   H     H_    0.258838 0.301647 0.626342 0.288545
H23   H     H_    0.413937 0.239093 0.565877 0.209065
N3    N     N_3   0.351891 0.713880 0.899734 -0.598299
H24   H     H_    0.318576 0.744838 0.956997 0.221764
H25   H     H_    0.463460 0.750894 0.871976 0.252814

loop_
_geom_bond_atom_site_label_1
_geom_bond_atom_site_label_2
_ccdc_geom_bond_type
O14   C32   A    
O12   C31   A    
H4    C11   S    
C6    H2    S    
C8    H6    S    
O18   V4    S    
C6    N3    S    
C19   C20   A    
O19   V4    S    
C7    C11   S    
C10   C11   S    
C13   C14   A    
C8    H5    S    
C22   C23   A    
C25   C30   A    
O5    C3    A    
C12   H7    S    
N3    H25   S    
C28   C29   A    
C19   C24   A    
C27   C31   S    
C27   C28   A    
O16   V4    S    
C5    Br2   S    
O13   V3    S    
C2    C30   S    
C20   C21   A    
O8    V2    S    
N2    H22   S    
C7    H9    S    
O17   V3    S    
O15   C33   A    
O7    V1    S    
C1    O6    A    
C16   C17   A    
C29   H19   S    
O9    C4    A    
O11   V4    S    
C17   C18   A    
C10   C33   S    
C25   C26   A    
C23   N2    S    
C23   C24   A    
C26   C27   A    
C29   C30   A    
O19   C34   A    
C1    C24   S    
C21   C22   A    
C8    C9    S    
C15   C16   A    
N1    H21   S    
N3    H24   S    
C11   H10   S    
C13   H11   S    
C18   C34   S    
O2    C1    A    
C14   H12   S    
C6    C10   S    
O14   V3    S    
C5    H1    S    
V4    O20   S    
C13   C18   A    
C19   Br1   S    
O3    C4    A    
O1    V2    S    
C16   H13   S    
N2    H23   S    
O12   V3    S    
O6    V2    S    
H3    C7    S    
O17   V4    S    
C17   H14   S    
O2    V1    S    
C21   C32   S    
V3    O20   S    
C25   H16   S    
O4    C2    A    
C26   H17   S    
C22   H15   S    
O1    C2    A    
O18   C33   A    
O5    V1    S    
O8    C3    A    
O11   C32   A    
C5    C9    S    
C3    C15   S    
O9    V2    S    
O7    V2    S    
O4    V1    S    
C14   C15   A    
O3    V1    S    
V1    O10   S    
C12   H8    S    
C28   H18   S    
C20   N1    S    
C31   O16   A    
C10   C12   S    
C5    C6    S    
O13   C34   A    
O15   V3    S    
C7    C9    S    
C4    C9    S    
C8    C12   S    
N1    H20   S    
V2    O10   S    
