data_mof_unit_10435.cif
_audit_creation_date              2012-12-11T15:57:50-0500
_audit_creation_method            fapswitch 2.2
_symmetry_space_group_name_H-M    P1
_symmetry_Int_Tables_number       1
_space_group_crystal_system       triclinic
_cell_length_a                    10.685167
_cell_length_b                    10.791933
_cell_length_c                    17.106443
_cell_angle_alpha                 100.713611
_cell_angle_beta                  99.402634
_cell_angle_gamma                 61.270754
_cell_volume                      1693.34480594

loop_
_atom_site_label
_atom_site_type_symbol
_atom_type_description
_atom_site_fract_x
_atom_site_fract_y
_atom_site_fract_z
_atom_type_partial_charge
C1    C     C_R   0.390167 0.695659 0.390960 0.560957
C2    C     C_2   0.320183 0.310144 0.813407 -0.064257
C3    C     C_2   0.362163 0.196101 0.757243 -0.105182
C4    C     C_R   0.406295 0.372007 0.355864 0.535039
C5    C     C_2   0.387402 0.203881 0.678214 -0.068805
C6    C     C_1   0.816853 0.343072 0.708926 -0.006359
C7    C     C_1   0.844915 0.312468 0.775877 -0.025722
C8    C     C_1   0.358804 0.762483 0.712981 -0.038610
C9    C     C_1   0.326500 0.809959 0.780098 -0.036415
C10   C     C_R   0.967400 0.282205 0.097500 0.542248
C11   C     C_R   0.320566 0.301991 0.119411 0.544912
C12   C     C_2   0.950717 0.301251 0.182766 0.154402
C13   C     C_R   0.288590 0.895924 0.085252 0.537744
C14   C     C_R   0.887092 0.295753 0.858099 0.552768
C15   C     C_R   0.305920 0.288302 0.891320 0.530177
C16   C     C_R   0.785157 0.371045 0.410128 0.536483
C17   C     C_R   0.280985 0.880238 0.857099 0.544926
C18   C     C_R   0.381530 0.713138 0.630751 0.551004
C19   C     C_R   0.364064 0.346197 0.579472 0.567110
C20   C     C_R   0.771556 0.382418 0.630164 0.560258
C21   C     C_1   0.374015 0.357486 0.272108 0.091822
C22   C     C_1   0.346970 0.340996 0.201597 0.110243
C23   C     C_2   0.925411 0.207304 0.210880 -0.110121
C24   C     C_2   0.888975 0.299989 0.351963 0.025892
C25   C     C_2   0.853409 0.239796 0.282807 -0.097155
C26   C     C_2   0.409191 0.715181 0.314087 0.284839
C27   C     C_2   0.306605 0.848336 0.162663 0.137746
C28   C     C_2   0.405974 0.855136 0.221067 0.216051
C29   C     C_2   0.389924 0.842595 0.300793 0.294133
C30   C     C_2   0.302435 0.316764 0.639578 0.246208
Cr1   Cr    Cr6+3 0.608020 0.610770 0.522990 1.090783
Cr2   Cr    Cr6+3 0.289390 0.599570 0.488050 1.115751
Cr3   Cr    Cr6+3 0.602610 0.289690 0.489020 1.054302
Cr4   Cr    Cr6+3 0.053780 0.052210 0.965970 1.078402
Cr5   Cr    Cr6+3 0.060060 0.372530 0.992430 1.122937
Cr6   Cr    Cr6+3 0.372600 0.061970 0.991430 1.108251
H1    H     H_    0.923646 0.117981 0.170649 0.198080
H2    H     H_    0.529841 0.993844 0.415468 0.378359
H3    H     H_    0.269960 0.594771 0.129420 0.338430
H4    H     H_    0.513908 0.510189 0.285979 0.278330
H5    H     H_    0.488242 0.121087 0.656384 0.135401
H6    H     H_    0.290440 0.416372 0.800936 0.141304
H7    H     H_    0.757149 0.226735 0.275196 0.139467
H8    H     H_    0.987947 0.306089 0.363825 0.218060
H9    H     H_    0.392844 0.090626 0.771664 0.149147
H10   H     H_    0.116650 0.483408 0.626137 0.347128
H11   H     H_    0.720899 0.561826 0.242969 0.385897
H12   H     H_    0.752624 0.849000 0.281587 0.405707
O1    O     O_R   0.749250 0.499990 0.439200 -0.462439
O2    O     O_R   0.411120 0.181190 0.091480 -0.460408
O3    O     O_R   0.364220 0.944920 0.062310 -0.444560
O4    O     O_R   0.477870 0.725740 0.440280 -0.452837
O5    O     O_R   0.158740 0.906940 0.874970 -0.496815
O6    O     O_R   0.930920 0.176940 0.885610 -0.489109
O7    O     O_R   0.910730 0.394510 0.895320 -0.493723
O8    O     O_R   0.185840 0.361180 0.920280 -0.488149
O9    O     O_R   0.399210 0.173040 0.915160 -0.516719
O10   O     O_R   0.353170 0.937370 0.898860 -0.499223
O11   O     O_3   0.162150 0.162240 0.983280 -0.315719
O12   O     O_R   0.299400 0.468710 0.556310 -0.522753
O13   O     O_R   0.260770 0.742210 0.412610 -0.419297
O14   O     O_R   0.297990 0.466320 0.394220 -0.440839
O15   O     O_R   0.487720 0.253870 0.385870 -0.456621
O16   O     O_R   0.721940 0.304340 0.422320 -0.528847
O17   O     O_R   0.750770 0.502570 0.614050 -0.500425
O18   O     O_R   0.479280 0.728140 0.602370 -0.472994
O19   O     O_R   0.262290 0.744790 0.587460 -0.481977
O20   O     O_3   0.166165 0.409636 0.662840 -0.701534
O21   O     O_2   0.074349 0.419020 0.303164 -0.246714
O22   O     O_2   0.957436 0.557128 0.192768 -0.163702
O23   O     O_R   0.489240 0.256450 0.560730 -0.509976
O24   O     O_3   0.796799 0.550673 0.286911 -0.469645
O25   O     O_2   0.628446 0.785527 0.136838 -0.241189
O26   O     O_2   0.509434 0.029180 0.205413 -0.269724
O27   O     O_3   0.674118 0.831014 0.291170 -0.489863
O28   O     O_2   0.281022 0.127912 0.326947 -0.267377
O29   O     O_2   0.198601 0.021158 0.407353 -0.224752
O30   O     O_3   0.454754 0.993768 0.442508 -0.471792
O31   O     O_2   0.110280 0.883645 0.263884 -0.238091
O32   O     O_2   0.034435 0.855952 0.123908 -0.240252
O33   O     O_3   0.230160 0.635648 0.181994 -0.470351
O34   O     O_R   0.723350 0.306730 0.584410 -0.499798
O35   O     O_3   0.477930 0.596831 0.259631 -0.751944
O36   O     O_3   0.500010 0.500010 0.500020 -0.366506
O37   O     O_R   0.170650 0.915100 0.051290 -0.480862
O38   O     O_R   0.941960 0.184500 0.049060 -0.513460
O39   O     O_R   0.922640 0.402670 0.071640 -0.432777
O40   O     O_R   0.196880 0.368740 0.083740 -0.485591
S1    S     S_3+6 0.948869 0.459418 0.241520 0.055483
S2    S     S_3+6 0.556662 0.876056 0.210294 0.051690
S3    S     S_3+6 0.325531 0.001559 0.369770 0.081068
S4    S     S_3+6 0.163766 0.811364 0.183483 0.033037

loop_
_geom_bond_atom_site_label_1
_geom_bond_atom_site_label_2
_ccdc_geom_bond_type
Cr1   O18   S    
C26   O35   S    
O24   S1    S    
C20   O34   A    
C19   O23   A    
H4    O35   S    
Cr1   O4    S    
Cr6   O11   S    
C25   H7    S    
C4    O15   A    
C28   C29   S    
O25   S2    D    
Cr6   O10   S    
C4    O14   A    
Cr5   O11   S    
Cr4   O38   S    
O27   S2    S    
C13   O3    A    
O33   S4    S    
Cr5   O39   S    
C7    C14   S    
C10   O38   A    
C8    C9    T    
Cr3   O34   S    
C17   O10   A    
C14   O7    A    
C16   C24   S    
C21   C22   T    
C15   O9    A    
H12   O27   S    
Cr1   O1    S    
O21   S1    D    
C1    O4    A    
Cr2   O36   S    
C10   O39   A    
Cr5   O7    S    
C20   O17   A    
C24   C25   D    
H3    O33   S    
Cr6   O9    S    
H2    O30   S    
C18   O19   A    
C23   H1    S    
C3    H9    S    
C8    C18   S    
Cr1   O36   S    
Cr4   O37   S    
O32   S4    D    
H10   O20   S    
Cr5   O40   S    
C12   S1    S    
C12   C23   D    
C11   O40   A    
Cr3   O15   S    
C27   S4    S    
C16   O1    A    
C2    C15   S    
O31   S4    D    
Cr6   O3    S    
C10   C12   S    
C26   C29   D    
Cr2   O19   S    
C9    C17   S    
C14   O6    A    
Cr4   O6    S    
C1    C26   S    
C24   H8    S    
O22   S1    D    
Cr2   O12   S    
C17   O5    A    
C29   S3    S    
Cr6   O2    S    
C5    C30   D    
Cr1   O17   S    
C5    H5    S    
O29   S3    D    
Cr5   O8    S    
C3    C5    S    
C1    O13   A    
Cr2   O13   S    
C6    C7    T    
O30   S3    S    
C18   O18   A    
C6    C20   S    
C11   C22   S    
C15   O8    A    
O26   S2    D    
C2    C3    D    
Cr2   O14   S    
C11   O2    A    
C4    C21   S    
Cr4   O11   S    
C2    H6    S    
Cr3   O16   S    
C23   C25   S    
Cr3   O36   S    
H11   O24   S    
Cr3   O23   S    
O28   S3    D    
Cr4   O5    S    
C13   O37   A    
C27   C28   D    
C13   C27   S    
C19   O12   A    
C28   S2    S    
C16   O16   A    
C19   C30   S    
C30   O20   S    
