data_mof_unit_59819.cif
_audit_creation_date              2012-12-10T21:00:35-0500
_audit_creation_method            fapswitch 2.2
_symmetry_space_group_name_H-M    P1
_symmetry_Int_Tables_number       1
_space_group_crystal_system       triclinic
_cell_length_a                    18.069686
_cell_length_b                    18.147299
_cell_length_c                    18.323689
_cell_angle_alpha                 119.929214
_cell_angle_beta                  90.108817
_cell_angle_gamma                 119.700652
_cell_volume                      4268.40152591

loop_
_atom_site_label
_atom_site_type_symbol
_atom_type_description
_atom_site_fract_x
_atom_site_fract_y
_atom_site_fract_z
_atom_type_partial_charge
C1    C     C_R   0.111086 0.220029 0.609808 0.799039
C2    C     C_3   0.449636 0.896801 0.946732 -0.095843
C3    C     C_R   0.299459 0.959891 0.880179 -0.137779
C4    C     C_R   0.230815 0.923975 0.810528 -0.117106
C5    C     C_R   0.219704 0.855806 0.722072 -0.086293
C6    C     C_R   0.277492 0.823717 0.702982 -0.134209
C7    C     C_R   0.346814 0.860292 0.772431 -0.122311
C8    C     C_R   0.642066 0.071846 0.138377 0.159128
C9    C     C_R   0.700483 0.040014 0.119811 -0.137868
C10   C     C_R   0.769127 0.075924 0.189456 -0.117068
C11   C     C_R   0.780301 0.144173 0.277912 -0.086242
C12   C     C_R   0.722568 0.176344 0.297009 -0.134236
C13   C     C_3   0.448542 0.033080 0.037473 -0.244109
C14   C     C_R   0.653241 0.139771 0.227567 -0.122213
C15   C     C_3   0.551458 0.966920 0.962528 -0.244148
C16   C     C_3   0.450037 0.405859 0.484636 -0.177129
C17   C     C_3   0.549964 0.594145 0.515365 -0.177157
C18   C     C_3   0.554428 0.476782 0.518053 -0.194783
C19   C     C_3   0.445573 0.523222 0.481950 -0.194796
C20   C     C_3   0.550035 0.499498 0.448653 0.062481
C21   C     C_3   0.449966 0.500505 0.551348 0.062488
C22   C     C_3   0.446439 0.428462 0.414255 -0.125094
C23   C     C_R   0.888911 0.779970 0.390192 0.799032
C24   C     C_3   0.553561 0.571542 0.585747 -0.125094
C25   C     C_R   0.175727 0.184498 0.827680 -0.146639
C26   C     C_R   0.824204 0.815508 0.172349 -0.146667
C27   C     C_R   0.392666 0.780973 0.888112 0.819343
C28   C     C_R   0.607334 0.219027 0.111888 0.819330
C29   C     C_R   0.146972 0.133858 0.734836 0.016516
C30   C     C_R   0.852974 0.866131 0.265190 0.016503
C31   C     C_R   0.059764 0.099417 0.690950 -0.040963
C32   C     C_R   0.940195 0.900583 0.309054 -0.040957
C33   C     C_R   0.003065 0.115942 0.741983 -0.000165
C34   C     C_3   0.976654 0.423520 0.414491 -0.111358
C35   C     C_R   0.996887 0.884077 0.258003 -0.000169
C36   C     C_R   0.034628 0.165678 0.834577 -0.155700
C37   C     C_R   0.965306 0.834355 0.165414 -0.155703
C38   C     C_R   0.120024 0.199886 0.876780 -0.170200
C39   C     C_R   0.879901 0.800144 0.123233 -0.170235
C40   C     C_R   0.975189 0.943745 0.537204 -0.137976
C41   C     C_R   0.024797 0.056255 0.462797 -0.138007
C42   C     C_R   0.945041 0.892308 0.444710 -0.009234
C43   C     C_R   0.054949 0.107692 0.555290 -0.009268
C44   C     C_R   0.969990 0.949213 0.406758 0.094077
C45   C     C_3   0.023344 0.576478 0.585509 -0.111328
C46   C     C_R   0.029993 0.050786 0.593243 0.094031
C47   C     C_R   0.559804 0.463947 0.713469 -0.129156
C48   C     C_R   0.440293 0.536112 0.286585 -0.129188
C49   C     C_R   0.522030 0.453636 0.777128 -0.116154
C50   C     C_R   0.478054 0.546376 0.222905 -0.115991
C51   C     C_R   0.111065 0.501113 0.889933 0.809963
C52   C     C_R   0.888934 0.498886 0.110065 0.809966
C53   C     C_R   0.570153 0.531702 0.868590 0.143047
C54   C     C_R   0.429862 0.468355 0.131448 0.143032
C55   C     C_R   0.656339 0.620020 0.895115 -0.151595
C56   C     C_3   0.432509 0.966626 0.935932 -0.026759
C57   C     C_R   0.343614 0.380132 0.104953 -0.151698
C58   C     C_R   0.693952 0.629789 0.831295 -0.112488
C59   C     C_R   0.306010 0.370416 0.168795 -0.112376
C60   C     C_R   0.645965 0.551587 0.740611 -0.095650
C61   C     C_R   0.354072 0.448571 0.259473 -0.095694
C62   C     C_R   0.584644 0.521248 0.995828 -0.223764
C63   C     C_R   0.415361 0.478775 0.004187 -0.223743
C64   C     C_R   0.551355 0.502659 0.057871 -0.019736
C65   C     C_R   0.448648 0.497355 0.942140 -0.019733
C66   C     C_R   0.466231 0.481877 0.063243 -0.005140
C67   C     C_3   0.567491 0.033374 0.064069 -0.026763
C68   C     C_R   0.533774 0.518148 0.936776 -0.005216
C69   C     C_R   0.167545 0.820335 0.992302 -0.115918
C70   C     C_R   0.832419 0.179690 0.007744 -0.115908
C71   C     C_R   0.142054 0.745879 0.009606 -0.055308
C72   C     C_R   0.857922 0.254130 0.990415 -0.055314
C73   C     C_R   0.057064 0.650876 0.959605 0.094597
C74   C     C_R   0.942927 0.349116 0.040389 0.094563
C75   C     C_R   0.392539 0.500064 0.607892 0.769360
C76   C     C_R   0.607461 0.499937 0.392108 0.769338
C77   C     C_R   0.997532 0.631248 0.892617 -0.202411
C78   C     C_3   0.533855 0.037272 0.952443 -0.011955
C79   C     C_R   0.002464 0.368739 0.107369 -0.202452
C80   C     C_R   0.022713 0.705849 0.874809 0.031799
C81   C     C_R   0.977270 0.294156 0.125202 0.031814
C82   C     C_R   0.108238 0.800785 0.925638 -0.187616
C83   C     C_R   0.891728 0.199240 0.074405 -0.187579
C84   C     C_R   0.974140 0.568220 0.031113 -0.232873
C85   C     C_R   0.025853 0.431771 0.968880 -0.232883
C86   C     C_R   0.944878 0.496986 0.053081 -0.058664
C87   C     C_R   0.055115 0.503007 0.946913 -0.058654
C88   C     C_R   0.970881 0.427457 0.021233 0.002900
C89   C     C_3   0.466146 0.962728 0.047559 -0.011959
C90   C     C_R   0.029110 0.572532 0.978758 0.002877
C91   C     C_R   0.393694 0.498259 0.887019 0.813818
C92   C     C_R   0.606306 0.501742 0.112981 0.813766
C93   C     C_R   0.109226 0.500639 0.607907 0.782734
C94   C     C_R   0.890773 0.499360 0.392093 0.782726
C95   C     C_3   0.074494 0.516375 0.477232 -0.158239
C96   C     C_3   0.925503 0.483623 0.522767 -0.158245
C97   C     C_3   0.045334 0.591548 0.510435 -0.190541
C98   C     C_3   0.954664 0.408450 0.489565 -0.190540
C99   C     C_3   0.948381 0.498768 0.448582 0.036591
C100  C     C_3   0.550364 0.103199 0.053269 -0.095842
C101  C     C_3   0.051617 0.501230 0.551418 0.036627
C102  C     C_2   0.211010 0.121032 0.687106 0.867739
C103  C     C_2   0.788932 0.878916 0.312933 0.867718
C104  C     C_2   0.911721 0.085068 0.702567 0.881720
C105  C     C_2   0.088240 0.914954 0.297393 0.881710
C106  C     C_2   0.959789 0.684471 0.803515 0.863613
C107  C     C_2   0.040195 0.315536 0.196498 0.863527
C108  C     C_2   0.571497 0.079695 0.899135 0.879760
C109  C     C_2   0.428504 0.920305 0.100867 0.879809
C110  C     C_R   0.357934 0.928144 0.861620 0.159154
H1    H     H_    0.081364 0.666141 0.517177 0.139581
H2    H     H_    0.043330 0.099234 0.433266 0.157565
H3    H     H_    0.675862 0.559001 0.691539 0.121899
H4    H     H_    0.324186 0.441196 0.308562 0.121893
H5    H     H_    0.522697 0.403435 0.643141 0.127083
H6    H     H_    0.477457 0.596589 0.356909 0.127076
H7    H     H_    0.456108 0.384270 0.755264 0.128371
H8    H     H_    0.544022 0.615677 0.244753 0.128299
H9    H     H_    0.694543 0.680869 0.965214 0.119845
H10   H     H_    0.305348 0.319319 0.034860 0.119835
H11   H     H_    0.136633 0.530005 0.459585 0.145502
H12   H     H_    0.918633 0.333856 0.482821 0.139583
H13   H     H_    0.863364 0.469993 0.540414 0.145513
H14   H     H_    0.760625 0.697610 0.852159 0.144731
H15   H     H_    0.239287 0.302677 0.147953 0.144790
H16   H     H_    0.649504 0.534641 0.991197 0.164157
H17   H     H_    0.350504 0.465392 0.008821 0.164130
H18   H     H_    0.129093 0.860095 0.914144 0.164439
H19   H     H_    0.870861 0.139945 0.085922 0.164469
H20   H     H_    0.233227 0.893580 0.030794 0.171714
H21   H     H_    0.766724 0.106461 0.969276 0.171704
H22   H     H_    0.188285 0.761969 0.061741 0.144753
H23   H     H_    0.143259 0.238884 0.948282 0.140035
H24   H     H_    0.811686 0.238044 0.938288 0.144755
H25   H     H_    0.931846 0.557752 0.854630 0.179750
H26   H     H_    0.068160 0.442223 0.145336 0.179762
H27   H     H_    0.954828 0.622000 0.055366 0.175067
H28   H     H_    0.045165 0.377993 0.944627 0.175046
H29   H     H_    0.956336 0.360584 0.343499 0.172876
H30   H     H_    0.043659 0.639413 0.656501 0.172817
H31   H     H_    0.407700 0.061038 0.070258 0.172730
H32   H     H_    0.592301 0.938964 0.929744 0.172728
H33   H     H_    0.599820 0.456975 0.530773 0.128543
H34   H     H_    0.856653 0.761157 0.051735 0.140062
H35   H     H_    0.400183 0.543036 0.469239 0.128539
H36   H     H_    0.408148 0.328792 0.473288 0.143845
H37   H     H_    0.591853 0.671212 0.526714 0.143841
H38   H     H_    0.403454 0.369193 0.343014 0.155111
H39   H     H_    0.596545 0.630816 0.656988 0.155092
H40   H     H_    0.340268 0.169367 0.695591 0.349197
H41   H     H_    0.659674 0.830550 0.304463 0.349201
H42   H     H_    0.794171 0.064310 0.720019 0.352070
H43   H     H_    0.205771 0.935684 0.279894 0.352069
H44   H     H_    0.838956 0.583753 0.705935 0.336217
H45   H     H_    0.241747 0.211960 0.862753 0.170477
H46   H     H_    0.161058 0.416230 0.294031 0.336207
H47   H     H_    0.645060 0.085696 0.817182 0.343297
H48   H     H_    0.354934 0.914297 0.182813 0.343288
H49   H     H_    0.306775 0.012603 0.948156 0.121177
H50   H     H_    0.186072 0.948877 0.825170 0.151003
H51   H     H_    0.166454 0.828200 0.668454 0.136863
H52   H     H_    0.268728 0.770759 0.634383 0.127125
H53   H     H_    0.391543 0.835398 0.756785 0.111422
H54   H     H_    0.693117 0.987238 0.051834 0.121225
H55   H     H_    0.813824 0.050955 0.174809 0.150966
H56   H     H_    0.758176 0.788039 0.137293 0.170498
H57   H     H_    0.833555 0.171778 0.331526 0.136864
H58   H     H_    0.731380 0.229365 0.365609 0.127103
H59   H     H_    0.608556 0.164728 0.243220 0.111360
H60   H     H_    0.993639 0.179980 0.875358 0.178346
H61   H     H_    0.006288 0.820068 0.124619 0.178373
H62   H     H_    0.956653 0.900766 0.566735 0.157574
O1    O     O_3   0.251620 0.500000 0.748430 -0.489891
O2    O     O_R   0.570330 0.268390 0.136490 -0.627543
O3    O     O_R   0.134680 0.268390 0.572240 -0.644299
O4    O     O_R   0.865320 0.731610 0.427760 -0.644299
O5    O     O_R   0.306670 0.731630 0.863510 -0.640034
O6    O     O_R   0.693330 0.268370 0.136490 -0.640045
O7    O     O_R   0.135450 0.439270 0.865360 -0.645028
O8    O     O_R   0.864550 0.560730 0.134640 -0.645023
O9    O     O_R   0.429670 0.560710 0.692610 -0.644792
O10   O     O_R   0.570330 0.439290 0.307390 -0.644798
O11   O     O_R   0.308540 0.439240 0.865360 -0.643341
O12   O     O_3   0.748380 0.500000 0.251570 -0.489888
O13   O     O_R   0.691460 0.560760 0.134640 -0.643347
O14   O     O_R   0.133580 0.439310 0.571150 -0.636396
O15   O     O_R   0.866420 0.560690 0.428850 -0.636393
O16   O     O_R   0.430770 0.560690 0.864590 -0.631893
O17   O     O_R   0.569230 0.439310 0.135410 -0.631893
O18   O     O_R   0.133580 0.560760 0.692610 -0.642370
O19   O     O_R   0.866420 0.439240 0.307390 -0.642374
O20   O     O_2   0.183880 0.054334 0.607059 -0.604943
O21   O     O_R   0.303370 0.185114 0.734795 -0.821476
O22   O     O_2   0.816054 0.945559 0.392992 -0.604909
O23   O     O_R   0.134680 0.560740 0.864590 -0.635031
O24   O     O_R   0.696576 0.814853 0.265246 -0.821504
O25   O     O_2   0.886986 0.060610 0.627187 -0.603352
O26   O     O_R   0.853818 0.085748 0.753165 -0.819829
O27   O     O_2   0.113007 0.939445 0.372782 -0.603401
O28   O     O_R   0.146116 0.914241 0.246763 -0.819848
O29   O     O_2   0.981413 0.749883 0.788732 -0.653864
O30   O     O_R   0.875466 0.589144 0.752657 -0.823137
O31   O     O_2   0.018535 0.250161 0.211341 -0.653860
O32   O     O_R   0.124558 0.410826 0.247291 -0.823164
O33   O     O_2   0.555853 0.137417 0.897973 -0.624620
O34   O     O_R   0.865320 0.439260 0.135410 -0.635028
O35   O     O_R   0.623604 0.052367 0.850554 -0.831356
O36   O     O_2   0.444152 0.862588 0.102033 -0.624626
O37   O     O_R   0.376390 0.947626 0.149440 -0.831364
O38   O     O_R   0.306670 0.439270 0.571150 -0.640840
O39   O     O_R   0.693330 0.560730 0.428850 -0.640840
O40   O     O_R   0.135450 0.268370 0.694460 -0.645729
O41   O     O_R   0.864550 0.731630 0.305540 -0.645737
O42   O     O_R   0.429670 0.731610 0.863510 -0.627559
Zn1   Zn    Zn3+2 0.207400 0.586780 0.791530 0.990730
Zn2   Zn    Zn3+2 0.792600 0.413220 0.208470 0.990718
Zn3   Zn    Zn3+2 0.208510 0.413230 0.792630 0.988821
Zn4   Zn    Zn3+2 0.791490 0.586770 0.207370 0.988813
Zn5   Zn    Zn3+2 0.383150 0.586740 0.791530 0.991137
Zn6   Zn    Zn3+2 0.616850 0.413260 0.208470 0.991130
Zn7   Zn    Zn3+2 0.207400 0.413250 0.618010 0.977210
Zn8   Zn    Zn3+2 0.792600 0.586750 0.381990 0.977201

loop_
_geom_bond_atom_site_label_1
_geom_bond_atom_site_label_2
_ccdc_geom_bond_type
C11   H57   S    
C91   O16   A    
C63   C65   A    
C75   O38   A    
O10   Zn6   S    
C16   C21   S    
C91   O11   A    
C25   H45   S    
C33   C104  S    
C104  O25   D    
O5    Zn1   S    
O8    Zn4   S    
H47   O35   S    
O1    Zn7   S    
C17   C20   S    
C81   C107  S    
C28   C100  S    
C47   C49   A    
H43   O28   S    
C55   H9    S    
C93   O18   A    
C47   H5    S    
C79   H26   S    
C43   C46   A    
C19   H35   S    
C23   C42   S    
O4    Zn8   S    
C18   C24   S    
C78   C108  S    
C18   H33   S    
C35   C37   A    
C84   C86   A    
C73   C90   S    
C83   H19   S    
O42   Zn5   S    
C14   H59   S    
C5    C6    A    
C25   C38   A    
C51   O7    A    
C26   C39   A    
O12   Zn2   S    
C15   C78   S    
O40   Zn3   S    
C3    C110  A    
C58   C60   A    
C96   C99   S    
C80   C106  S    
C34   H29   S    
C67   C89   S    
C33   C36   A    
C56   C78   S    
C20   C76   S    
C18   C20   S    
C16   H36   S    
C38   H23   S    
C69   C71   A    
C53   C68   S    
C94   O19   A    
C2    C89   S    
C62   C64   A    
C69   C82   A    
C97   C99   S    
C71   H22   S    
C1    C43   S    
C105  O28   S    
C49   H7    S    
C6    H52   S    
C8    C9    A    
C41   H2    S    
C96   C98   S    
C30   C103  S    
O9    Zn5   S    
C27   O42   A    
C102  O20   D    
C31   C33   A    
C2    C27   S    
C103  O22   D    
C13   H31   S    
O1    Zn3   S    
C9    C10   A    
O23   Zn1   S    
O17   Zn6   S    
C48   H6    S    
C13   C56   S    
C13   C89   S    
C93   O14   A    
C95   H11   S    
H48   O37   S    
C48   C50   A    
C47   C60   A    
C63   C66   A    
O11   Zn3   S    
O38   Zn7   S    
O7    Zn3   S    
C1    O40   A    
C3    H49   S    
C41   C43   A    
C60   H3    S    
C42   C44   A    
C108  O35   S    
C109  O37   S    
O18   Zn1   S    
C56   C110  S    
H44   O30   S    
C53   C55   A    
C25   C29   A    
C59   C61   A    
C17   C24   S    
O13   Zn4   S    
C85   C87   A    
C32   C35   A    
C19   C22   S    
C94   O15   A    
C58   H14   S    
C72   C74   A    
C24   H39   S    
C51   C87   S    
C62   H16   S    
C92   O13   A    
C69   H20   S    
C89   C109  S    
C23   O4    A    
C8    C14   A    
O39   Zn8   S    
C7    H53   S    
C31   C46   S    
C45   H30   S    
C5    H51   S    
H41   O24   S    
C9    H54   S    
O12   Zn8   S    
C52   O8    A    
H40   O21   S    
C107  O31   D    
C70   C83   A    
O19   Zn2   S    
C106  O30   S    
C15   H32   S    
C26   H56   S    
C81   C83   A    
C72   H24   S    
C45   C97   S    
O12   Zn6   S    
C11   C12   A    
C65   C68   A    
C15   C67   S    
C34   C99   S    
O3    Zn7   S    
H42   O26   S    
C16   C18   S    
C50   C54   A    
C34   C95   S    
C17   H37   S    
C2    C15   S    
C82   H18   S    
C45   C101  S    
C67   C100  S    
C2    C56   S    
C57   H10   S    
C98   H12   S    
C76   O39   A    
C80   C82   A    
O14   Zn7   S    
C22   H38   S    
C84   H27   S    
C26   C30   A    
C74   C79   A    
C78   C100  S    
C41   C44   A    
C52   O34   A    
C21   C24   S    
C55   C58   A    
O2    Zn6   S    
C103  O24   S    
C64   C92   S    
C93   C101  S    
C3    C4    A    
H46   O32   S    
C102  O21   S    
C40   H62   S    
C92   O17   A    
C85   C88   A    
C71   C73   A    
C23   O41   A    
C84   C90   A    
O34   Zn2   S    
C65   C91   S    
C1    O3    A    
C16   C22   S    
C76   O10   A    
C96   H13   S    
C19   C21   S    
C50   H8    S    
C36   H60   S    
C27   O5    A    
C20   C22   S    
C4    C5    A    
O1    Zn1   S    
C37   H61   S    
O41   Zn4   S    
C95   C97   S    
C6    C7    A    
C54   C66   S    
O15   Zn8   S    
O6    Zn2   S    
C59   H15   S    
C98   C101  S    
C21   C75   S    
C79   C81   A    
C7    C110  A    
C62   C68   A    
C13   C100  S    
C52   C86   S    
C12   C14   A    
C107  O32   S    
C29   C31   A    
C51   O23   A    
C36   C38   A    
C30   C32   A    
O12   Zn4   S    
C77   C80   A    
C28   O2    A    
C48   C61   A    
C4    H50   S    
C94   C99   S    
C10   H55   S    
C97   H1    S    
C40   C46   A    
C40   C42   A    
C70   H21   S    
C34   C98   S    
C29   C102  S    
C86   C88   A    
O1    Zn5   S    
C109  O36   D    
C104  O26   S    
C49   C53   A    
C57   C59   A    
C10   C11   A    
C17   C19   S    
C95   C101  S    
C105  O27   D    
C39   H34   S    
C32   C44   S    
C8    C67   S    
C37   C39   A    
C12   H58   S    
C87   C90   A    
C61   H4    S    
C73   C77   A    
C70   C72   A    
C35   C105  S    
C77   H25   S    
C74   C88   S    
O16   Zn5   S    
C45   C96   S    
C28   O6    A    
C85   H28   S    
C63   H17   S    
C108  O33   D    
C64   C66   A    
C106  O29   D    
C54   C57   A    
C75   O9    A    
