data_mof_unit_54123.cif
_audit_creation_date              2012-12-11T15:55:44-0500
_audit_creation_method            fapswitch 2.2
_symmetry_space_group_name_H-M    P1
_symmetry_Int_Tables_number       1
_space_group_crystal_system       triclinic
_cell_length_a                    10.98957
_cell_length_b                    11.08495
_cell_length_c                    18.769302
_cell_angle_alpha                 90.82495
_cell_angle_beta                  91.000565
_cell_angle_gamma                 59.252166
_cell_volume                      1964.69840787

loop_
_atom_site_label
_atom_site_type_symbol
_atom_type_description
_atom_site_fract_x
_atom_site_fract_y
_atom_site_fract_z
_atom_type_partial_charge
C1    C     C_R   0.385123 0.710876 0.389559 0.547148
C2    C     C_R   0.626549 0.114853 0.170234 0.026444
C3    C     C_R   0.355884 0.317548 0.165760 0.009304
C4    C     C_R   0.476956 0.226140 0.276755 -0.113652
C5    C     C_R   0.482600 0.219700 0.202823 -0.035044
C6    C     C_R   0.022685 0.672735 0.286389 -0.101907
C7    C     C_R   0.909355 0.779657 0.324117 -0.097802
C8    C     C_R   0.653332 0.997407 0.126791 -0.073948
C9    C     C_R   0.788945 0.897148 0.104756 -0.141323
C10   C     C_R   0.235771 0.418977 0.203508 -0.172794
C11   C     C_R   0.232599 0.424898 0.277580 -0.058438
C12   C     C_R   0.384087 0.352010 0.388664 0.542640
C13   C     C_R   0.871754 0.751408 0.389658 -0.092180
C14   C     C_R   0.943548 0.615206 0.416240 -0.091492
C15   C     C_R   0.054606 0.507263 0.377929 -0.047346
C16   C     C_R   0.100411 0.535347 0.313864 0.042451
C17   C     C_R   0.357644 0.329418 0.314473 0.015228
C18   C     C_R   0.874341 0.331985 0.185319 0.034064
C19   C     C_R   0.962432 0.230786 0.234452 -0.007563
C20   C     C_R   0.930117 0.237603 0.304688 -0.025301
C21   C     C_R   0.713927 0.453817 0.280707 -0.151629
C22   C     C_R   0.744601 0.442694 0.208215 -0.169468
C23   C     C_R   0.777357 0.378561 0.403624 0.529729
C24   C     C_3   0.116822 0.150293 0.247597 -0.250972
C25   C     C_3   0.082485 0.156030 0.326400 -0.260991
C26   C     C_R   0.812971 0.357296 0.330011 0.038704
C27   C     C_R   0.374398 0.813999 0.170086 -0.015995
C28   C     C_R   0.423455 0.870519 0.223277 -0.047665
C29   C     C_R   0.421853 0.840037 0.294766 0.089663
C30   C     C_R   0.324582 0.696119 0.264029 -0.190034
C31   C     C_R   0.325408 0.725299 0.191940 -0.165057
C32   C     C_3   0.566967 0.852843 0.236415 -0.257742
C33   C     C_3   0.559184 0.825936 0.313536 0.245017
C34   C     C_R   0.341726 0.773297 0.603118 0.556203
C35   C     C_R   0.372892 0.753694 0.315982 -0.028574
C36   C     C_R   0.298728 0.306726 0.808066 0.033230
C37   C     C_R   0.406214 0.194662 0.770354 -0.023006
C38   C     C_R   0.417168 0.198334 0.698225 0.009986
C39   C     C_R   0.197501 0.420040 0.694424 -0.143758
C40   C     C_R   0.186986 0.415615 0.768832 0.321163
C41   C     C_3   0.562458 0.117225 0.783085 -0.273442
C42   C     C_3   0.576227 0.119487 0.703359 -0.254339
C43   C     C_R   0.321499 0.318238 0.660107 -0.037396
C44   C     C_R   0.809543 0.328983 0.836774 0.018747
C45   C     C_R   0.368852 0.349108 0.594774 0.550530
C46   C     C_R   0.737275 0.461174 0.804728 0.008923
C47   C     C_R   0.731629 0.471593 0.731824 0.034024
C48   C     C_R   0.838459 0.222484 0.718506 -0.172711
C49   C     C_R   0.848268 0.209914 0.793103 -0.162212
C50   C     C_3   0.746982 0.591057 0.812842 -0.254937
C51   C     C_3   0.748600 0.596401 0.732343 -0.249859
C52   C     C_R   0.789818 0.354039 0.687260 0.023277
C53   C     C_R   0.283474 0.879378 0.818915 0.016883
C54   C     C_R   0.177220 0.873988 0.780774 -0.008094
C55   C     C_R   0.186096 0.856976 0.707923 0.008980
C56   C     C_R   0.760795 0.378506 0.611312 0.539978
C57   C     C_R   0.387671 0.887055 0.706314 -0.161795
C58   C     C_R   0.381614 0.899182 0.780499 -0.150925
C59   C     C_3   0.121000 0.778583 0.790392 -0.230801
C60   C     C_3   0.132116 0.757554 0.710445 -0.235874
C61   C     C_R   0.300448 0.848207 0.670700 0.020823
C62   C     C_R   0.916001 0.314393 0.112532 0.547640
C63   C     C_R   0.329581 0.292525 0.092688 0.548281
C64   C     C_R   0.312298 0.893620 0.103945 0.539899
C65   C     C_R   0.879652 0.310166 0.905717 0.548697
C66   C     C_R   0.293119 0.285912 0.883971 0.571287
C67   C     C_R   0.904676 0.903365 0.129858 -0.093675
C68   C     C_R   0.270042 0.903659 0.895276 0.545378
C69   C     C_R   0.884183 0.008969 0.177427 -0.085930
C70   C     C_R   0.747067 0.115434 0.196092 -0.115884
Cr1   Cr    Cr6+3 0.601740 0.606840 0.505840 1.016248
Cr2   Cr    Cr6+3 0.291500 0.601560 0.495070 1.007991
Cr3   Cr    Cr6+3 0.606780 0.291630 0.499130 1.022455
Cr4   Cr    Cr6+3 0.062440 0.063060 0.008240 1.019564
Cr5   Cr    Cr6+3 0.062950 0.375000 0.998920 1.034367
Cr6   Cr    Cr6+3 0.374550 0.061770 0.992470 0.995016
H1    H     H_    0.572471 0.151880 0.305200 0.179552
H2    H     H_    0.786929 0.835018 0.419905 0.168125
H3    H     H_    0.914871 0.593614 0.467345 0.126158
H4    H     H_    0.110984 0.404190 0.401270 0.097358
H5    H     H_    0.614195 0.537595 0.298737 0.104483
H6    H     H_    0.669406 0.519715 0.171081 0.123238
H7    H     H_    0.170069 0.208944 0.233926 0.157797
H8    H     H_    0.160629 0.045112 0.224138 0.153069
H9    H     H_    0.112365 0.051602 0.348227 0.166562
H10   H     H_    0.117094 0.216579 0.359331 0.143024
H11   H     H_    0.291009 0.624968 0.279448 0.144665
H12   H     H_    0.804703 0.809629 0.071622 0.106366
H13   H     H_    0.281090 0.684078 0.153435 0.127872
H14   H     H_    0.562331 0.953090 0.233389 0.178198
H15   H     H_    0.653936 0.762582 0.207320 0.097654
H16   H     H_    0.643249 0.720890 0.331791 0.147732
H17   H     H_    0.116657 0.509876 0.665383 0.131998
H18   H     H_    0.604412 0.009876 0.804212 0.140286
H19   H     H_    0.598245 0.181539 0.812555 0.146096
H20   H     H_    0.622997 0.182910 0.687635 0.173869
H21   H     H_    0.852423 0.885252 0.303361 0.132672
H22   H     H_    0.624808 0.013569 0.678330 0.130763
H23   H     H_    0.874006 0.129529 0.685644 0.125678
H24   H     H_    0.899123 0.105883 0.815804 0.142737
H25   H     H_    0.845920 0.575698 0.837290 0.246266
H26   H     H_    0.649510 0.679156 0.836489 0.120021
H27   H     H_    0.656395 0.689425 0.709094 0.140810
H28   H     H_    0.852495 0.572252 0.710955 0.177841
H29   H     H_    0.468250 0.894965 0.678033 0.122293
H30   H     H_    0.457048 0.918923 0.807738 0.141120
H31   H     H_    0.009942 0.835333 0.809341 0.155779
H32   H     H_    0.010596 0.822001 0.115559 0.119891
H33   H     H_    0.195188 0.682544 0.820779 0.177913
H34   H     H_    0.215030 0.649881 0.694808 0.163309
H35   H     H_    0.027803 0.799410 0.683060 0.135621
H36   H     H_    0.976231 0.003477 0.201464 0.134914
H37   H     H_    0.734155 0.194184 0.234470 0.124353
H38   H     H_    0.053104 0.699240 0.237266 0.094796
H39   H     H_    0.573318 0.971780 0.114796 0.171749
H40   H     H_    0.139023 0.490008 0.174998 0.143554
O1    O     O_R   0.748670 0.497520 0.427970 -0.544123
O2    O     O_R   0.300170 0.471020 0.567120 -0.516441
O3    O     O_R   0.491630 0.259030 0.574940 -0.510696
O4    O     O_R   0.718640 0.304340 0.577850 -0.509428
O5    O     O_3   0.500010 0.500010 0.500020 -0.275017
O6    O     O_R   0.186620 0.923750 0.087000 -0.527248
O7    O     O_R   0.957350 0.194160 0.084660 -0.492773
O8    O     O_R   0.935120 0.407280 0.085350 -0.529269
O9    O     O_R   0.203800 0.365060 0.067090 -0.514806
O10   O     O_R   0.417470 0.174910 0.067830 -0.531071
O11   O     O_R   0.375160 0.946380 0.070880 -0.516658
O12   O     O_R   0.476470 0.723930 0.429450 -0.471097
O13   O     O_R   0.160500 0.919670 0.926690 -0.514876
O14   O     O_R   0.933140 0.190380 0.936050 -0.507534
O15   O     O_R   0.909010 0.403210 0.925030 -0.512167
O16   O     O_R   0.179590 0.361290 0.918480 -0.441763
O17   O     O_R   0.391360 0.170840 0.907510 -0.537944
O18   O     O_R   0.350950 0.942600 0.922260 -0.517330
O19   O     O_3   0.166650 0.166610 0.999880 -0.257028
O20   O     O_R   0.264730 0.744140 0.416740 -0.505148
O21   O     O_R   0.309440 0.472410 0.418220 -0.518453
O22   O     O_R   0.501630 0.260530 0.414310 -0.495477
O23   O     O_R   0.727920 0.305730 0.428950 -0.502579
O24   O     O_R   0.738670 0.496020 0.588600 -0.525850
O25   O     O_R   0.467190 0.722540 0.578350 -0.496631
O26   O     O_R   0.254720 0.742640 0.577370 -0.522050
F1    F     F_    0.540710 0.935381 0.357490 -0.648225
F2    F     F_    0.074973 0.522594 0.802296 -0.682909

loop_
_geom_bond_atom_site_label_1
_geom_bond_atom_site_label_2
_ccdc_geom_bond_type
C45   O2    A    
C44   C49   A    
C7    C13   A    
C57   H29   S    
C21   C26   A    
C34   O25   A    
Cr3   O3    S    
Cr2   O5    S    
Cr6   O10   S    
C41   C42   S    
Cr1   O24   S    
C19   C20   A    
C1    O12   A    
C62   O8    A    
C65   O14   A    
C6    H38   S    
C53   C54   A    
C33   F1    S    
Cr2   O26   S    
C30   C35   A    
C64   O6    A    
C42   H20   S    
C22   H6    S    
C23   O23   A    
C36   C37   A    
C24   H7    S    
C38   C42   S    
C42   H22   S    
C9    H12   S    
C30   C31   A    
C56   O24   A    
C69   H36   S    
Cr5   O19   S    
C67   H32   S    
Cr2   O20   S    
C32   H15   S    
C20   C25   S    
C51   H27   S    
C15   C16   A    
C29   C33   S    
C18   C19   A    
C23   C26   S    
C4    H1    S    
C53   C68   S    
C39   H17   S    
C8    H39   S    
C21   C22   A    
C54   C55   A    
C32   H14   S    
C41   H18   S    
Cr5   O15   S    
C8    C9    A    
C31   H13   S    
C12   C17   S    
C1    O20   A    
Cr1   O25   S    
C45   O3    A    
Cr4   O7    S    
C59   C60   S    
Cr3   O4    S    
C13   C14   A    
C56   O4    A    
C44   C65   S    
C68   O13   A    
C62   O7    A    
C65   O15   A    
Cr6   O19   S    
C44   C46   A    
C66   O16   A    
C54   C59   S    
C70   H37   S    
Cr1   O1    S    
C27   C31   A    
Cr5   O8    S    
C28   C32   S    
C24   C25   S    
C27   C64   S    
C33   H16   S    
C39   C40   A    
Cr6   O18   S    
C18   C62   S    
C39   C43   A    
Cr3   O23   S    
C51   H28   S    
C34   C61   S    
C59   H31   S    
C58   H30   S    
C47   C52   A    
C9    C67   A    
C37   C38   A    
C66   O17   A    
C34   O26   A    
C11   C16   S    
Cr5   O9    S    
C15   H4    S    
C14   C15   A    
C36   C40   A    
Cr6   O17   S    
C64   O11   A    
Cr4   O19   S    
C25   H9    S    
C50   C51   S    
C14   H3    S    
C43   C45   S    
C63   O9    A    
C4    C17   A    
Cr2   O21   S    
Cr4   O6    S    
C21   H5    S    
C50   H26   S    
Cr3   O5    S    
C40   F2    S    
C12   O22   A    
Cr1   O12   S    
C2    C5    S    
C10   H40   S    
Cr5   O16   S    
C1    C35   S    
C48   H23   S    
C46   C50   S    
C46   C47   A    
C28   C29   A    
C7    H21   S    
C18   C22   A    
Cr1   O5    S    
C2    C8    A    
C4    C5    A    
C3    C5    A    
C11   C17   A    
C23   O1    A    
C47   C51   S    
C53   C58   A    
C57   C61   A    
C6    C7    A    
C3    C63   S    
C29   C35   A    
C32   C33   S    
Cr4   O14   S    
C19   C24   S    
C24   H8    S    
C38   C43   A    
C60   H35   S    
C2    C70   A    
C49   H24   S    
C57   C58   A    
C41   H19   S    
C20   C26   A    
C48   C49   A    
C55   C61   A    
C68   O18   A    
C25   H10   S    
C59   H33   S    
C36   C66   S    
C37   C41   S    
C69   C70   A    
C63   O10   A    
C60   H34   S    
C10   C11   A    
C13   H2    S    
C6    C16   A    
C48   C52   A    
C50   H25   S    
Cr3   O22   S    
Cr4   O13   S    
Cr2   O2    S    
C27   C28   A    
C3    C10   A    
Cr6   O11   S    
C12   O21   A    
C67   C69   A    
C30   H11   S    
C55   C60   S    
C52   C56   S    
