data_mof_unit_53875.cif
_audit_creation_date              2012-10-26T20:04:22-0400
_audit_creation_method            fapswitch 2.2
_symmetry_space_group_name_H-M    P1
_symmetry_Int_Tables_number       1
_space_group_crystal_system       triclinic
_cell_length_a                    15.174457
_cell_length_b                    14.104603
_cell_length_c                    14.259498
_cell_angle_alpha                 90.000403
_cell_angle_beta                  84.153758
_cell_angle_gamma                 89.981842
_cell_volume                      3036.08204859

loop_
_atom_site_label
_atom_site_type_symbol
_atom_type_description
_atom_site_fract_x
_atom_site_fract_y
_atom_site_fract_z
_atom_type_partial_charge
C1    C     C_R   0.329005 0.499718 0.504573 0.582494
C2    C     C_R   0.974902 0.467341 0.329172 0.064740
C3    C     C_R   0.454955 0.796583 0.574772 0.356314
C4    C     C_R   0.559601 0.203067 0.436177 0.306584
C5    C     C_R   0.545041 0.796536 0.425216 0.357213
C6    C     C_R   0.440368 0.203122 0.563807 0.293766
C7    C     C_R   0.544326 0.898568 0.425614 -0.006625
C8    C     C_R   0.439463 0.101005 0.560698 -0.053401
C9    C     C_R   0.455538 0.898617 0.574261 -0.020717
C10   C     C_R   0.560251 0.100947 0.439039 -0.027606
C11   C     C_R   0.499864 0.948332 0.499892 -0.074132
C12   C     C_R   0.670994 0.499692 0.495474 0.582579
C13   C     C_R   0.499826 0.051334 0.499847 -0.086498
C14   C     C_R   0.585849 0.956850 0.353153 0.297372
C15   C     C_R   0.379211 0.042333 0.616201 0.289724
C16   C     C_R   0.414123 0.956922 0.646759 0.261774
C17   C     C_R   0.620737 0.042209 0.383865 0.286590
C18   C     C_R   0.500295 0.500107 0.331663 0.595362
C19   C     C_R   0.499704 0.500109 0.668337 0.594954
C20   C     C_1   0.500387 0.500633 0.229115 0.091431
C21   C     C_1   0.499631 0.500643 0.770884 0.091149
C22   C     C_1   0.500317 0.500950 0.143521 0.046017
C23   C     C_R   0.953355 0.486384 0.499548 -0.025624
C24   C     C_1   0.499713 0.500960 0.856477 0.046602
C25   C     C_1   0.500117 0.501124 0.042797 0.071871
C26   C     C_1   0.499920 0.501127 0.957200 0.072313
C27   C     C_R   0.824530 0.492579 0.410246 0.077088
C28   C     C_R   0.175476 0.492725 0.589829 0.077418
C29   C     C_R   0.768251 0.497393 0.495707 -0.019043
C30   C     C_R   0.231750 0.497468 0.504359 -0.017716
C31   C     C_R   0.804366 0.491948 0.582803 0.057862
C32   C     C_R   0.195634 0.491943 0.417268 0.058827
C33   C     C_R   0.897402 0.493102 0.585417 -0.002711
C34   C     C_R   0.046654 0.486403 0.500530 -0.025049
C35   C     C_R   0.102599 0.493073 0.414656 -0.001256
C36   C     C_2   0.789512 0.509787 0.318384 0.614737
C37   C     C_2   0.210459 0.510090 0.681685 0.615797
C38   C     C_2   0.744233 0.472319 0.669018 0.619799
C39   C     C_2   0.255775 0.472267 0.331060 0.619643
C40   C     C_2   0.050663 0.407695 0.750323 0.627864
C41   C     C_2   0.949421 0.407480 0.249794 0.630509
C42   C     C_R   0.916856 0.480311 0.412549 -0.023456
C43   C     C_R   0.083159 0.480420 0.587532 -0.023780
C44   C     C_R   0.936970 0.496598 0.671233 0.235529
C45   C     C_R   0.063028 0.496486 0.328837 0.235036
C46   C     C_R   0.025125 0.467494 0.670917 0.064474
Cu1   Cu    Cu3+1 0.500000 0.597420 0.500000 1.210411
Cu2   Cu    Cu3+1 0.500000 0.402580 0.500000 1.164601
H1    H     H_    0.803463 0.580592 0.194593 0.370217
H2    H     H_    0.552864 0.284308 0.238305 0.352891
H3    H     H_    0.654455 0.613485 0.271770 0.361402
H4    H     H_    0.448394 0.283993 0.761457 0.349086
H5    H     H_    0.567945 0.928570 0.101408 0.395927
H6    H     H_    0.139370 0.018824 0.653608 0.390529
H7    H     H_    0.542680 0.094822 0.725225 0.340303
H8    H     H_    0.796298 0.931429 0.501370 0.398690
H9    H     H_    0.196413 0.581098 0.805366 0.370609
H10   H     H_    0.705191 0.380128 0.772985 0.356459
H11   H     H_    0.294848 0.380033 0.227121 0.359940
H12   H     H_    0.802408 0.686521 0.787693 0.397926
H13   H     H_    0.197575 0.686229 0.212219 0.400397
H14   H     H_    0.126083 0.300156 0.790981 0.391248
H15   H     H_    0.874064 0.299922 0.209175 0.392329
H16   H     H_    0.345491 0.613659 0.728152 0.361580
N1    N     N_R   0.500000 0.743810 0.500000 -0.267538
N2    N     N_R   0.500000 0.256190 0.500000 -0.275403
O1    O     O_R   0.370260 0.582280 0.500020 -0.436719
O2    O     O_R   0.830201 0.577716 0.256850 -0.616683
O3    O     O_2   0.272459 0.463707 0.705171 -0.436047
O4    O     O_R   0.169698 0.578104 0.743102 -0.616409
O5    O     O_2   0.689384 0.531355 0.698516 -0.488164
O6    O     O_R   0.750345 0.385852 0.715758 -0.635328
O7    O     O_2   0.310592 0.531286 0.301533 -0.488044
O8    O     O_R   0.249702 0.385779 0.284355 -0.626349
O9    O     O_2   0.837946 0.507288 0.839199 -0.201989
O10   O     O_2   0.966375 0.612376 0.814693 -0.166817
O11   O     O_3   0.828850 0.654377 0.729770 -0.471815
O12   O     O_R   0.629740 0.417720 0.499980 -0.457977
O13   O     O_2   0.162016 0.507068 0.160848 -0.201844
O14   O     O_2   0.033522 0.612154 0.185311 -0.164652
O15   O     O_3   0.171036 0.654240 0.270175 -0.463358
O16   O     O_2   0.013490 0.416744 0.829978 -0.373696
O17   O     O_R   0.114681 0.336838 0.732275 -0.610879
O18   O     O_2   0.986598 0.416481 0.170140 -0.373192
O19   O     O_R   0.885446 0.336627 0.267870 -0.604400
O20   O     O_2   0.458778 0.735060 0.751663 -0.235893
O21   O     O_2   0.320470 0.809211 0.716657 -0.191101
O22   O     O_3   0.347309 0.641960 0.664477 -0.488773
O23   O     O_R   0.629740 0.582280 0.499980 -0.437454
O24   O     O_2   0.710440 0.303491 0.391242 -0.165590
O25   O     O_2   0.685908 0.180903 0.281709 -0.201865
O26   O     O_3   0.595247 0.324835 0.268481 -0.473091
O27   O     O_2   0.541880 0.735579 0.248073 -0.241708
O28   O     O_2   0.680123 0.809067 0.284162 -0.181628
O29   O     O_3   0.652656 0.641671 0.335496 -0.489294
O30   O     O_2   0.289935 0.303997 0.609604 -0.164205
O31   O     O_2   0.314537 0.181059 0.718740 -0.188951
O32   O     O_3   0.405603 0.324585 0.731947 -0.473606
O33   O     O_2   0.449635 0.908856 0.255422 -0.205268
O34   O     O_R   0.370260 0.417720 0.500020 -0.454516
O35   O     O_2   0.512010 0.067785 0.229321 -0.264375
O36   O     O_3   0.602778 0.925790 0.156436 -0.397224
O37   O     O_2   0.248664 0.119427 0.525630 -0.201251
O38   O     O_2   0.264497 0.946641 0.521164 -0.234850
O39   O     O_3   0.198114 0.023555 0.677827 -0.408845
O40   O     O_2   0.404940 0.931613 0.833932 -0.108985
O41   O     O_2   0.550254 0.908362 0.745228 -0.219473
O42   O     O_3   0.491755 0.080117 0.772081 -0.490149
O43   O     O_2   0.794638 0.023419 0.334894 -0.151759
O44   O     O_2   0.750385 0.118161 0.476533 -0.216152
O45   O     O_R   0.500000 0.582290 0.376050 -0.439455
O46   O     O_3   0.733754 0.935194 0.487494 -0.506333
O47   O     O_R   0.500000 0.417710 0.623950 -0.465762
O48   O     O_R   0.500000 0.582290 0.623950 -0.439331
O49   O     O_R   0.500000 0.417710 0.376050 -0.461830
O50   O     O_2   0.727537 0.463344 0.295005 -0.436355
S1    S     S_3+6 0.892218 0.567531 0.768073 0.116587
S2    S     S_3+6 0.728538 0.032688 0.420346 0.112532
S3    S     S_3+6 0.107718 0.567356 0.231945 0.119846
S4    S     S_3+6 0.395116 0.745727 0.678126 0.114169
S5    S     S_3+6 0.639076 0.253853 0.345253 0.140819
S6    S     S_3+6 0.605187 0.745693 0.322027 0.113634
S7    S     S_3+6 0.361351 0.253975 0.655185 0.135939
S8    S     S_3+6 0.533790 0.965846 0.247558 0.120796
S9    S     S_3+6 0.270768 0.033568 0.581149 0.129566
S10   S     S_3+6 0.466595 0.966226 0.751995 0.128127

loop_
_geom_bond_atom_site_label_1
_geom_bond_atom_site_label_2
_ccdc_geom_bond_type
Cu1   O48   S    
C30   C32   A    
H14   O17   S    
C8    C13   A    
H1    O2    S    
C37   O3    D    
C12   C29   S    
C27   C29   A    
O9    S1    D    
O44   S2    D    
C40   C46   S    
C23   C42   A    
C28   C37   S    
C19   C21   S    
C9    C16   A    
C24   C26   S    
O11   S1    S    
C32   C39   S    
C19   O47   A    
C10   C17   A    
C15   C16   A    
C34   C35   A    
C39   O8    S    
Cu2   O12   S    
C7    C14   A    
O38   S9    D    
C23   C33   A    
C22   C25   S    
C12   O12   A    
C31   C33   A    
H9    O4    S    
O22   S4    S    
H6    O39   S    
C45   S3    S    
O14   S3    D    
C37   O4    S    
H15   O19   S    
Cu1   O23   S    
C40   O17   S    
C3    N1    A    
C6    S7    S    
O36   S8    S    
C1    O34   A    
Cu1   O1    S    
C44   C46   A    
O43   S2    D    
C2    C45   A    
O32   S7    S    
Cu2   O34   S    
C38   O6    S    
H12   O11   S    
O35   S8    D    
C14   S8    S    
C32   C35   A    
C40   O16   D    
C12   O23   A    
O27   S6    D    
C5    N1    A    
C5    C7    A    
C6    C8    A    
C19   O48   A    
C25   C26   T    
C41   O18   D    
C5    S6    S    
O13   S3    D    
C7    C11   A    
C3    C9    A    
O46   S2    S    
Cu1   Cu2   S    
H5    O36   S    
C23   C34   A    
C18   O45   A    
C9    C11   A    
H11   O8    S    
C17   S2    S    
Cu2   O49   S    
O28   S6    D    
O29   S6    S    
H2    O26   S    
C20   C22   T    
C8    C15   A    
O25   S5    D    
O24   S5    D    
H8    O46   S    
C4    C10   A    
C35   C45   A    
C36   O50   D    
O15   S3    S    
C38   O5    D    
O30   S7    D    
C33   C44   A    
C34   C43   A    
O41   S10   D    
C10   C13   A    
C18   O49   A    
C36   O2    S    
C27   C36   S    
C41   O19   S    
O40   S10   D    
C28   C43   A    
O10   S1    D    
C31   C38   S    
O39   S9    S    
H7    O42   S    
Cu2   N2    S    
C28   C30   A    
O21   S4    D    
O31   S7    D    
H13   O15   S    
O26   S5    S    
C4    N2    A    
C11   C13   A    
C27   C42   A    
H10   O6    S    
C44   S1    S    
C2    C42   A    
Cu1   O45   S    
H4    O32   S    
C1    C30   S    
C1    O1    A    
H16   O22   S    
C4    S5    S    
C18   C20   S    
C39   O7    D    
O37   S9    D    
C43   C46   A    
C3    S4    S    
C6    N2    A    
C29   C31   A    
C15   S9    S    
C21   C24   T    
Cu2   O47   S    
O20   S4    D    
C2    C41   S    
O42   S10   S    
C16   S10   S    
Cu1   N1    S    
H3    O29   S    
O33   S8    D    
C14   C17   A    
