data_mof_unit_10742.cif
_audit_creation_date              2012-12-11T14:54:37-0500
_audit_creation_method            fapswitch 2.2
_symmetry_space_group_name_H-M    P1
_symmetry_Int_Tables_number       1
_space_group_crystal_system       triclinic
_cell_length_a                    18.997184
_cell_length_b                    10.925529
_cell_length_c                    18.830973
_cell_angle_alpha                 89.974436
_cell_angle_beta                  90.067031
_cell_angle_gamma                 89.778409
_cell_volume                      3908.41682946

loop_
_atom_site_label
_atom_site_type_symbol
_atom_type_description
_atom_site_fract_x
_atom_site_fract_y
_atom_site_fract_z
_atom_type_partial_charge
C1    C     C_R   0.726251 0.368254 0.642591 0.580083
C2    C     C_R   0.309038 0.875033 0.463709 0.133873
C3    C     C_R   0.040225 0.570006 0.450997 -0.137440
C4    C     C_R   0.211107 0.343480 0.540931 0.039743
C5    C     C_R   0.809327 0.374707 0.463550 0.130196
C6    C     C_R   0.712083 0.828905 0.467382 -0.186943
C7    C     C_R   0.301482 0.867407 0.536750 -0.191734
C8    C     C_R   0.213869 0.326582 0.467925 -0.179891
C9    C     C_R   0.801609 0.366664 0.536585 -0.192988
C10   C     C_R   0.748081 0.913457 0.424480 -0.002929
C11   C     C_R   0.236421 0.890450 0.567821 0.004463
C12   C     C_R   0.247502 0.413153 0.424405 -0.000515
C13   C     C_R   0.269293 0.376737 0.353806 0.585982
C14   C     C_R   0.736219 0.387848 0.567362 0.008688
C15   C     C_R   0.776765 0.018446 0.454204 0.346584
C16   C     C_R   0.177093 0.914470 0.524939 0.374350
C17   C     C_R   0.272388 0.521826 0.453198 0.342762
C18   C     C_R   0.676885 0.408368 0.524124 0.374184
C19   C     C_R   0.776517 0.032570 0.526924 -0.123927
C20   C     C_R   0.184242 0.924316 0.452725 -0.114482
C21   C     C_R   0.272244 0.536925 0.525979 -0.128634
C22   C     C_R   0.684195 0.420152 0.452022 -0.114020
C23   C     C_R   0.744926 0.944392 0.570856 -0.036389
C24   C     C_R   0.226551 0.869374 0.642909 0.575916
C25   C     C_R   0.250415 0.912431 0.421701 -0.002486
C26   C     C_R   0.243841 0.446407 0.570477 -0.038792
C27   C     C_R   0.750607 0.411312 0.421397 -0.005317
C28   C     C_R   0.463056 0.060629 0.949778 -0.127175
C29   C     C_R   0.443576 0.058219 0.020702 -0.131318
C30   C     C_R   0.963070 0.560614 0.949783 -0.127209
C31   C     C_R   0.943589 0.558206 0.020707 -0.131266
C32   C     C_R   0.452730 0.161805 0.063323 0.028856
C33   C     C_R   0.493129 0.166441 0.920502 0.027710
C34   C     C_R   0.952724 0.661804 0.063322 0.028750
C35   C     C_R   0.769303 0.876903 0.353750 0.580026
C36   C     C_R   0.993127 0.666437 0.920501 0.027393
C37   C     C_R   0.477036 0.271101 0.032671 -0.132305
C38   C     C_R   0.497334 0.273303 0.961566 -0.138297
C39   C     C_R   0.977009 0.771111 0.032664 -0.132139
C40   C     C_R   0.997311 0.773309 0.961559 -0.138323
C41   C     C_R   0.533275 0.154322 0.645904 0.545468
C42   C     C_R   0.468237 0.155903 0.353162 0.553276
C43   C     C_R   0.036628 0.654247 0.643863 0.543262
C44   C     C_R   0.968402 0.655721 0.353129 0.555059
C45   C     C_R   0.814384 0.949826 0.959487 -0.136564
C46   C     C_3   0.445017 0.376112 0.475308 -0.221304
C47   C     C_R   0.213215 0.026403 0.026821 -0.126951
C48   C     C_R   0.314394 0.449740 0.959473 -0.136611
C49   C     C_R   0.713201 0.526384 0.026825 -0.126906
C50   C     C_R   0.818061 0.943678 0.032064 -0.133354
C51   C     C_R   0.211983 0.012413 0.954265 -0.134829
C52   C     C_R   0.318079 0.443582 0.032051 -0.133319
C53   C     C_R   0.711971 0.512399 0.954269 -0.134853
C54   C     C_R   0.760127 0.902820 0.071717 0.035049
C55   C     C_R   0.249352 0.916369 0.923201 0.031207
C56   C     C_R   0.260135 0.402797 0.071713 0.035134
C57   C     C_3   0.448534 0.365114 0.555689 -0.250931
C58   C     C_R   0.749351 0.416372 0.923202 0.031233
C59   C     C_R   0.698068 0.868050 0.037257 -0.142662
C60   C     C_R   0.292478 0.839863 0.965018 -0.138738
C61   C     C_R   0.198060 0.368092 0.037261 -0.142649
C62   C     C_R   0.792488 0.339880 0.965016 -0.138695
C63   C     C_R   0.693429 0.878715 0.963865 -0.137592
C64   C     C_R   0.294411 0.855062 0.038173 -0.151616
C65   C     C_R   0.193416 0.378761 0.963870 -0.137618
C66   C     C_R   0.794422 0.355076 0.038171 -0.151736
C67   C     C_R   0.751249 0.922857 0.925067 0.031286
C68   C     C_3   0.921175 0.840897 0.472851 -0.244753
C69   C     C_R   0.253365 0.946629 0.069363 0.033343
C70   C     C_R   0.251246 0.422844 0.925064 0.031275
C71   C     C_R   0.753364 0.446625 0.069363 0.033254
C72   C     C_R   0.740331 0.973173 0.645831 0.561843
C73   C     C_R   0.258992 0.967109 0.352034 0.566586
C74   C     C_R   0.240040 0.474078 0.645573 0.562084
C75   C     C_R   0.759042 0.467032 0.352000 0.563422
C76   C     C_R   0.730051 0.378460 0.852261 0.548323
C77   C     C_R   0.271871 0.375155 0.146013 0.544223
C78   C     C_R   0.230051 0.878460 0.852261 0.547977
C79   C     C_3   0.933322 0.836575 0.552350 -0.269030
C80   C     C_R   0.771869 0.875161 0.146015 0.543594
C81   C     C_R   0.530809 0.157275 0.852841 0.542515
C82   C     C_R   0.436319 0.153286 0.139149 0.551174
C83   C     C_R   0.030808 0.657274 0.852841 0.543183
C84   C     C_R   0.936317 0.653286 0.139150 0.551516
C85   C     C_R   0.741442 0.970033 0.853940 0.550707
C86   C     C_R   0.259703 0.975398 0.144033 0.543453
C87   C     C_R   0.241441 0.470031 0.853939 0.551177
C88   C     C_R   0.759703 0.475397 0.144033 0.543100
C89   C     C_R   0.493510 0.167240 0.425070 0.026621
C90   C     C_R   0.709883 0.844231 0.540553 0.037486
C91   C     C_R   0.513564 0.154904 0.572130 0.061883
C92   C     C_R   0.003279 0.668648 0.421197 0.008211
C93   C     C_R   0.023319 0.659138 0.568295 0.025938
C94   C     C_R   0.454308 0.240394 0.471803 0.013697
C95   C     C_R   0.462455 0.232369 0.544350 0.000728
C96   C     C_R   0.988129 0.770186 0.464167 0.035629
C97   C     C_R   0.998545 0.765652 0.536617 0.112909
C98   C     C_R   0.549390 0.073462 0.526215 -0.111969
C99   C     C_R   0.538770 0.078653 0.453207 -0.129767
C100  C     C_R   0.049899 0.564983 0.524370 -0.140305
Cr1   Cr    Cr6+3 0.771950 0.169480 0.750100 1.020748
Cr2   Cr    Cr6+3 0.383410 0.010620 0.249390 1.066133
Cr3   Cr    Cr6+3 0.116590 0.510620 0.750610 1.048955
Cr4   Cr    Cr6+3 0.883410 0.510620 0.249390 1.064436
Cr5   Cr    Cr6+3 0.228050 0.169480 0.249900 1.026306
Cr6   Cr    Cr6+3 0.271950 0.669480 0.750100 1.019471
Cr7   Cr    Cr6+3 0.728050 0.669480 0.249900 1.022997
Cr8   Cr    Cr6+3 0.614930 0.323340 0.749170 1.068362
Cr9   Cr    Cr6+3 0.385070 0.323340 0.250830 1.047985
Cr10  Cr    Cr6+3 0.114930 0.823340 0.749170 1.077157
Cr11  Cr    Cr6+3 0.885070 0.823340 0.250830 1.050384
Cr12  Cr    Cr6+3 0.616590 0.010620 0.750610 1.049759
F1    F     F_    0.808316 0.103503 0.412891 -0.612547
F2    F     F_    0.111814 0.931174 0.552453 -0.608592
F3    F     F_    0.301192 0.608715 0.411089 -0.613183
F4    F     F_    0.611299 0.418013 0.551217 -0.638920
H1    H     H_    0.587558 0.008438 0.546558 0.159234
H2    H     H_    0.178774 0.072622 0.922909 0.130228
H3    H     H_    0.367548 0.468312 0.056677 0.132637
H4    H     H_    0.678753 0.572598 0.922915 0.130081
H5    H     H_    0.653568 0.833277 0.066867 0.125770
H6    H     H_    0.321440 0.764178 0.941890 0.137456
H7    H     H_    0.153552 0.333374 0.066878 0.125900
H8    H     H_    0.821459 0.264208 0.941885 0.137465
H9    H     H_    0.643877 0.857988 0.938110 0.133624
H10   H     H_    0.327208 0.795335 0.070219 0.125085
H11   H     H_    0.143854 0.358091 0.938123 0.133718
H12   H     H_    0.565826 0.014223 0.418943 0.146087
H13   H     H_    0.827228 0.295361 0.070214 0.125050
H14   H     H_    0.874395 0.787460 0.456049 0.136361
H15   H     H_    0.944963 0.927731 0.575675 0.190559
H16   H     H_    0.392916 0.405139 0.455750 0.176584
H17   H     H_    0.492370 0.415526 0.580697 0.242677
H18   H     H_    0.490311 0.426345 0.452075 0.186603
H19   H     H_    0.396786 0.380561 0.581708 0.136184
H20   H     H_    0.925060 0.934707 0.450383 0.207754
H21   H     H_    0.893225 0.782014 0.581323 0.127474
H22   H     H_    0.689414 0.746812 0.444803 0.177247
H23   H     H_    0.075868 0.485443 0.546773 0.172225
H24   H     H_    0.346215 0.841415 0.569266 0.156485
H25   H     H_    0.193470 0.242195 0.445979 0.175580
H26   H     H_    0.846465 0.342077 0.569289 0.155461
H27   H     H_    0.800747 0.113626 0.548841 0.168685
H28   H     H_    0.138284 0.948966 0.421577 0.166998
H29   H     H_    0.294310 0.619910 0.547659 0.167020
H30   H     H_    0.638086 0.443017 0.420645 0.156771
H31   H     H_    0.458326 0.977272 0.919029 0.132022
H32   H     H_    0.423685 0.973883 0.042980 0.129931
H33   H     H_    0.958354 0.477249 0.919040 0.132088
H34   H     H_    0.055843 0.492336 0.418849 0.162412
H35   H     H_    0.923712 0.473863 0.042989 0.130007
H36   H     H_    0.483470 0.353137 0.064204 0.129694
H37   H     H_    0.520272 0.356090 0.940181 0.130387
H38   H     H_    0.983425 0.853157 0.064191 0.129891
H39   H     H_    0.020234 0.856105 0.940170 0.130359
H40   H     H_    0.859896 0.983245 0.930856 0.130981
H41   H     H_    0.183046 0.101046 0.049430 0.137408
H42   H     H_    0.359911 0.483110 0.930833 0.130821
H43   H     H_    0.683021 0.601012 0.049435 0.137414
H44   H     H_    0.867519 0.968466 0.056696 0.132690
I1    I     I_    0.655951 0.710262 0.600948 -0.300412
I2    I     I_    0.410905 0.823654 0.426584 -0.240461
I3    I     I_    0.159850 0.208569 0.602773 -0.284311
I4    I     I_    0.911440 0.324905 0.426655 -0.248177
O1    O     O_R   0.787510 0.042610 0.670410 -0.528727
O2    O     O_R   0.454250 0.051070 0.169440 -0.511427
O3    O     O_R   0.045750 0.551070 0.830560 -0.522605
O4    O     O_R   0.954250 0.551070 0.169440 -0.510655
O5    O     O_R   0.681210 0.959150 0.825320 -0.500588
O6    O     O_R   0.318790 0.959150 0.174680 -0.519171
O7    O     O_R   0.181210 0.459150 0.825320 -0.500375
O8    O     O_R   0.818790 0.459150 0.174680 -0.518869
O9    O     O_3   0.667820 0.167810 0.749960 -0.266094
O10   O     O_3   0.332180 0.167810 0.250040 -0.287645
O11   O     O_3   0.167820 0.667810 0.749960 -0.268546
O12   O     O_R   0.212490 0.042610 0.329590 -0.529083
O13   O     O_3   0.832180 0.667810 0.250040 -0.288285
O14   O     O_R   0.765670 0.292090 0.675090 -0.528604
O15   O     O_R   0.234330 0.292090 0.324910 -0.516914
O16   O     O_R   0.265670 0.792090 0.675090 -0.528952
O17   O     O_R   0.734330 0.792090 0.324910 -0.518151
O18   O     O_R   0.670220 0.409020 0.668560 -0.421057
O19   O     O_R   0.329780 0.409020 0.331440 -0.455400
O20   O     O_R   0.170220 0.909020 0.668560 -0.417374
O21   O     O_R   0.829780 0.909020 0.331440 -0.451448
O22   O     O_R   0.556580 0.251590 0.674980 -0.475143
O23   O     O_R   0.287510 0.542610 0.670410 -0.529467
O24   O     O_R   0.443420 0.251590 0.325020 -0.503940
O25   O     O_R   0.056580 0.751590 0.674980 -0.467867
O26   O     O_R   0.943420 0.751590 0.325020 -0.501307
O27   O     O_R   0.545890 0.049670 0.670030 -0.517788
O28   O     O_R   0.454110 0.049670 0.329970 -0.484416
O29   O     O_R   0.045890 0.549670 0.670030 -0.518840
O30   O     O_R   0.954110 0.549670 0.329970 -0.487157
O31   O     O_R   0.681340 0.957860 0.676500 -0.471193
O32   O     O_R   0.318660 0.957860 0.323500 -0.455146
O33   O     O_R   0.181340 0.457860 0.676500 -0.471877
O34   O     O_R   0.712490 0.542610 0.329590 -0.528885
O35   O     O_R   0.818660 0.457860 0.323500 -0.455902
O36   O     O_R   0.787380 0.044010 0.830940 -0.525657
O37   O     O_R   0.212620 0.044010 0.169060 -0.521448
O38   O     O_R   0.287380 0.544010 0.830940 -0.525738
O39   O     O_R   0.712620 0.544010 0.169060 -0.521756
O40   O     O_R   0.765540 0.293390 0.823910 -0.507500
O41   O     O_R   0.234460 0.293390 0.176090 -0.508679
O42   O     O_R   0.265540 0.793390 0.823910 -0.507637
O43   O     O_R   0.734460 0.793390 0.176090 -0.508522
O44   O     O_R   0.670090 0.410410 0.829090 -0.520904
O45   O     O_R   0.556450 0.252890 0.823790 -0.508228
O46   O     O_R   0.329910 0.410410 0.170910 -0.527227
O47   O     O_R   0.170090 0.910410 0.829090 -0.520866
O48   O     O_R   0.829910 0.910410 0.170910 -0.527278
O49   O     O_R   0.443550 0.252890 0.176210 -0.507212
O50   O     O_R   0.056450 0.752890 0.823790 -0.507459
O51   O     O_R   0.943550 0.752890 0.176210 -0.506202
O52   O     O_R   0.545750 0.051070 0.830560 -0.523102

loop_
_geom_bond_atom_site_label_1
_geom_bond_atom_site_label_2
_ccdc_geom_bond_type
C58   C62   A    
C81   O45   A    
C21   C26   A    
Cr2   O6    S    
C88   O8    A    
C53   C58   A    
C24   O20   A    
C72   O1    A    
C20   H28   S    
Cr1   O9    S    
C2    C7    A    
C4    C8    A    
C2    I2    S    
C72   O31   A    
C62   H8    S    
Cr8   O45   S    
Cr1   O36   S    
C58   C76   S    
Cr10  O11   S    
C7    C11   A    
C17   F3    S    
C50   C54   A    
Cr7   O17   S    
C65   H11   S    
Cr8   O22   S    
C28   C29   A    
Cr10  O50   S    
C25   C73   S    
Cr11  O51   S    
Cr6   O23   S    
C29   C32   A    
Cr9   O49   S    
C10   C15   A    
C82   O2    A    
C30   C31   A    
C81   O52   A    
Cr6   O38   S    
C20   C25   A    
C36   C83   S    
C65   C70   A    
C11   C24   S    
C92   C96   A    
C51   H2    S    
C76   O44   A    
Cr3   O33   S    
C89   C94   A    
C14   C18   A    
Cr11  O48   S    
C47   C69   A    
Cr1   O14   S    
C44   O26   A    
C5    C27   A    
C3    C100  A    
Cr4   O13   S    
C22   H30   S    
C13   O19   A    
Cr5   O12   S    
C30   C36   A    
C12   C17   A    
C24   O16   A    
Cr2   O28   S    
Cr8   O44   S    
C15   F1    S    
C40   H39   S    
C10   C35   S    
C2    C25   A    
C61   H7    S    
C87   O38   A    
Cr7   O43   S    
C44   C92   S    
C84   O51   A    
C16   C20   A    
C80   O48   A    
C66   H13   S    
Cr9   O19   S    
C68   C79   S    
Cr12  O9    S    
Cr10  O20   S    
Cr2   O2    S    
C86   O6    A    
C55   C60   A    
C96   C97   A    
Cr3   O7    S    
C57   H17   S    
Cr7   O39   S    
C34   C84   S    
Cr5   O15   S    
C27   C75   S    
C70   C87   S    
C43   C93   S    
Cr6   O16   S    
C54   C80   S    
C54   C59   A    
Cr9   O24   S    
C63   C67   A    
C4    C26   A    
C67   C85   S    
Cr11  O21   S    
C62   C66   A    
C39   H38   S    
C86   O37   A    
C34   C39   A    
C5    I4    S    
C68   H20   S    
C18   F4    S    
C39   C40   A    
C55   C78   S    
C41   O27   A    
Cr9   O10   S    
Cr8   O18   S    
C30   H33   S    
C47   C51   A    
C64   C69   A    
C90   I1    S    
C50   H44   S    
C6    C90   A    
C48   H42   S    
C42   O28   A    
C85   O5    A    
C56   C77   S    
C9    H26   S    
Cr2   O32   S    
C3    C92   A    
C21   H29   S    
C6    H22   S    
C15   C19   A    
C9    C14   A    
C78   O42   A    
Cr12  O31   S    
C5    C9    A    
C37   C38   A    
C84   O4    A    
C100  H23   S    
C77   O41   A    
Cr4   O4    S    
C82   O49   A    
C31   H35   S    
C1    O14   A    
C85   O36   A    
Cr5   O37   S    
Cr12  O5    S    
C46   C94   S    
C74   O33   A    
C36   C40   A    
C8    C12   A    
C87   O7    A    
Cr8   O9    S    
Cr3   O11   S    
C4    I3    S    
C45   H40   S    
C68   C96   S    
C32   C37   A    
C46   H16   S    
C68   H14   S    
C93   C100  A    
C63   H9    S    
C66   C71   A    
C77   O46   A    
C79   H21   S    
C89   C99   A    
C28   C33   A    
C64   H10   S    
Cr5   O10   S    
C46   C57   S    
C57   C95   S    
C22   C27   A    
C8    H25   S    
C35   O17   A    
C37   H36   S    
Cr9   O46   S    
C93   C97   A    
C83   O50   A    
C31   C34   A    
C19   C23   A    
C98   H1    S    
C74   O23   A    
C47   H41   S    
C75   O34   A    
C42   O24   A    
C3    H34   S    
C19   H27   S    
C79   H15   S    
C41   C91   S    
C18   C22   A    
C44   O30   A    
C23   C72   S    
C79   C97   S    
C57   H19   S    
C48   C70   A    
Cr1   O40   S    
C16   F2    S    
Cr6   O42   S    
Cr6   O11   S    
C61   C65   A    
C1    O18   A    
C76   O40   A    
Cr5   O41   S    
C45   C67   A    
C46   H18   S    
C75   O35   A    
Cr2   O10   S    
C32   C82   S    
C43   O29   A    
Cr10  O25   S    
C59   C63   A    
C33   C38   A    
Cr4   O8    S    
C60   C64   A    
C42   C89   S    
Cr10  O47   S    
C13   O15   A    
C35   O21   A    
Cr1   O1    S    
Cr12  O27   S    
C23   C90   A    
C91   C98   A    
C7    H24   S    
C83   O3    A    
C45   C50   A    
C73   O12   A    
C49   C53   A    
Cr4   O35   S    
C41   O22   A    
C99   H12   S    
C51   C55   A    
Cr12  O52   S    
C88   O39   A    
C94   C95   A    
C29   H32   S    
Cr3   O3    S    
C11   C16   A    
C6    C10   A    
C91   C95   A    
C71   C88   S    
C52   H3    S    
C60   H6    S    
C48   C52   A    
C80   O43   A    
C12   C13   S    
C43   O25   A    
Cr11  O26   S    
C26   C74   S    
C98   C99   A    
C49   C71   A    
C73   O32   A    
C53   H4    S    
Cr11  O13   S    
Cr4   O30   S    
C56   C61   A    
C49   H43   S    
C1    C14   S    
Cr3   O29   S    
C38   H37   S    
C59   H5    S    
C33   C81   S    
C78   O47   A    
Cr7   O13   S    
C69   C86   S    
C52   C56   A    
Cr7   O34   S    
C28   H31   S    
C17   C21   A    
