data_mof_unit_10207.cif
_audit_creation_date              2012-12-10T16:37:33-0500
_audit_creation_method            fapswitch 2.2
_symmetry_space_group_name_H-M    P1
_symmetry_Int_Tables_number       1
_space_group_crystal_system       triclinic
_cell_length_a                    10.838006
_cell_length_b                    10.882329
_cell_length_c                    15.474757
_cell_angle_alpha                 96.288721
_cell_angle_beta                  74.022076
_cell_angle_gamma                 98.330164
_cell_volume                      1731.45308722

loop_
_atom_site_label
_atom_site_type_symbol
_atom_type_description
_atom_site_fract_x
_atom_site_fract_y
_atom_site_fract_z
_atom_type_partial_charge
C1    C     C_R   0.157833 0.478605 0.521605 0.494917
C2    C     C_R   0.503300 0.463728 0.117653 -0.173776
C3    C     C_R   0.704414 0.385715 0.111169 0.231395
C4    C     C_R   0.843521 0.518259 0.476970 0.532138
C5    C     C_R   0.407053 0.559888 0.842763 0.029376
C6    C     C_2   0.983595 0.515708 0.460403 0.001488
C7    C     C_2   0.022831 0.478876 0.527615 -0.077172
C8    C     C_2   0.538799 0.967378 0.474778 -0.096905
C9    C     C_2   0.453184 0.037857 0.530076 0.230681
C10   C     C_R   0.470455 0.168262 0.519293 0.539076
C11   C     C_R   0.529233 0.833956 0.480657 0.524978
C12   C     C_R   0.229036 0.530841 0.976491 -0.101957
C13   C     C_R   0.556368 0.445886 0.258461 0.552147
C14   C     C_R   0.445131 0.554014 0.742537 0.517492
C15   C     C_R   0.745780 0.396489 0.017053 0.032885
C16   C     C_R   0.586092 0.425563 0.160809 0.041040
C17   C     C_R   0.278098 0.573698 0.890884 0.219132
C18   C     C_3   0.878902 0.362869 0.963710 -0.261737
C19   C     C_3   0.868276 0.242628 0.903912 -0.409951
C20   C     C_3   0.232031 0.385341 0.088613 -0.278612
C21   C     C_3   0.263515 0.252094 0.059906 -0.395104
C22   C     C_3   0.083168 0.550212 0.371852 -0.282035
C23   C     C_R   0.305364 0.475273 0.017171 -0.021226
C24   C     C_3   0.031437 0.583662 0.296061 -0.395313
C25   C     C_R   0.442730 0.488212 0.978946 0.047672
C26   C     C_R   0.491814 0.526449 0.889521 -0.015986
C27   C     C_R   0.532854 0.459662 0.023779 0.014066
C28   C     C_R   0.661504 0.441203 0.974395 0.022558
C29   C     C_R   0.705331 0.477453 0.885918 -0.116840
C30   C     C_R   0.624865 0.527754 0.847366 -0.099530
Cl1   Cl    Cl    0.800680 0.327482 0.169593 -0.672916
Cl2   Cl    Cl    0.316813 0.985238 0.616427 -0.518223
Cl3   Cl    Cl    0.166739 0.627388 0.843669 -0.574836
H1    H     H_    0.955604 0.460129 0.592570 0.120544
H2    H     H_    0.934324 0.440100 0.922855 0.174304
H3    H     H_    0.940260 0.349843 0.007739 0.197888
H4    H     H_    0.245715 0.222351 0.992940 0.174697
H5    H     H_    0.365585 0.243985 0.056480 0.169246
H6    H     H_    0.200582 0.188310 0.109786 0.164080
H7    H     H_    0.245067 0.413787 0.156382 0.139590
H8    H     H_    0.125970 0.382377 0.098866 0.170167
H9    H     H_    0.959646 0.507453 0.279706 0.217223
H10   H     H_    0.988688 0.672729 0.314498 0.191513
H11   H     H_    0.112630 0.596719 0.234518 0.123070
H12   H     H_    0.618771 0.010268 0.423495 0.081941
H13   H     H_    0.152654 0.629971 0.386763 0.147587
H14   H     H_    0.138354 0.469803 0.344261 0.162275
H15   H     H_    0.804140 0.474576 0.846593 0.136515
H16   H     H_    0.422822 0.509502 0.158423 0.107294
H17   H     H_    0.126451 0.530576 0.007935 0.144053
H18   H     H_    0.668825 0.566510 0.783013 0.145367
H19   H     H_    0.818415 0.164476 0.946008 0.188386
H20   H     H_    0.813851 0.251841 0.854289 0.158984
H21   H     H_    0.966603 0.220425 0.866525 0.168232
O1    O     O_3   0.500000 0.500000 0.500000 -0.465330
O2    O     O_R   0.463530 0.379110 0.309170 -0.538544
O3    O     O_R   0.388210 0.611730 0.699360 -0.459970
O4    O     O_R   0.624720 0.532760 0.292120 -0.518923
O5    O     O_R   0.523540 0.476390 0.699360 -0.557156
O6    O     O_R   0.537910 0.240570 0.564270 -0.529717
O7    O     O_R   0.438950 0.782540 0.540270 -0.468987
O8    O     O_R   0.222350 0.398740 0.468260 -0.542132
O9    O     O_R   0.800790 0.578160 0.427210 -0.538021
O10   O     O_R   0.212140 0.566330 0.564260 -0.502692
O11   O     O_R   0.764730 0.456770 0.540270 -0.551916
O12   O     O_R   0.412790 0.208310 0.468260 -0.525005
O13   O     O_R   0.610350 0.768590 0.427210 -0.549684
Zn1   Zn    Zn3+2 0.580150 0.419820 0.574680 0.960426
Zn2   Zn    Zn3+2 0.401380 0.373730 0.437510 0.967396
Zn3   Zn    Zn3+2 0.631680 0.593260 0.413140 0.956922
Zn4   Zn    Zn3+2 0.386790 0.613180 0.574670 1.041451

loop_
_geom_bond_atom_site_label_1
_geom_bond_atom_site_label_2
_ccdc_geom_bond_type
C12   C17   A    
C15   C18   S    
C12   H17   S    
C30   H18   S    
C20   C23   S    
C18   H3    S    
C6    C7    D    
C2    H16   S    
C14   O3    A    
O5    Zn1   S    
C25   C27   A    
C29   C30   A    
C2    C16   A    
C9    C10   S    
C10   O6    A    
C21   H6    S    
O9    Zn3   S    
O13   Zn3   S    
C1    O8    A    
O7    Zn4   S    
C23   C25   A    
O1    Zn1   S    
C5    C14   S    
C3    C15   A    
C13   O2    A    
C24   H9    S    
O3    Zn4   S    
C3    Cl1   S    
C14   O5    A    
C12   C23   A    
C19   H20   S    
C15   C28   A    
O1    Zn2   S    
C17   Cl3   S    
C8    C11   S    
C20   H8    S    
C19   H21   S    
C4    O9    A    
C28   C29   A    
C22   H13   S    
C11   O13   A    
C26   C30   A    
C22   C24   S    
C10   O12   A    
C2    C27   A    
C4    O11   A    
C24   H11   S    
C7    H1    S    
C22   H14   S    
O10   Zn4   S    
O1    Zn3   S    
C5    C17   A    
C21   H5    S    
C29   H15   S    
C5    C26   A    
O12   Zn2   S    
C1    O10   A    
O11   Zn1   S    
C21   H4    S    
C20   C21   S    
O6    Zn1   S    
C4    C6    S    
C18   C19   S    
C18   H2    S    
C13   C16   S    
C27   C28   A    
O2    Zn2   S    
C24   H10   S    
C8    H12   S    
O4    Zn3   S    
C13   O4    A    
C9    Cl2   S    
C25   C26   A    
C1    C7    S    
C20   H7    S    
C19   H19   S    
O1    Zn4   S    
C3    C16   A    
O8    Zn2   S    
C8    C9    D    
C11   O7    A    
C6    C22   S    
