data_mof_unit_15698.cif
_audit_creation_date              2012-12-10T16:52:09-0500
_audit_creation_method            fapswitch 2.2
_symmetry_space_group_name_H-M    P1
_symmetry_Int_Tables_number       1
_space_group_crystal_system       triclinic
_cell_length_a                    7.744982
_cell_length_b                    8.627655
_cell_length_c                    14.97197
_cell_angle_alpha                 91.231864
_cell_angle_beta                  85.845318
_cell_angle_gamma                 93.675591
_cell_volume                      995.618175857

loop_
_atom_site_label
_atom_site_type_symbol
_atom_type_description
_atom_site_fract_x
_atom_site_fract_y
_atom_site_fract_z
_atom_type_partial_charge
C1    C     C_R   0.545479 0.794413 0.497676 0.872720
C2    C     C_R   0.654766 0.551884 0.809865 0.634095
C3    C     C_R   0.494369 0.502602 0.231292 -0.218479
C4    C     C_R   0.505632 0.497396 0.768707 -0.218449
C5    C     C_R   0.644026 0.557579 0.181277 -0.237695
C6    C     C_R   0.355995 0.442399 0.818721 -0.237745
C7    C     C_R   0.647705 0.557461 0.088847 0.000365
C8    C     C_R   0.352311 0.442521 0.911151 0.000372
C9    C     C_R   0.498544 0.501099 0.046564 -0.057057
C10   C     C_R   0.501466 0.498890 0.953434 -0.057062
C11   C     C_R   0.346586 0.446636 0.097398 -0.060505
C12   C     C_R   0.454521 0.205587 0.502324 0.872711
C13   C     C_R   0.653411 0.553367 0.902601 -0.060483
C14   C     C_R   0.797736 0.611923 0.038101 0.614737
C15   C     C_R   0.202277 0.388062 0.961898 0.614747
C16   C     C_R   0.800349 0.609640 0.945323 -0.143700
C17   C     C_R   0.199647 0.390362 0.054676 -0.143669
C18   C     C_2   0.569834 0.956799 0.496394 0.293546
C19   C     C_2   0.430166 0.043200 0.503606 0.293544
C20   C     C_R   0.502246 0.499997 0.673165 0.921236
C21   C     C_R   0.497754 0.500002 0.326835 0.921219
C22   C     C_R   0.345218 0.448132 0.190135 0.634068
F1    F     F_    0.201646 0.392088 0.239954 -0.655238
F2    F     F_    0.798304 0.607959 0.760047 -0.655261
F3    F     F_    0.941555 0.667485 0.078112 -0.659568
F4    F     F_    0.058463 0.332496 0.921886 -0.659569
F5    F     F_    0.737376 0.017106 0.487771 -0.606219
F6    F     F_    0.262624 0.982894 0.512229 -0.606219
H1    H     H_    0.757575 0.600772 0.214735 0.245056
H2    H     H_    0.242460 0.399193 0.785262 0.245047
H3    H     H_    0.917556 0.651817 0.907172 0.225715
H4    H     H_    0.082429 0.348197 0.092828 0.225719
H5    H     H_    0.014350 0.383096 0.432374 0.249270
H6    H     H_    0.985650 0.616904 0.567626 0.249267
N1    N     N_2   0.950330 0.457950 0.475660 -0.136007
N2    N     N_2   0.049670 0.542050 0.524340 -0.136009
O1    O     O_R   0.389250 0.738570 0.505970 -0.579186
O2    O     O_R   0.610750 0.261430 0.494030 -0.579187
O3    O     O_R   0.678390 0.711620 0.490370 -0.582680
O4    O     O_R   0.321610 0.288380 0.509630 -0.582685
O5    O     O_R   0.355420 0.513510 0.639950 -0.623862
O6    O     O_R   0.644580 0.486490 0.360050 -0.623857
O7    O     O_R   0.644560 0.486560 0.624350 -0.575715
O8    O     O_R   0.355440 0.513440 0.375650 -0.575711
Zn1   Zn    Zn3+2 0.306940 0.517990 0.510420 1.079191
Zn2   Zn    Zn3+2 0.693060 0.482010 0.489580 1.079192

loop_
_geom_bond_atom_site_label_1
_geom_bond_atom_site_label_2
_ccdc_geom_bond_type
C12   O4    A    
C2    C4    A    
C15   C17   A    
C21   O8    A    
C5    C7    A    
C9    C10   A    
C11   C22   A    
H6    N2    S    
N1    N2    D    
C1    O1    A    
C2    C13   A    
C20   O5    A    
N2    Zn1   S    
C16   H3    S    
C2    F2    S    
C19   F6    S    
C9    C11   A    
C1    C18   S    
O3    Zn2   S    
C12   C19   S    
C4    C6    A    
C6    H2    S    
C8    C15   A    
C5    H1    S    
C14   F3    S    
C12   O2    A    
O4    Zn1   S    
O7    Zn2   S    
C14   C16   A    
O2    Zn2   S    
C3    C21   S    
C1    O3    A    
O1    Zn1   S    
C21   O6    A    
C4    C20   S    
C3    C5    A    
C20   O7    A    
O8    Zn1   S    
C8    C10   A    
C18   C19   D    
O6    Zn2   S    
C13   C16   A    
C7    C9    A    
C17   H4    S    
O5    Zn1   S    
C22   F1    S    
C11   C17   A    
C3    C22   A    
C6    C8    A    
H5    N1    S    
N1    Zn2   S    
C7    C14   A    
C18   F5    S    
C15   F4    S    
C10   C13   A    
