data_mof_unit_17015.cif
_audit_creation_date              2012-12-11T14:15:05-0500
_audit_creation_method            fapswitch 2.2
_symmetry_space_group_name_H-M    P1
_symmetry_Int_Tables_number       1
_space_group_crystal_system       triclinic
_cell_length_a                    24.5259
_cell_length_b                    17.290262
_cell_length_c                    15.573262
_cell_angle_alpha                 90.000011
_cell_angle_beta                  129.304306
_cell_angle_gamma                 89.999985
_cell_volume                      5110.11522924

loop_
_atom_site_label
_atom_site_type_symbol
_atom_type_description
_atom_site_fract_x
_atom_site_fract_y
_atom_site_fract_z
_atom_type_partial_charge
C1    C     C_R   0.351163 0.359731 0.244778 -0.168104
C2    C     C_R   0.660173 0.660113 0.492800 0.044027
C3    C     C_R   0.839827 0.160114 0.507200 0.044025
C4    C     C_R   0.160172 0.160114 0.492800 0.044025
C5    C     C_R   0.353179 0.623298 0.133810 0.142795
C6    C     C_R   0.646822 0.623296 0.866191 0.142797
C7    C     C_R   0.853179 0.123298 0.133810 0.142795
C8    C     C_R   0.146821 0.123297 0.866190 0.142795
C9    C     C_2   0.664691 0.788266 0.441030 -0.196439
C10   C     C_2   0.335308 0.788267 0.558968 -0.196441
C11   C     C_2   0.164691 0.288267 0.441030 -0.196440
C12   C     C_R   0.648837 0.359731 0.755223 -0.168102
C13   C     C_2   0.835308 0.288267 0.558967 -0.196442
C14   C     C_2   0.697771 0.720033 0.484731 0.262908
C15   C     C_2   0.302229 0.720034 0.515270 0.262914
C16   C     C_2   0.197771 0.220034 0.484731 0.262913
C17   C     C_2   0.802229 0.220034 0.515270 0.262912
C18   C     C_2   0.195761 0.348408 0.419191 -0.112672
C19   C     C_2   0.804238 0.348406 0.580810 -0.112670
C20   C     C_2   0.695761 0.848406 0.419191 -0.112671
C21   C     C_2   0.304239 0.848407 0.580808 -0.112672
C22   C     C_2   0.257390 0.378221 0.504979 -0.150316
C23   C     C_R   0.851163 0.859731 0.244778 -0.168104
C24   C     C_2   0.742611 0.378222 0.495023 -0.150320
C25   C     C_2   0.757390 0.878220 0.504978 -0.150319
C26   C     C_2   0.242610 0.878221 0.495022 -0.150320
C27   C     C_2   0.641127 0.242508 0.847600 0.457129
C28   C     C_2   0.358873 0.242508 0.152400 0.457129
C29   C     C_2   0.141127 0.742508 0.847599 0.457129
C30   C     C_2   0.858873 0.742508 0.152400 0.457129
C31   C     C_2   0.695336 0.204742 0.865008 -0.260103
C32   C     C_2   0.304665 0.204741 0.134992 -0.260103
C33   C     C_2   0.195335 0.704742 0.865007 -0.260102
C34   C     C_R   0.148837 0.859731 0.755222 -0.168104
C35   C     C_2   0.804665 0.704741 0.134992 -0.260103
C36   C     C_2   0.307816 0.651503 0.019117 -0.245444
C37   C     C_2   0.692185 0.651501 0.980885 -0.245444
C38   C     C_2   0.807816 0.151503 0.019117 -0.245445
C39   C     C_2   0.192184 0.151502 0.980884 -0.245444
C40   C     C_R   0.616202 0.405570 0.408764 0.230846
C41   C     C_R   0.383798 0.405570 0.591236 0.230844
C42   C     C_R   0.116202 0.905570 0.408764 0.230845
C43   C     C_R   0.883798 0.905570 0.591236 0.230845
C44   C     C_2   0.237590 0.649461 0.956164 -0.019810
C45   C     C_R   0.400636 0.626445 0.596664 -0.210583
C46   C     C_2   0.762410 0.649460 0.043836 -0.019809
C47   C     C_2   0.737590 0.149461 0.956165 -0.019810
C48   C     C_2   0.262410 0.149461 0.043835 -0.019810
C49   C     C_R   0.690071 0.405401 0.592463 0.257518
C50   C     C_R   0.309929 0.405401 0.407537 0.257523
C51   C     C_R   0.190071 0.905401 0.592463 0.257521
C52   C     C_R   0.809929 0.905401 0.407537 0.257522
C53   C     C_R   0.557972 0.357895 0.754810 -0.059062
C54   C     C_R   0.442028 0.357895 0.245190 -0.059062
C55   C     C_R   0.057972 0.857895 0.754810 -0.059062
C56   C     C_R   0.599365 0.626444 0.403336 -0.210584
C57   C     C_R   0.942028 0.857895 0.245190 -0.059062
C58   C     C_R   0.383702 0.316155 0.213642 -0.000474
C59   C     C_R   0.616298 0.316156 0.786358 -0.000475
C60   C     C_R   0.883702 0.816156 0.213642 -0.000474
C61   C     C_R   0.116298 0.816156 0.786358 -0.000474
C62   C     C_R   0.685903 0.393281 0.500366 0.055806
C63   C     C_R   0.314097 0.393280 0.499634 0.055805
C64   C     C_R   0.185903 0.893281 0.500366 0.055806
C65   C     C_R   0.814097 0.893280 0.499634 0.055806
C66   C     C_R   0.323420 0.627798 0.411870 0.294888
C67   C     C_R   0.900636 0.126445 0.596664 -0.210583
C68   C     C_R   0.676580 0.627798 0.588130 0.294886
C69   C     C_R   0.823420 0.127798 0.411870 0.294888
C70   C     C_R   0.176580 0.127798 0.588130 0.294891
C71   C     C_R   0.424197 0.607964 0.198456 -0.137745
C72   C     C_R   0.575803 0.607963 0.801545 -0.137745
C73   C     C_R   0.924197 0.107964 0.198456 -0.137745
C74   C     C_R   0.075803 0.107964 0.801544 -0.137744
C75   C     C_R   0.667768 0.601354 0.805539 -0.115139
C76   C     C_R   0.332232 0.601356 0.194462 -0.115132
C77   C     C_R   0.167768 0.101355 0.805539 -0.115134
C78   C     C_R   0.099364 0.126445 0.403336 -0.210585
C79   C     C_R   0.832232 0.101356 0.194462 -0.115133
C80   C     C_3   0.768333 0.700430 0.515477 -0.930306
C81   C     C_3   0.231668 0.700430 0.484527 -0.930309
C82   C     C_3   0.268333 0.200430 0.515477 -0.930303
C83   C     C_3   0.731668 0.200429 0.484528 -0.930308
C84   C     C_3   0.591377 0.424910 0.295134 -1.016133
C85   C     C_3   0.408624 0.424910 0.704866 -1.016132
C86   C     C_3   0.091376 0.924910 0.295134 -1.016133
C87   C     C_3   0.908623 0.924910 0.704866 -1.016132
C88   C     C_3   0.754942 0.429038 0.705615 -1.047206
C89   C     C_R   0.339828 0.660114 0.507200 0.044025
C90   C     C_3   0.245058 0.429036 0.294384 -1.047209
C91   C     C_3   0.254942 0.929037 0.705615 -1.047208
C92   C     C_3   0.745058 0.929037 0.294384 -1.047209
C93   C     C_3   0.258193 0.644881 0.296257 -0.965028
C94   C     C_3   0.741805 0.644885 0.703744 -0.965018
C95   C     C_3   0.758193 0.144881 0.296256 -0.965028
C96   C     C_3   0.241806 0.144883 0.703743 -0.965036
Cl1   Cl    Cl    0.605014 0.212342 0.910973 -0.670394
Cl2   Cl    Cl    0.394986 0.212342 0.089027 -0.670393
Cl3   Cl    Cl    0.105014 0.712341 0.910973 -0.670394
Cl4   Cl    Cl    0.894986 0.712342 0.089027 -0.670394
H1    H     H_    0.304311 0.344838 0.232968 0.126455
H2    H     H_    0.727432 0.372530 0.412829 0.161778
H3    H     H_    0.772570 0.872525 0.587171 0.161778
H4    H     H_    0.227430 0.872526 0.412828 0.161779
H5    H     H_    0.212690 0.617215 0.982621 0.177922
H6    H     H_    0.787310 0.617215 0.017379 0.177922
H7    H     H_    0.712690 0.117215 0.982621 0.177922
H8    H     H_    0.287310 0.117215 0.017379 0.177922
H9    H     H_    0.716566 0.223890 0.825111 0.110844
H10   H     H_    0.283434 0.223889 0.174889 0.110844
H11   H     H_    0.216566 0.723890 0.825110 0.110844
H12   H     H_    0.695689 0.344838 0.767032 0.126455
H13   H     H_    0.783434 0.723889 0.174889 0.110845
H14   H     H_    0.332489 0.683288 0.991526 0.141617
H15   H     H_    0.667512 0.683286 0.008476 0.141617
H16   H     H_    0.832488 0.183288 0.991525 0.141617
H17   H     H_    0.167512 0.183287 0.008475 0.141617
H18   H     H_    0.520136 0.340441 0.764905 0.165009
H19   H     H_    0.479864 0.340441 0.235095 0.165009
H20   H     H_    0.020136 0.840441 0.764904 0.165009
H21   H     H_    0.979864 0.840441 0.235095 0.165009
H22   H     H_    0.454650 0.607352 0.170174 0.098107
H23   H     H_    0.804311 0.844838 0.232968 0.126455
H24   H     H_    0.545350 0.607352 0.829826 0.098107
H25   H     H_    0.954650 0.107352 0.170174 0.098107
H26   H     H_    0.045350 0.107352 0.829826 0.098107
H27   H     H_    0.721287 0.591280 0.839436 0.117053
H28   H     H_    0.278713 0.591283 0.160565 0.117053
H29   H     H_    0.221287 0.091282 0.839435 0.117053
H30   H     H_    0.778713 0.091283 0.160565 0.117053
H31   H     H_    0.425847 0.634752 0.683329 0.124813
H32   H     H_    0.574154 0.634751 0.316671 0.124813
H33   H     H_    0.925846 0.134752 0.683329 0.124813
H34   H     H_    0.195689 0.844838 0.767032 0.126455
H35   H     H_    0.074153 0.134752 0.316671 0.124813
H36   H     H_    0.611726 0.797272 0.412853 0.130109
H37   H     H_    0.388273 0.797274 0.587143 0.130109
H38   H     H_    0.111725 0.297272 0.412852 0.130108
H39   H     H_    0.888272 0.297274 0.587140 0.130111
H40   H     H_    0.781196 0.638350 0.538067 0.248094
H41   H     H_    0.767160 0.711594 0.444092 0.246337
H42   H     H_    0.810805 0.735148 0.588000 0.250507
H43   H     H_    0.218806 0.638349 0.461939 0.248093
H44   H     H_    0.232843 0.711595 0.555913 0.246337
H45   H     H_    0.177450 0.349467 0.335590 0.156943
H46   H     H_    0.189196 0.735147 0.412004 0.250509
H47   H     H_    0.281195 0.138350 0.538065 0.248093
H48   H     H_    0.267160 0.211596 0.444093 0.246337
H49   H     H_    0.310805 0.235148 0.588002 0.250506
H50   H     H_    0.718806 0.138349 0.461939 0.248093
H51   H     H_    0.732844 0.211593 0.555915 0.246336
H52   H     H_    0.689195 0.235147 0.412006 0.250510
H53   H     H_    0.628268 0.466458 0.301357 0.252918
H54   H     H_    0.588725 0.371415 0.253241 0.263999
H55   H     H_    0.538694 0.452678 0.244513 0.252988
H56   H     H_    0.822544 0.349456 0.664408 0.156943
H57   H     H_    0.371732 0.466457 0.698643 0.252919
H58   H     H_    0.411276 0.371415 0.746760 0.263999
H59   H     H_    0.461306 0.452678 0.755486 0.252988
H60   H     H_    0.128268 0.966458 0.301357 0.252918
H61   H     H_    0.088725 0.871415 0.253240 0.263999
H62   H     H_    0.038694 0.952678 0.244514 0.252988
H63   H     H_    0.871732 0.966457 0.698643 0.252918
H64   H     H_    0.911275 0.871415 0.746760 0.263998
H65   H     H_    0.961306 0.952678 0.755486 0.252988
H66   H     H_    0.740297 0.462618 0.748956 0.255271
H67   H     H_    0.677453 0.849462 0.335591 0.156943
H68   H     H_    0.784353 0.377197 0.756707 0.238243
H69   H     H_    0.789098 0.466182 0.699070 0.266654
H70   H     H_    0.259703 0.462614 0.251041 0.255270
H71   H     H_    0.215646 0.377193 0.243295 0.238245
H72   H     H_    0.210902 0.466181 0.300928 0.266653
H73   H     H_    0.240297 0.962616 0.748957 0.255271
H74   H     H_    0.284354 0.877195 0.756706 0.238244
H75   H     H_    0.289098 0.966182 0.699070 0.266654
H76   H     H_    0.759703 0.962615 0.251042 0.255270
H77   H     H_    0.715647 0.877194 0.243294 0.238244
H78   H     H_    0.322547 0.849462 0.664408 0.156944
H79   H     H_    0.710902 0.966181 0.300929 0.266654
H80   H     H_    0.233524 0.590888 0.248640 0.251238
H81   H     H_    0.218488 0.674893 0.296731 0.265679
H82   H     H_    0.271112 0.684548 0.255573 0.258034
H83   H     H_    0.766479 0.590893 0.751360 0.251240
H84   H     H_    0.781508 0.674906 0.703271 0.265677
H85   H     H_    0.728882 0.684547 0.744426 0.258030
H86   H     H_    0.733523 0.090888 0.248640 0.251238
H87   H     H_    0.718488 0.174893 0.296731 0.265679
H88   H     H_    0.771111 0.184548 0.255572 0.258034
H89   H     H_    0.272571 0.372523 0.587173 0.161778
H90   H     H_    0.266478 0.090891 0.751360 0.251240
H91   H     H_    0.281510 0.174899 0.703269 0.265680
H92   H     H_    0.228886 0.184547 0.744427 0.258034
N1    N     N_R   0.389060 0.424180 0.294540 -0.034706
N2    N     N_R   0.374530 0.423490 0.443400 -0.072333
N3    N     N_R   0.125470 0.923490 0.556600 -0.072333
N4    N     N_R   0.874530 0.923490 0.443400 -0.072333
N5    N     N_R   0.555250 0.423100 0.705420 -0.049755
N6    N     N_R   0.444750 0.423100 0.294580 -0.049755
N7    N     N_R   0.055250 0.923100 0.705420 -0.049755
N8    N     N_R   0.944750 0.923100 0.294580 -0.049755
N9    N     N_R   0.375210 0.577180 0.443400 -0.055250
N10   N     N_R   0.624790 0.577180 0.556600 -0.055250
N11   N     N_R   0.875210 0.077180 0.443400 -0.055250
N12   N     N_R   0.610940 0.424180 0.705460 -0.034705
N13   N     N_R   0.124790 0.077180 0.556600 -0.055250
N14   N     N_R   0.445430 0.577570 0.294580 -0.041444
N15   N     N_R   0.554570 0.577570 0.705420 -0.041444
N16   N     N_R   0.945430 0.077570 0.294580 -0.041444
N17   N     N_R   0.054570 0.077570 0.705420 -0.041444
N18   N     N_R   0.611620 0.576500 0.705460 -0.044197
N19   N     N_R   0.388380 0.576500 0.294540 -0.044197
N20   N     N_R   0.111620 0.076500 0.705460 -0.044197
N21   N     N_R   0.888380 0.076500 0.294540 -0.044197
N22   N     N_R   0.421010 0.576890 0.556640 -0.049315
N23   N     N_R   0.889060 0.924180 0.294540 -0.034706
N24   N     N_R   0.578990 0.576890 0.443360 -0.049315
N25   N     N_R   0.921010 0.076890 0.556640 -0.049315
N26   N     N_R   0.078990 0.076890 0.443360 -0.049315
N27   N     N_R   0.110940 0.924180 0.705460 -0.034706
N28   N     N_R   0.579670 0.423790 0.443360 -0.073012
N29   N     N_R   0.420330 0.423790 0.556640 -0.073012
N30   N     N_R   0.079670 0.923790 0.443360 -0.073012
N31   N     N_R   0.920330 0.923790 0.556640 -0.073012
N32   N     N_R   0.625470 0.423490 0.556600 -0.072333
Ni1   Ni    Ni4+2 0.383200 0.500680 0.370150 0.209836
Ni2   Ni    Ni4+2 0.616800 0.500680 0.629850 0.209836
Ni3   Ni    Ni4+2 0.883200 0.000680 0.370150 0.209836
Ni4   Ni    Ni4+2 0.116800 0.000680 0.629850 0.209836
Ni5   Ni    Ni4+2 0.512440 0.500680 0.370150 0.208600
Ni6   Ni    Ni4+2 0.487560 0.500680 0.629850 0.208600
Ni7   Ni    Ni4+2 0.012440 0.000680 0.370150 0.208600
Ni8   Ni    Ni4+2 0.987560 0.000680 0.629850 0.208600

loop_
_geom_bond_atom_site_label_1
_geom_bond_atom_site_label_2
_ccdc_geom_bond_type
C87   H63   S    
C21   C26   D    
C11   C18   S    
C4    C16   S    
N16   N21   A    
C50   C63   A    
C30   Cl4   S    
N18   Ni2   S    
C40   C84   S    
C71   H22   S    
C70   C96   S    
C52   N4    A    
C94   H85   S    
N28   N32   A    
N7    Ni8   S    
C18   H45   S    
C36   H14   S    
N8    N23   A    
C4    C70   A    
C82   H47   S    
C53   C59   A    
N6    Ni5   S    
C95   H87   S    
C6    C75   A    
C75   N18   A    
C23   N23   A    
C44   H5    S    
C92   H76   S    
C70   N13   A    
C6    C72   A    
C43   C87   S    
N3    N30   A    
C8    C74   A    
C90   H72   S    
C32   H10   S    
N3    Ni4   S    
N5    N12   A    
C13   H39   S    
C96   H91   S    
C3    C69   A    
C11   H38   S    
C2    C68   A    
C10   C15   D    
N25   Ni8   S    
C84   H55   S    
C20   C25   D    
C34   H34   S    
N1    N6    A    
C5    C36   S    
C29   C33   D    
C40   N28   A    
N17   N20   A    
C40   C62   A    
C91   H73   S    
N13   Ni4   S    
C93   H82   S    
C96   H90   S    
C26   C64   S    
C39   H17   S    
C77   N20   A    
C26   H4    S    
C22   C63   S    
C12   C59   A    
C93   H81   S    
N14   N19   A    
C50   C90   S    
C71   N14   A    
C55   N7    A    
C88   H68   S    
C30   C60   S    
C90   H71   S    
N15   N18   A    
C35   H13   S    
C42   C86   S    
C10   H37   S    
C14   C80   S    
N27   Ni4   S    
C72   N15   A    
C45   C89   A    
C78   H35   S    
C75   H27   S    
C83   H50   S    
C51   C91   S    
C87   H64   S    
N4    Ni3   S    
C31   C47   S    
C54   H19   S    
C72   H24   S    
N14   Ni5   S    
C19   H56   S    
C32   C48   S    
C49   C88   S    
C85   H57   S    
N5    Ni6   S    
N11   Ni3   S    
C93   H80   S    
C95   H88   S    
C45   N22   A    
C66   C89   A    
C83   H51   S    
C55   H20   S    
C81   H44   S    
C10   C21   S    
C23   C60   A    
N9    N22   A    
C29   C61   S    
N13   N26   A    
C15   C81   S    
C13   C19   S    
C74   N17   A    
C27   C31   D    
N4    N31   A    
C28   C32   D    
C47   H7    S    
N7    N27   A    
C7    C73   A    
C43   N31   A    
C29   Cl3   S    
C53   H18   S    
C25   H3    S    
C57   C60   A    
C23   H23   S    
C80   H40   S    
C79   H30   S    
C68   N10   A    
C34   C61   A    
C68   C94   S    
C86   H62   S    
C91   H74   S    
C17   C83   S    
N17   Ni8   S    
N20   Ni4   S    
N29   Ni6   S    
C1    N1    A    
C9    C14   D    
C4    C78   A    
N21   Ni3   S    
C92   H79   S    
C15   C89   S    
C38   H16   S    
C84   H53   S    
C9    C20   S    
C67   N25   A    
C43   C65   A    
C90   H70   S    
C16   C82   S    
N24   Ni5   S    
C31   H9    S    
C6    C37   S    
C25   C65   S    
C86   H61   S    
C77   H29   S    
C46   H6    S    
C22   H89   S    
C38   C47   D    
C56   H32   S    
C79   N21   A    
C2    C56   A    
C66   C93   S    
C33   H11   S    
N28   Ni5   S    
C76   N19   A    
C21   H78   S    
N8    Ni7   S    
N9    Ni1   S    
N30   Ni7   S    
C45   H31   S    
C88   H66   S    
N2    N29   A    
C57   N8    A    
N19   Ni1   S    
C8    C77   A    
C48   H8    S    
C36   C44   D    
C94   H83   S    
C41   C63   A    
N12   Ni2   S    
N22   Ni6   S    
C1    H1    S    
C12   H12   S    
N31   Ni8   S    
N2    Ni1   S    
C7    C79   A    
C83   H52   S    
C54   C58   A    
C28   Cl2   S    
C94   H84   S    
C20   H67   S    
C27   Cl1   S    
C24   C62   S    
C49   C62   A    
C84   H54   S    
C67   H33   S    
C34   N27   A    
C33   C44   S    
C19   C24   D    
C73   N16   A    
C11   C16   D    
C3    C67   A    
C51   C64   A    
C88   H69   S    
C69   C95   S    
N32   Ni2   S    
C42   C64   A    
C82   H48   S    
N15   Ni6   S    
C69   N11   A    
C66   N9    A    
C37   H15   S    
C28   C58   S    
C41   C85   S    
C80   H42   S    
C54   N6    A    
C13   C17   D    
C53   N5    A    
C96   H92   S    
C5    C76   A    
C18   C22   D    
C30   C35   D    
N1    Ni1   S    
C49   N32   A    
C27   C59   S    
C1    C58   A    
C78   N26   A    
C50   N2    A    
C74   H26   S    
C73   H25   S    
C55   C61   A    
C7    C38   S    
C3    C17   S    
C24   H2    S    
C12   N12   A    
C2    C14   S    
N11   N25   A    
N26   Ni7   S    
C56   N24   A    
C82   H49   S    
C52   C92   S    
C92   H77   S    
C87   H65   S    
N16   Ni7   S    
C57   H21   S    
N23   Ni3   S    
C9    H36   S    
C81   H43   S    
C5    C71   A    
C81   H46   S    
C85   H58   S    
N10   Ni2   S    
C8    C39   S    
C51   N3    A    
C85   H59   S    
N10   N24   A    
C37   C46   D    
C42   N30   A    
C35   C46   S    
C86   H60   S    
C80   H41   S    
C41   N29   A    
C52   C65   A    
C91   H75   S    
C95   H86   S    
C39   C48   D    
C76   H28   S    
