data_mof_unit_52215.cif
_audit_creation_date              2012-12-10T19:48:01-0500
_audit_creation_method            fapswitch 2.2
_symmetry_space_group_name_H-M    P1
_symmetry_Int_Tables_number       1
_space_group_crystal_system       triclinic
_cell_length_a                    15.013733
_cell_length_b                    14.102098
_cell_length_c                    10.682708
_cell_angle_alpha                 88.818174
_cell_angle_beta                  90.079511
_cell_angle_gamma                 89.265906
_cell_volume                      2261.12795583

loop_
_atom_site_label
_atom_site_type_symbol
_atom_type_description
_atom_site_fract_x
_atom_site_fract_y
_atom_site_fract_z
_atom_type_partial_charge
C1    C     C_R   0.327849 0.500542 0.500938 0.903202
C2    C     C_R   0.578335 0.795194 0.500862 -0.080351
C3    C     C_R   0.534383 0.202043 0.599087 -0.110254
C4    C     C_R   0.420997 0.796134 0.500411 -0.124492
C5    C     C_R   0.498526 0.053220 0.500115 -0.011325
C6    C     C_R   0.498740 0.946776 0.500114 -0.010793
C7    C     C_R   0.520240 0.500567 0.264034 0.944380
C8    C     C_R   0.501578 0.499026 0.742219 0.988012
C9    C     C_R   0.549462 0.679949 0.108572 0.452669
C10   C     C_R   0.609657 0.349351 0.871050 0.383473
C11   C     C_R   0.436108 0.655092 0.904766 0.421455
C12   C     C_R   0.672588 0.499785 0.499092 0.970096
C13   C     C_R   0.609711 0.335143 0.127492 0.413390
C14   C     C_R   0.504862 0.757991 0.054254 -0.255435
C15   C     C_R   0.628845 0.262315 0.928721 -0.255479
C16   C     C_R   0.443663 0.744345 0.958374 -0.245103
C17   C     C_R   0.626660 0.254612 0.057556 -0.266759
C18   C     C_R   0.492831 0.579164 0.947005 -0.065521
C19   C     C_R   0.572475 0.418972 0.069151 -0.033215
C20   C     C_R   0.533636 0.587857 0.063502 -0.037710
C21   C     C_R   0.564482 0.421356 0.937355 -0.032617
C22   C     C_R   0.515497 0.497561 0.877699 -0.157126
C23   C     C_R   0.048966 0.502970 0.516442 0.113550
C24   C     C_R   0.549774 0.503210 0.133207 -0.122254
C25   C     C_R   0.093046 0.577224 0.454435 -0.155512
C26   C     C_R   0.908834 0.416300 0.493842 -0.168425
C27   C     C_R   0.904364 0.585334 0.534435 -0.155556
C28   C     C_R   0.097093 0.428905 0.575211 -0.155816
C29   C     C_R   0.184943 0.577120 0.450737 -0.174745
C30   C     C_R   0.816961 0.415361 0.489400 -0.064679
C31   C     C_R   0.812647 0.584808 0.527383 -0.152642
C32   C     C_R   0.188913 0.427805 0.569154 -0.161411
C33   C     C_R   0.232552 0.501748 0.506611 -0.008905
C34   C     C_R   0.952668 0.501355 0.516111 0.102444
C35   C     C_R   0.768677 0.499891 0.504184 -0.002981
C36   C     C_3   0.478574 0.076646 0.188963 -0.318150
C37   C     C_3   0.705084 0.927099 0.384058 -0.241949
C38   C     C_3   0.505748 0.050116 0.800930 -0.346977
C39   C     C_3   0.283199 0.914052 0.603916 -0.278708
C40   C     C_R   0.464599 0.106512 0.397133 0.432536
C41   C     C_R   0.579692 0.895277 0.496908 0.418741
C42   C     C_R   0.533046 0.102196 0.602783 0.434625
C43   C     C_R   0.418219 0.896483 0.504429 0.417947
C44   C     C_R   0.464362 0.206720 0.400937 -0.106840
Cl1   Cl    Cl    0.634377 0.701026 0.218311 -0.663124
Cl2   Cl    Cl    0.683717 0.379705 0.751433 -0.644658
Cl3   Cl    Cl    0.344043 0.638389 0.804823 -0.652712
Cl4   Cl    Cl    0.663462 0.331866 0.272445 -0.650925
H1    H     H_    0.653122 0.190564 0.102233 0.188978
H2    H     H_    0.784090 0.348756 0.474170 0.212745
H3    H     H_    0.776407 0.650614 0.541353 0.158182
H4    H     H_    0.225810 0.370074 0.614371 0.154936
H5    H     H_    0.435316 0.248059 0.324566 0.165470
H6    H     H_    0.640393 0.755793 0.503711 0.174103
H7    H     H_    0.562135 0.239175 0.676524 0.184210
H8    H     H_    0.359778 0.756981 0.497821 0.174460
H9    H     H_    0.468406 0.150255 0.152153 0.166456
H10   H     H_    0.456237 0.027896 0.115369 0.186020
H11   H     H_    0.550663 0.061664 0.205981 0.153250
H12   H     H_    0.402835 0.803417 0.924730 0.177784
H13   H     H_    0.661236 0.938777 0.300742 0.159661
H14   H     H_    0.735000 0.854627 0.383834 0.186174
H15   H     H_    0.760409 0.978224 0.375931 0.197108
H16   H     H_    0.443787 0.014482 0.770757 0.163864
H17   H     H_    0.490021 0.122496 0.834900 0.155095
H18   H     H_    0.533922 0.008235 0.880981 0.196947
H19   H     H_    0.320968 0.899844 0.692413 0.150886
H20   H     H_    0.246688 0.849902 0.575677 0.180558
H21   H     H_    0.232709 0.969861 0.623610 0.195384
H22   H     H_    0.659815 0.205774 0.876428 0.214995
H23   H     H_    0.515189 0.828538 0.089277 0.177758
H24   H     H_    0.056511 0.634094 0.406877 0.141777
H25   H     H_    0.945551 0.351010 0.478160 0.143705
H26   H     H_    0.937522 0.651173 0.554107 0.141877
H27   H     H_    0.063731 0.372081 0.625369 0.144538
H28   H     H_    0.218689 0.634396 0.401943 0.149899
N1    N     N_R   0.500000 0.252470 0.500000 -0.120934
N2    N     N_R   0.500000 0.747530 0.500000 -0.122856
O1    O     O_R   0.369060 0.579480 0.500010 -0.605208
O2    O     O_3   0.659483 0.943439 0.497113 -0.572679
O3    O     O_3   0.569347 0.052741 0.704004 -0.556829
O4    O     O_3   0.338267 0.947025 0.505640 -0.573074
O5    O     O_R   0.630940 0.420520 0.499990 -0.537640
O6    O     O_R   0.630940 0.579480 0.499990 -0.635408
O7    O     O_R   0.369060 0.420520 0.500010 -0.629456
O8    O     O_R   0.499990 0.579480 0.316780 -0.590704
O9    O     O_R   0.500010 0.420520 0.683220 -0.619963
O10   O     O_R   0.500010 0.579480 0.683220 -0.577291
O11   O     O_R   0.499990 0.420520 0.316780 -0.607298
O12   O     O_3   0.427093 0.060102 0.297383 -0.561159
Zn1   Zn    Zn3+2 0.500000 0.606140 0.500000 1.017852
Zn2   Zn    Zn3+2 0.500000 0.393860 0.500000 1.012454

loop_
_geom_bond_atom_site_label_1
_geom_bond_atom_site_label_2
_ccdc_geom_bond_type
C5    C42   A    
C11   C18   A    
C9    Cl1   S    
C14   H23   S    
C11   Cl3   S    
C36   H11   S    
C26   H25   S    
C41   O2    S    
C37   H14   S    
C1    C33   S    
N1    Zn2   S    
C29   H28   S    
O5    Zn2   S    
C30   C35   A    
C44   N1    A    
C19   C21   A    
C36   H10   S    
C10   C15   A    
C5    C6    S    
C7    O8    A    
C2    C41   A    
C7    C24   S    
C7    O11   A    
C29   C33   A    
C3    C42   A    
C12   O6    A    
C18   C20   A    
C16   H12   S    
C32   H4    S    
C3    H7    S    
C44   H5    S    
C26   C34   A    
C38   H18   S    
C6    C41   A    
C10   Cl2   S    
C8    C22   S    
C38   H17   S    
O6    Zn1   S    
C27   H26   S    
O1    Zn1   S    
C30   H2    S    
C27   C34   A    
O9    Zn2   S    
C4    H8    S    
C25   C29   A    
C42   O3    S    
C37   H15   S    
O7    Zn2   S    
C38   H16   S    
C10   C21   A    
C1    O7    A    
C37   O2    S    
C13   C19   A    
C27   C31   A    
C20   C24   A    
C28   C32   A    
C36   H9    S    
C2    H6    S    
C17   H1    S    
C12   O5    A    
C12   C35   S    
C9    C14   A    
C39   H20   S    
C4    N2    A    
C2    N2    A    
C11   C16   A    
C9    C20   A    
O10   Zn1   S    
C23   C34   S    
C39   H21   S    
C25   H24   S    
C23   C28   A    
O11   Zn2   S    
C26   C30   A    
C6    C43   A    
C38   O3    S    
C1    O1    A    
C31   C35   A    
C3    N1    A    
C36   O12   S    
C15   C17   A    
C15   H22   S    
C18   C22   A    
C39   H19   S    
C39   O4    S    
C31   H3    S    
C13   Cl4   S    
C37   H13   S    
C4    C43   A    
N2    Zn1   S    
C13   C17   A    
O8    Zn1   S    
C8    O9    A    
C40   O12   S    
C32   C33   A    
C19   C24   A    
C14   C16   A    
C23   C25   A    
C40   C44   A    
C5    C40   A    
C43   O4    S    
C8    O10   A    
C21   C22   A    
C28   H27   S    
