data_mof_unit_57883.cif
_audit_creation_date              2012-12-11T17:25:08-0500
_audit_creation_method            fapswitch 2.2
_symmetry_space_group_name_H-M    P1
_symmetry_Int_Tables_number       1
_space_group_crystal_system       triclinic
_cell_length_a                    6.954889
_cell_length_b                    20.548928
_cell_length_c                    24.47955
_cell_angle_alpha                 90.161252
_cell_angle_beta                  90.452926
_cell_angle_gamma                 89.484948
_cell_volume                      3498.24362924

loop_
_atom_site_label
_atom_site_type_symbol
_atom_type_description
_atom_site_fract_x
_atom_site_fract_y
_atom_site_fract_z
_atom_type_partial_charge
O1    O     O_R   0.507280 0.423750 0.460310 -0.534396
O2    O     O_R   0.171030 0.555650 0.437630 -0.535382
O3    O     O_R   0.004080 0.576250 0.539690 -0.536479
C1    C     C_R   0.339095 0.575649 0.421829 0.722470
O4    O     O_R   0.177330 0.422980 0.453960 -0.534951
O5    O     O_R   0.010420 0.442640 0.556140 -0.535731
C2    C     C_R   0.346249 0.399081 0.443246 0.684552
O6    O     O_R   0.500930 0.557360 0.443860 -0.537285
O7    O     O_3   0.340310 0.506600 0.533500 -0.367103
V1    V     V_3+5 0.064140 0.498780 0.493780 1.445382
O8    O     O_R   0.680890 0.444350 0.562370 -0.534447
C3    C     C_R   0.850550 0.424366 0.578114 0.725871
O9    O     O_R   0.674590 0.577020 0.546040 -0.538179
C4    C     C_R   0.842781 0.600846 0.556813 0.711926
V2    V     V_3+5 0.564550 0.501220 0.506220 1.444514
O10   O     O_3   0.838250 0.493400 0.466500 -0.367682
C5    C     C_R   0.975413 0.838296 0.910970 -0.082090
C6    C     C_R   0.848052 0.661723 0.588795 -0.078773
C7    C     C_R   0.037484 0.721856 0.905838 0.365057
C8    C     C_R   0.029788 0.780065 0.935897 -0.251766
C9    C     C_R   0.928156 0.839005 0.855137 -0.218945
C10   C     C_R   0.935705 0.781165 0.822899 0.049373
C11   C     C_R   0.992052 0.722452 0.849438 0.099260
C12   C     C_R   0.892625 0.779742 0.765232 0.003710
C13   C     C_R   0.908864 0.720129 0.735040 0.079155
C14   C     C_R   0.966281 0.663563 0.763622 -0.189582
C15   C     C_R   0.005237 0.664758 0.819257 -0.148831
C16   C     C_R   0.831167 0.835880 0.737042 -0.212456
C17   C     C_R   0.790920 0.835456 0.681337 0.374070
C18   C     C_R   0.820396 0.778284 0.649901 -0.014363
C19   C     C_R   0.870484 0.719100 0.677160 -0.012796
C20   C     C_R   0.803230 0.779105 0.591920 0.383437
C21   C     C_R   0.813886 0.720518 0.562404 -0.252524
C22   C     C_R   0.879278 0.660950 0.645360 -0.191833
H1    H     H_    0.048791 0.619518 0.838554 0.180326
H2    H     H_    0.795074 0.720674 0.518397 0.108315
H3    H     H_    0.067611 0.780142 0.978945 0.109190
H4    H     H_    0.985179 0.616959 0.744185 0.127021
H5    H     H_    0.805874 0.881541 0.757501 0.154091
H6    H     H_    0.634400 0.229863 0.811637 0.112692
C23   C     C_R   0.734492 0.283807 0.741357 0.371646
C24   C     C_R   0.891190 0.294951 0.706525 0.095199
C25   C     C_R   0.064789 0.261070 0.715583 -0.217075
H7    H     H_    0.186370 0.269067 0.689114 0.169021
C26   C     C_R   0.083437 0.216611 0.758800 -0.153854
C27   C     C_R   0.928482 0.205050 0.793667 0.104776
C28   C     C_R   0.754464 0.238691 0.784777 -0.240631
C29   C     C_1   0.875186 0.340993 0.661379 0.044595
C30   C     C_1   0.947439 0.158921 0.838575 -0.024133
C31   C     C_1   0.961028 0.120687 0.876302 -0.186784
C32   C     C_1   0.862879 0.379183 0.623594 -0.162919
C33   C     C_R   0.587668 0.780484 0.240922 -0.153794
C34   C     C_R   0.431551 0.794805 0.206154 -0.050525
C35   C     C_R   0.252903 0.763845 0.215659 0.367922
C36   C     C_R   0.236501 0.719849 0.259314 -0.158213
H8    H     H_    0.099578 0.696527 0.266063 0.186027
C37   C     C_R   0.392623 0.705520 0.294078 -0.050989
C38   C     C_R   0.571265 0.736486 0.284576 0.367988
C39   C     C_1   0.457990 0.841009 0.161421 -0.014806
C40   C     C_1   0.366219 0.659269 0.338778 -0.018462
C41   C     C_1   0.349385 0.620972 0.376332 -0.182635
C42   C     C_1   0.474842 0.879249 0.123827 -0.178282
C43   C     C_R   0.472018 0.161598 0.089284 -0.080004
C44   C     C_R   0.352633 0.337086 0.412463 -0.140766
C45   C     C_R   0.528737 0.278007 0.094713 0.363839
C46   C     C_R   0.522717 0.219864 0.064547 -0.254126
C47   C     C_R   0.427542 0.160773 0.145105 -0.218949
C48   C     C_R   0.434753 0.218472 0.177540 0.046076
C49   C     C_R   0.486012 0.277295 0.151088 0.101765
C50   C     C_R   0.395550 0.219714 0.235266 -0.002305
C51   C     C_R   0.408818 0.279451 0.265467 0.075596
C52   C     C_R   0.459568 0.336195 0.236883 -0.196354
C53   C     C_R   0.496321 0.335033 0.181286 -0.147057
C54   C     C_R   0.342616 0.163149 0.263633 -0.175952
C55   C     C_R   0.303940 0.163603 0.319259 0.351089
C56   C     C_R   0.325887 0.221389 0.350050 -0.051912
C57   C     C_R   0.373459 0.280388 0.323330 0.051150
C58   C     C_R   0.304841 0.220709 0.407301 -0.136118
C59   C     C_R   0.316692 0.277324 0.438570 0.358643
C60   C     C_R   0.383105 0.338062 0.355756 -0.229084
H9    H     H_    0.409955 0.385093 0.338273 0.110474
H10   H     H_    0.558525 0.219896 0.021525 0.105064
H11   H     H_    0.474030 0.382949 0.256283 0.125901
O11   O     O_R   0.323320 0.942780 0.056240 -0.537374
O12   O     O_R   0.647300 0.077050 0.046060 -0.537822
O13   O     O_R   0.813840 0.057330 0.943840 -0.535607
C61   C     C_R   0.478460 0.100946 0.056902 0.717902
O14   O     O_R   0.653250 0.944380 0.062400 -0.534721
O15   O     O_R   0.819830 0.923720 0.960300 -0.536187
C62   C     C_R   0.485155 0.924483 0.078268 0.722838
O16   O     O_R   0.317330 0.076390 0.039790 -0.536578
O17   O     O_3   0.483830 0.993470 0.966560 -0.367515
V3    V     V_3+5 0.760140 0.001210 0.006210 1.439555
O18   O     O_R   0.149290 0.922840 0.953850 -0.538182
C63   C     C_R   0.981004 0.899029 0.943163 0.718665
O19   O     O_R   0.143340 0.055500 0.937510 -0.537608
C64   C     C_R   0.973663 0.075509 0.921788 0.724077
V4    V     V_3+5 0.259690 0.998600 0.993650 1.436154
O20   O     O_3   0.986130 0.006520 0.033440 -0.367162
O21   O     O_3   0.783267 0.837521 0.564437 -0.622062
H12   H     H_    0.775044 0.829236 0.524557 0.301954
O22   O     O_3   0.564280 0.317330 0.732343 -0.646914
H13   H     H_    0.470161 0.304426 0.760445 0.284788
H14   H     H_    0.219044 0.191230 0.764984 0.133540
O23   O     O_3   0.733392 0.725733 0.316416 -0.642636
H15   H     H_    0.705405 0.693939 0.345469 0.294273
H16   H     H_    0.724596 0.803800 0.234170 0.188273
O24   O     O_3   0.090779 0.774588 0.183814 -0.643977
H17   H     H_    0.118760 0.806372 0.154753 0.294277
H18   H     H_    0.535165 0.380397 0.161987 0.179869
H19   H     H_    0.905251 0.613817 0.663162 0.103130
O25   O     O_3   0.290641 0.271477 0.494292 -0.636607
H20   H     H_    0.315223 0.313493 0.512705 0.282067
O26   O     O_3   0.244497 0.105804 0.341886 -0.630049
H21   H     H_    0.142604 0.115752 0.368738 0.294885
O27   O     O_3   0.578291 0.335892 0.070038 -0.646039
H22   H     H_    0.603725 0.327884 0.030770 0.295140
H23   H     H_    0.392711 0.113997 0.161851 0.108599
H24   H     H_    0.324892 0.116952 0.243511 0.150128
H25   H     H_    0.280936 0.175785 0.429043 0.161570
O28   O     O_3   0.715923 0.892041 0.659554 -0.602740
H26   H     H_    0.601016 0.879864 0.637717 0.329652
O29   O     O_3   0.091362 0.664032 0.930635 -0.645106
H27   H     H_    0.118223 0.672133 0.969907 0.298615
H28   H     H_    0.891743 0.885831 0.838152 0.109077

loop_
_geom_bond_atom_site_label_1
_geom_bond_atom_site_label_2
_ccdc_geom_bond_type
C13   C19   A    
H6    C28   S    
C36   H8    S    
C61   O16   A    
C23   C24   A    
C4    C6    S    
C58   H25   S    
C7    C8    A    
C1    O6    A    
C21   H2    S    
O26   H21   S    
C34   C39   S    
O17   V4    S    
O29   H27   S    
C26   C27   A    
C23   O22   S    
C54   H24   S    
C27   C30   S    
C7    O29   S    
C14   C15   A    
C59   O25   S    
C16   C17   A    
C26   H14   S    
C56   C58   A    
O5    C3    A    
C18   C19   A    
C60   H9    S    
O18   V4    S    
V2    O10   S    
V4    O20   S    
C5    C8    A    
O24   H17   S    
O13   C64   A    
O17   V3    S    
O14   V3    S    
O12   V3    S    
C29   C32   T    
C33   H16   S    
C48   C49   A    
C39   C42   T    
C17   O28   S    
C50   C54   A    
C49   C53   A    
C50   C51   A    
O1    V2    S    
C11   C15   A    
O7    V1    S    
V3    O20   S    
C43   C46   A    
O9    C4    A    
C22   H19   S    
C44   C60   A    
O22   H13   S    
O11   C62   A    
O25   H20   S    
C47   H23   S    
O12   C61   A    
C43   C47   A    
C54   C55   A    
C47   C48   A    
C53   H18   S    
C12   C13   A    
O4    C2    A    
C58   C59   A    
C14   H4    S    
C37   C40   S    
C16   H5    S    
C15   H1    S    
C13   C14   A    
C34   C35   A    
C1    C41   S    
C5    C9    A    
C20   O21   S    
O19   V4    S    
C40   C41   T    
O15   C63   A    
O2    C1    A    
C55   C56   A    
C17   C18   A    
O13   V3    S    
C46   H10   S    
C6    C22   A    
O19   C64   A    
C23   C28   A    
C19   C22   A    
C55   O26   S    
C24   C29   S    
C56   C57   A    
C25   C26   A    
O28   H26   S    
O3    C4    A    
C33   C38   A    
C5    C63   S    
O14   C62   A    
C45   C46   A    
O6    V2    S    
O8    V2    S    
C36   C37   A    
C25   H7    S    
C44   C59   A    
C10   C12   A    
C24   C25   A    
C9    H28   S    
O2    V1    S    
C51   C57   A    
C3    C32   S    
C33   C34   A    
C7    C11   A    
C57   C60   A    
C35   C36   A    
C27   C28   A    
C31   C64   S    
C43   C61   S    
O1    C2    A    
C12   C16   A    
C52   C53   A    
O5    V1    S    
O8    C3    A    
O23   H15   S    
C35   O24   S    
C38   O23   S    
O11   V4    S    
C20   C21   A    
O9    V2    S    
O7    V2    S    
O4    V1    S    
O3    V1    S    
V1    O10   S    
C18   C20   A    
C8    H3    S    
C37   C38   A    
C45   C49   A    
C42   C62   S    
O21   H12   S    
C45   O27   S    
O27   H22   S    
O16   V4    S    
O15   V3    S    
O18   C63   A    
C6    C21   A    
C2    C44   S    
C52   H11   S    
C51   C52   A    
C48   C50   A    
C30   C31   T    
C10   C11   A    
C9    C10   A    
