data_mof_unit_60870.cif
_audit_creation_date              2012-12-10T18:30:40-0500
_audit_creation_method            fapswitch 2.2
_symmetry_space_group_name_H-M    P1
_symmetry_Int_Tables_number       1
_space_group_crystal_system       triclinic
_cell_length_a                    18.323804
_cell_length_b                    18.267228
_cell_length_c                    42.883633
_cell_angle_alpha                 89.921858
_cell_angle_beta                  90.000364
_cell_angle_gamma                 89.999972
_cell_volume                      14354.2152299

loop_
_atom_site_label
_atom_site_type_symbol
_atom_type_description
_atom_site_fract_x
_atom_site_fract_y
_atom_site_fract_z
_atom_type_partial_charge
C1    C     C_R   0.000448 0.500049 0.665845 0.767045
C2    C     C_R   0.499969 0.000070 0.334126 0.778760
C3    C     C_R   0.000454 0.499951 0.334155 0.767011
C4    C     C_R   0.499969 0.999929 0.665874 0.778815
C5    C     C_R   0.500452 0.000049 0.165845 0.766996
C6    C     C_R   0.999969 0.500070 0.834126 0.778810
C7    C     C_R   0.500449 0.999951 0.834155 0.767042
C8    C     C_R   0.999969 0.499927 0.165874 0.778800
C9    C     C_R   0.999791 0.500443 0.868408 -0.000188
C10   C     C_R   0.501958 0.000120 0.131572 -0.004229
C11   C     C_R   0.999790 0.499545 0.131592 -0.000209
C12   C     C_R   0.501955 0.999879 0.868428 -0.004253
C13   C     C_R   0.499792 0.000443 0.368408 -0.000245
C14   C     C_R   0.001955 0.500121 0.631571 -0.004267
C15   C     C_R   0.499790 0.999554 0.631592 -0.000167
C16   C     C_R   0.001974 0.499880 0.368428 -0.004228
C17   C     C_R   0.499292 0.999686 0.531634 0.289716
C18   C     C_R   0.007534 0.499939 0.468364 0.290169
C19   C     C_R   0.499292 0.000315 0.468366 0.289724
C20   C     C_R   0.007521 0.500070 0.531636 0.290163
C21   C     C_R   0.999290 0.499665 0.031634 0.289718
C22   C     C_R   0.507502 0.999934 0.968364 0.290166
C23   C     C_R   0.999291 0.500300 0.968366 0.289720
C24   C     C_R   0.507501 0.000065 0.031636 0.290166
C25   C     C_R   0.141934 0.640399 0.749594 0.807640
C26   C     C_R   0.641692 0.859264 0.249483 0.822062
C27   C     C_R   0.859321 0.358345 0.750364 0.833817
C28   C     C_R   0.360303 0.142770 0.250582 0.840391
C29   C     C_R   0.859319 0.641652 0.249637 0.833847
C30   C     C_R   0.360318 0.857217 0.749408 0.840436
C31   C     C_R   0.141924 0.359590 0.250400 0.807827
C32   C     C_R   0.641690 0.140738 0.750516 0.822054
C33   C     C_R   0.641931 0.140403 0.249596 0.807669
C34   C     C_R   0.141691 0.359263 0.749483 0.822055
C35   C     C_R   0.359316 0.858350 0.250361 0.833857
C36   C     C_R   0.860316 0.642781 0.750590 0.840424
C37   C     C_R   0.359321 0.141655 0.749635 0.833818
C38   C     C_R   0.860313 0.357221 0.249411 0.840436
C39   C     C_R   0.641932 0.859598 0.750405 0.807689
C40   C     C_R   0.141687 0.640742 0.250516 0.822020
C41   C     C_3   0.183151 0.241178 0.723069 -0.209132
C42   C     C_3   0.248292 0.812999 0.279226 -0.193137
C43   C     C_3   0.835806 0.779267 0.739514 -0.219116
C44   C     C_3   0.771666 0.166422 0.265783 -0.191762
C45   C     C_3   0.835795 0.220745 0.260505 -0.219108
C46   C     C_3   0.771680 0.833591 0.734232 -0.191746
C47   C     C_3   0.183087 0.758898 0.276901 -0.209160
C48   C     C_3   0.248342 0.187057 0.720753 -0.193122
C49   C     C_3   0.683137 0.741160 0.223076 -0.209143
C50   C     C_3   0.748337 0.312949 0.779245 -0.193116
C51   C     C_3   0.335744 0.279204 0.239415 -0.219031
C52   C     C_3   0.271698 0.666392 0.765751 -0.191734
C53   C     C_3   0.335819 0.720720 0.760465 -0.219135
C54   C     C_3   0.271601 0.333515 0.234153 -0.191812
C55   C     C_3   0.683141 0.258836 0.776926 -0.209147
C56   C     C_3   0.748331 0.687044 0.220758 -0.193126
C57   C     C_3   0.275997 0.337406 0.742299 -0.289485
C58   C     C_3   0.337180 0.721548 0.253433 -0.291614
C59   C     C_3   0.739333 0.678211 0.728535 -0.295833
C60   C     C_3   0.673586 0.268201 0.267014 -0.289847
C61   C     C_3   0.739314 0.321808 0.271456 -0.295852
C62   C     C_3   0.673600 0.731813 0.732977 -0.289886
C63   C     C_3   0.275970 0.662626 0.257742 -0.289535
C64   C     C_3   0.337198 0.278465 0.746591 -0.291610
C65   C     C_3   0.775995 0.837398 0.242287 -0.289498
C66   C     C_3   0.837194 0.221535 0.753411 -0.291606
C67   C     C_3   0.239227 0.178106 0.228585 -0.295870
C68   C     C_3   0.173619 0.768169 0.767035 -0.289879
C69   C     C_3   0.239356 0.821766 0.771476 -0.295831
C70   C     C_3   0.173515 0.231734 0.233031 -0.289855
C71   C     C_3   0.775991 0.162599 0.757708 -0.289495
C72   C     C_3   0.837197 0.778460 0.246586 -0.291600
C73   C     C_3   0.203757 0.262961 0.781299 0.258312
C74   C     C_3   0.257549 0.803597 0.220199 0.290676
C75   C     C_3   0.772778 0.712924 0.784028 0.308530
C76   C     C_3   0.719828 0.219930 0.215465 0.275091
C77   C     C_3   0.772799 0.287056 0.215972 0.308537
C78   C     C_3   0.719809 0.780051 0.784536 0.275050
C79   C     C_3   0.203790 0.736999 0.218689 0.258246
C80   C     C_3   0.257517 0.196366 0.779783 0.290639
C81   C     C_3   0.703769 0.762976 0.281302 0.258309
C82   C     C_3   0.757519 0.303631 0.720214 0.290631
C83   C     C_3   0.272906 0.213042 0.284029 0.308424
C84   C     C_3   0.219788 0.719969 0.715461 0.275014
C85   C     C_3   0.272748 0.787104 0.715973 0.308566
C86   C     C_3   0.219906 0.280145 0.284526 0.275209
C87   C     C_3   0.703763 0.237033 0.718699 0.258294
C88   C     C_3   0.757524 0.696376 0.279788 0.290648
C89   C     C_3   0.199651 0.301608 0.748547 -0.050076
C90   C     C_3   0.302190 0.800053 0.251252 -0.063793
C91   C     C_3   0.804079 0.702223 0.750184 -0.058126
C92   C     C_3   0.700449 0.197263 0.249855 -0.066696
C93   C     C_3   0.804075 0.297781 0.249819 -0.058141
C94   C     C_3   0.700452 0.802739 0.750147 -0.066671
C95   C     C_3   0.199635 0.698409 0.251452 -0.050030
C96   C     C_3   0.302201 0.199958 0.748743 -0.063807
C97   C     C_3   0.699650 0.801606 0.248547 -0.050070
C98   C     C_3   0.802200 0.300043 0.751256 -0.063808
C99   C     C_3   0.304062 0.202206 0.250169 -0.058162
C100  C     C_3   0.200456 0.697256 0.749851 -0.066678
C101  C     C_3   0.304082 0.797774 0.749813 -0.058119
C102  C     C_3   0.200434 0.302720 0.250137 -0.066680
C103  C     C_3   0.699647 0.198395 0.751452 -0.050058
C104  C     C_3   0.802199 0.699955 0.248744 -0.063809
C105  C     C_R   0.065790 0.501731 0.884995 -0.198031
C106  C     C_R   0.502746 0.933807 0.115091 -0.184504
C107  C     C_R   0.933573 0.499465 0.884863 -0.195864
C108  C     C_R   0.503570 0.066447 0.115030 -0.194196
C109  C     C_R   0.933573 0.500559 0.115137 -0.195858
C110  C     C_R   0.503561 0.933552 0.884970 -0.194175
C111  C     C_R   0.065788 0.498208 0.115006 -0.198048
C112  C     C_R   0.502752 0.066192 0.884909 -0.184516
C113  C     C_R   0.565790 0.001804 0.384994 -0.198050
C114  C     C_R   0.002800 0.433808 0.615091 -0.184515
C115  C     C_R   0.433576 0.999394 0.384863 -0.195814
C116  C     C_R   0.003515 0.566449 0.615030 -0.194191
C117  C     C_R   0.433572 0.000515 0.615136 -0.195886
C118  C     C_R   0.003685 0.433555 0.384969 -0.194139
C119  C     C_R   0.565790 0.998278 0.615006 -0.198019
C120  C     C_R   0.002677 0.566194 0.384909 -0.184501
C121  C     C_R   0.065603 0.501638 0.917477 -0.162122
C122  C     C_R   0.504879 0.933795 0.082620 -0.161248
C123  C     C_R   0.933357 0.499607 0.917351 -0.164981
C124  C     C_R   0.505746 0.066454 0.082551 -0.167968
C125  C     C_R   0.933357 0.500409 0.082649 -0.164976
C126  C     C_R   0.505738 0.933545 0.917449 -0.167969
C127  C     C_R   0.065602 0.498291 0.082524 -0.162128
C128  C     C_R   0.504887 0.066204 0.917380 -0.161248
C129  C     C_R   0.565604 0.001717 0.417476 -0.162139
C130  C     C_R   0.004941 0.433798 0.582620 -0.161244
C131  C     C_R   0.433360 0.999541 0.417351 -0.164972
C132  C     C_R   0.005697 0.566458 0.582551 -0.167976
C133  C     C_R   0.433357 0.000370 0.582649 -0.164981
C134  C     C_R   0.005869 0.433549 0.417448 -0.167954
C135  C     C_R   0.565604 0.998368 0.582524 -0.162129
C136  C     C_R   0.004819 0.566208 0.417380 -0.161255
C137  C     C_R   0.999391 0.500548 0.933991 0.085383
C138  C     C_R   0.506271 0.000117 0.066011 0.084429
C139  C     C_R   0.999389 0.499421 0.066009 0.085379
C140  C     C_R   0.506271 0.999883 0.933989 0.084431
C141  C     C_R   0.499392 0.000558 0.433991 0.085349
C142  C     C_R   0.006282 0.500121 0.566011 0.084430
C143  C     C_R   0.499391 0.999442 0.566009 0.085396
C144  C     C_R   0.006305 0.499887 0.433989 0.084420
H1    H     H_    0.135061 0.209462 0.731430 0.190808
H2    H     H_    0.225021 0.869156 0.277422 0.184767
H3    H     H_    0.868955 0.800835 0.759207 0.193499
H4    H     H_    0.786731 0.113845 0.254345 0.162511
H5    H     H_    0.868963 0.199165 0.240820 0.193503
H6    H     H_    0.786734 0.886163 0.745676 0.162498
H7    H     H_    0.135029 0.790612 0.268505 0.190848
H8    H     H_    0.225051 0.130906 0.722541 0.184796
H9    H     H_    0.635054 0.709446 0.231446 0.190812
H10   H     H_    0.725052 0.369103 0.777456 0.184792
H11   H     H_    0.368999 0.300844 0.259061 0.193429
H12   H     H_    0.286740 0.613827 0.754298 0.162481
H13   H     H_    0.368945 0.699169 0.740761 0.193519
H14   H     H_    0.286709 0.386118 0.245559 0.162568
H15   H     H_    0.635059 0.290555 0.768557 0.190819
H16   H     H_    0.725044 0.630891 0.222549 0.184780
H17   H     H_    0.229508 0.301721 0.798144 0.020611
H18   H     H_    0.297923 0.798485 0.200767 0.036658
H19   H     H_    0.739352 0.663384 0.789665 0.021805
H20   H     H_    0.668782 0.239137 0.203725 0.029709
H21   H     H_    0.739377 0.336594 0.210324 0.021786
H22   H     H_    0.668756 0.760841 0.796270 0.029771
H23   H     H_    0.229559 0.698207 0.201863 0.020641
H24   H     H_    0.297865 0.201448 0.799228 0.036666
H25   H     H_    0.729531 0.801743 0.298141 0.020614
H26   H     H_    0.797869 0.298551 0.700771 0.036685
H27   H     H_    0.239526 0.163512 0.289732 0.021845
H28   H     H_    0.168726 0.739180 0.703735 0.029794
H29   H     H_    0.239309 0.836646 0.710351 0.021787
H30   H     H_    0.168890 0.260941 0.296292 0.029625
H31   H     H_    0.729521 0.198269 0.701858 0.020613
H32   H     H_    0.797879 0.701462 0.299230 0.036658
H33   H     H_    0.285627 0.380852 0.760018 0.144256
H34   H     H_    0.364135 0.710258 0.230663 0.135053
H35   H     H_    0.720725 0.622706 0.735792 0.127482
H36   H     H_    0.633598 0.295934 0.251407 0.127467
H37   H     H_    0.720709 0.377307 0.264188 0.127503
H38   H     H_    0.633604 0.704068 0.748576 0.127486
H39   H     H_    0.285625 0.619114 0.240056 0.144256
H40   H     H_    0.364149 0.289707 0.769366 0.135085
H41   H     H_    0.785631 0.880862 0.259997 0.144253
H42   H     H_    0.864139 0.210286 0.730635 0.135076
H43   H     H_    0.220644 0.122632 0.235896 0.127634
H44   H     H_    0.133613 0.795927 0.751445 0.127466
H45   H     H_    0.220743 0.877277 0.764232 0.127452
H46   H     H_    0.133569 0.204048 0.248672 0.127540
H47   H     H_    0.785623 0.119139 0.739996 0.144260
H48   H     H_    0.864144 0.789714 0.269360 0.135069
H49   H     H_    0.117676 0.502511 0.872903 0.167907
H50   H     H_    0.501755 0.881821 0.127257 0.167628
H51   H     H_    0.881833 0.498528 0.872664 0.162447
H52   H     H_    0.503353 0.118417 0.127156 0.167552
H53   H     H_    0.881833 0.501533 0.127335 0.162456
H54   H     H_    0.503337 0.881583 0.872844 0.167547
H55   H     H_    0.117673 0.497396 0.127098 0.167915
H56   H     H_    0.501768 0.118179 0.872743 0.167643
H57   H     H_    0.617674 0.002641 0.372902 0.167938
H58   H     H_    0.001852 0.381822 0.627257 0.167657
H59   H     H_    0.381837 0.998395 0.372664 0.162472
H60   H     H_    0.003252 0.618419 0.627155 0.167566
H61   H     H_    0.381832 0.001441 0.627335 0.162444
H62   H     H_    0.003538 0.381585 0.372843 0.167513
H63   H     H_    0.617676 0.997511 0.627098 0.167897
H64   H     H_    0.001610 0.618179 0.372744 0.167614
H65   H     H_    0.117429 0.502423 0.929599 0.154199
H66   H     H_    0.505275 0.881738 0.070579 0.152700
H67   H     H_    0.881398 0.498862 0.929371 0.155223
H68   H     H_    0.506892 0.118501 0.070451 0.153763
H69   H     H_    0.881398 0.501185 0.070628 0.155223
H70   H     H_    0.506879 0.881498 0.929549 0.153762
H71   H     H_    0.117426 0.497469 0.070402 0.154201
H72   H     H_    0.505290 0.118261 0.929421 0.152704
H73   H     H_    0.617428 0.002561 0.429599 0.154209
H74   H     H_    0.005384 0.381741 0.570579 0.152705
H75   H     H_    0.381401 0.998741 0.429371 0.155247
H76   H     H_    0.006803 0.618505 0.570451 0.153768
H77   H     H_    0.381398 0.001102 0.570628 0.155216
H78   H     H_    0.007091 0.381504 0.429548 0.153750
H79   H     H_    0.617430 0.997593 0.570402 0.154197
H80   H     H_    0.005145 0.618264 0.429422 0.152701
N1    N     N_R   0.935553 0.500152 0.984492 -0.176067
N2    N     N_R   0.507636 0.063955 0.015449 -0.176484
N3    N     N_R   0.063005 0.500116 0.984497 -0.176239
N4    N     N_R   0.507622 0.936111 0.015563 -0.176601
N5    N     N_R   0.063005 0.499804 0.015503 -0.176240
N6    N     N_R   0.507632 0.063888 0.984437 -0.176599
N7    N     N_R   0.935553 0.499856 0.015508 -0.176067
N8    N     N_R   0.507626 0.936044 0.984551 -0.176486
N9    N     N_R   0.435555 0.000105 0.484492 -0.176067
N10   N     N_R   0.007584 0.563960 0.515449 -0.176484
N11   N     N_R   0.563006 0.000197 0.484497 -0.176239
N12   N     N_R   0.007721 0.436116 0.515563 -0.176600
N13   N     N_R   0.563006 0.999888 0.515503 -0.176240
N14   N     N_R   0.007586 0.563894 0.484437 -0.176598
N15   N     N_R   0.435555 0.999812 0.515508 -0.176069
N16   N     N_R   0.007731 0.436049 0.484551 -0.176485
O1    O     O_3   1.000000 0.500000 0.750000 -0.478578
O2    O     O_3   0.500000 0.000000 0.250000 -0.478562
O3    O     O_3   0.000000 0.500000 0.250000 -0.478578
O4    O     O_3   0.500000 0.000000 0.750000 -0.478581
O5    O     O_R   0.000020 0.438710 0.680680 -0.640901
O6    O     O_R   0.438710 0.999980 0.319320 -0.657569
O7    O     O_R   0.999980 0.561290 0.680680 -0.648689
O8    O     O_R   0.561290 0.000020 0.319320 -0.644859
O9    O     O_R   0.999980 0.438710 0.319320 -0.648660
O10   O     O_R   0.561290 0.999980 0.680680 -0.644847
O11   O     O_R   0.000020 0.561290 0.319320 -0.640899
O12   O     O_R   0.438710 0.000020 0.680680 -0.657589
O13   O     O_R   0.500020 0.938710 0.180680 -0.640922
O14   O     O_R   0.938710 0.499980 0.819320 -0.657587
O15   O     O_R   0.499980 0.061290 0.180680 -0.648669
O16   O     O_R   0.061290 0.500020 0.819320 -0.644846
O17   O     O_R   0.499980 0.938710 0.819320 -0.648686
O18   O     O_R   0.061290 0.499980 0.180680 -0.644875
O19   O     O_R   0.500020 0.061290 0.819320 -0.640898
O20   O     O_R   0.938710 0.500020 0.180680 -0.657579
O21   O     O_R   0.086240 0.647480 0.731820 -0.667713
O22   O     O_R   0.647480 0.913760 0.268180 -0.678565
O23   O     O_R   0.913760 0.352520 0.731820 -0.662274
O24   O     O_R   0.352520 0.086240 0.268180 -0.667139
O25   O     O_R   0.913760 0.647480 0.268180 -0.662270
O26   O     O_R   0.352520 0.913760 0.731820 -0.667005
O27   O     O_R   0.086240 0.352520 0.268180 -0.667686
O28   O     O_R   0.647480 0.086240 0.731820 -0.678564
O29   O     O_R   0.586240 0.147480 0.231820 -0.667720
O30   O     O_R   0.147480 0.413760 0.768180 -0.678566
O31   O     O_R   0.413760 0.852520 0.231820 -0.662250
O32   O     O_R   0.852520 0.586240 0.768180 -0.667027
O33   O     O_R   0.413760 0.147480 0.768180 -0.662273
O34   O     O_R   0.852520 0.413760 0.231820 -0.667050
O35   O     O_R   0.586240 0.852520 0.768180 -0.667705
O36   O     O_R   0.147480 0.586240 0.231820 -0.678557
O37   O     O_R   0.852520 0.413810 0.768170 -0.642836
O38   O     O_R   0.413810 0.147480 0.231830 -0.632815
O39   O     O_R   0.147480 0.586190 0.768170 -0.636937
O40   O     O_R   0.586190 0.852520 0.231830 -0.633678
O41   O     O_R   0.147480 0.413810 0.231830 -0.637002
O42   O     O_R   0.586190 0.147480 0.768170 -0.633684
O43   O     O_R   0.852520 0.586190 0.231830 -0.642851
O44   O     O_R   0.413810 0.852520 0.768170 -0.632818
O45   O     O_R   0.352520 0.913810 0.268170 -0.642869
O46   O     O_R   0.913810 0.647480 0.731830 -0.632817
O47   O     O_R   0.647480 0.086190 0.268170 -0.636960
O48   O     O_R   0.086190 0.352520 0.731830 -0.633684
O49   O     O_R   0.647480 0.913810 0.731830 -0.636949
O50   O     O_R   0.086190 0.647480 0.268170 -0.633684
O51   O     O_R   0.352520 0.086190 0.731830 -0.642841
O52   O     O_R   0.913810 0.352520 0.268170 -0.632814
Zn1   Zn    Zn3+2 0.087550 0.500010 0.775970 0.959726
Zn2   Zn    Zn3+2 0.500010 0.912450 0.224030 0.960835
Zn3   Zn    Zn3+2 0.912450 0.499990 0.775970 0.952698
Zn4   Zn    Zn3+2 0.499990 0.087550 0.224030 0.964918
Zn5   Zn    Zn3+2 0.912450 0.500010 0.224030 0.952690
Zn6   Zn    Zn3+2 0.499990 0.912450 0.775970 0.964954
Zn7   Zn    Zn3+2 0.087550 0.499990 0.224030 0.959685
Zn8   Zn    Zn3+2 0.500010 0.087550 0.775970 0.960855
Zn9   Zn    Zn3+2 0.587550 0.000010 0.275970 0.959693
Zn10  Zn    Zn3+2 0.000010 0.412450 0.724030 0.960849
Zn11  Zn    Zn3+2 0.412450 0.999990 0.275970 0.952655
Zn12  Zn    Zn3+2 0.999990 0.587550 0.724030 0.964942
Zn13  Zn    Zn3+2 0.412450 0.000010 0.724030 0.952701
Zn14  Zn    Zn3+2 0.999990 0.412450 0.275970 0.964985
Zn15  Zn    Zn3+2 0.587550 0.999990 0.724030 0.959725
Zn16  Zn    Zn3+2 0.000010 0.587550 0.275970 0.960858
C145  C     C_1   0.160739 0.270015 0.692027 0.236375
N17   N     N_1   0.143134 0.292326 0.667891 -0.189570
C146  C     C_1   0.286799 0.811249 0.309765 0.223043
N18   N     N_1   0.316701 0.810163 0.333540 -0.199494
C147  C     C_1   0.887623 0.779428 0.712821 0.232634
N19   N     N_1   0.928001 0.779911 0.692055 -0.186057
C148  C     C_1   0.760018 0.148238 0.299302 0.261683
N20   N     N_1   0.751111 0.133892 0.325327 -0.187262
C149  C     C_1   0.887586 0.220605 0.287207 0.232679
N21   N     N_1   0.927943 0.220139 0.307981 -0.186017
C150  C     C_1   0.760057 0.851791 0.700712 0.261691
N22   N     N_1   0.751169 0.866150 0.674687 -0.187234
C151  C     C_1   0.160585 0.730149 0.307945 0.236419
N23   N     N_1   0.142910 0.707908 0.332084 -0.189487
C152  C     C_1   0.286894 0.188817 0.690224 0.222920
N24   N     N_1   0.316828 0.189910 0.666457 -0.199511
C153  C     C_1   0.660703 0.769976 0.192034 0.236372
N25   N     N_1   0.643080 0.792272 0.167897 -0.189551
C154  C     C_1   0.786885 0.311182 0.809775 0.222934
N26   N     N_1   0.816817 0.310082 0.833542 -0.199517
C155  C     C_1   0.387419 0.279252 0.212671 0.232770
N27   N     N_1   0.427684 0.279647 0.191865 -0.186055
C156  C     C_1   0.260107 0.648171 0.799270 0.261707
N28   N     N_1   0.251244 0.633796 0.825295 -0.187235
C157  C     C_1   0.387668 0.720534 0.787146 0.232609
N29   N     N_1   0.428071 0.720032 0.807904 -0.186045
C158  C     C_1   0.259836 0.351622 0.200633 0.261628
N30   N     N_1   0.250838 0.365909 0.174608 -0.187257
C159  C     C_1   0.660708 0.230017 0.807968 0.236384
N31   N     N_1   0.643087 0.207720 0.832104 -0.189541
C160  C     C_1   0.786874 0.688804 0.190227 0.222959
N32   N     N_1   0.816802 0.689898 0.166458 -0.199512
C161  C     C_1   0.278201 0.375221 0.711726 0.235375
N33   N     N_1   0.280073 0.404350 0.687776 -0.215778
C162  C     C_1   0.396762 0.715644 0.276615 0.243965
N34   N     N_1   0.443130 0.710293 0.294754 -0.209552
C163  C     C_1   0.763126 0.671004 0.695630 0.249499
N35   N     N_1   0.781517 0.665592 0.669917 -0.199642
C164  C     C_1   0.631815 0.253593 0.296013 0.232082
N36   N     N_1   0.599047 0.242192 0.318577 -0.198294
C165  C     C_1   0.763085 0.329041 0.304363 0.249458
N37   N     N_1   0.781458 0.334475 0.330078 -0.199626
C166  C     C_1   0.631847 0.746437 0.703975 0.232044
N38   N     N_1   0.599092 0.757852 0.681408 -0.198199
C167  C     C_1   0.278122 0.624942 0.288344 0.235384
N39   N     N_1   0.279954 0.595929 0.312320 -0.215726
C168  C     C_1   0.396786 0.284404 0.723413 0.244015
N40   N     N_1   0.443160 0.289782 0.705279 -0.209514
C169  C     C_1   0.778189 0.875175 0.211706 0.235374
N41   N     N_1   0.780054 0.904272 0.187749 -0.215760
C170  C     C_1   0.896785 0.215596 0.776587 0.244001
N42   N     N_1   0.943161 0.210215 0.794721 -0.209517
C171  C     C_1   0.262888 0.170765 0.195668 0.249289
N43   N     N_1   0.281173 0.165251 0.169946 -0.199687
C172  C     C_1   0.131888 0.753522 0.796041 0.232063
N44   N     N_1   0.099151 0.742089 0.818610 -0.198220
C173  C     C_1   0.263179 0.828940 0.804379 0.249542
N45   N     N_1   0.281594 0.834328 0.830090 -0.199623
C174  C     C_1   0.131661 0.246260 0.204046 0.232018
N46   N     N_1   0.098827 0.257597 0.181494 -0.198220
C175  C     C_1   0.778186 0.124812 0.788287 0.235379
N47   N     N_1   0.780051 0.095707 0.812242 -0.215766
C176  C     C_1   0.896790 0.784385 0.223410 0.243998
N48   N     N_1   0.943172 0.789746 0.205277 -0.209508
O53   O     O_3   0.133347 0.239584 0.791307 -0.628543
C177  C     C_3   0.100545 0.288155 0.813082 0.112159
H81   H     H_    0.048306 0.307660 0.802929 0.161670
H82   H     H_    0.132551 0.338304 0.818569 0.133365
C178  C     C_3   0.084924 0.247566 0.843545 -0.383215
H83   H     H_    0.052938 0.197221 0.838651 0.245695
H84   H     H_    0.137358 0.231285 0.854549 0.200140
C179  C     C_3   0.042299 0.295563 0.866264 -0.898292
H85   H     H_    0.074672 0.344841 0.872411 0.260792
H86   H     H_    0.030865 0.264284 0.887935 0.268966
H87   H     H_    0.989572 0.312849 0.855784 0.272128
O54   O     O_3   0.220165 0.871865 0.218532 -0.599415
C180  C     C_3   0.204830 0.893333 0.187390 0.193497
H88   H     H_    0.144622 0.895610 0.184643 0.152123
H89   H     H_    0.225296 0.855201 0.169096 0.089103
C181  C     C_3   0.234527 0.970200 0.181089 -0.424980
H90   H     H_    0.215814 0.988254 0.157652 0.188619
H91   H     H_    0.212314 0.009048 0.198607 0.223476
C182  C     C_3   0.317740 0.972456 0.181901 -0.743845
H92   H     H_    0.337502 0.966387 0.206174 0.254935
H93   H     H_    0.337183 0.025966 0.172915 0.234504
H94   H     H_    0.341215 0.928436 0.167135 0.234119
O55   O     O_3   0.831025 0.723970 0.805619 -0.611373
C183  C     C_3   0.830227 0.672919 0.830556 0.124197
H95   H     H_    0.886240 0.670982 0.840446 0.165886
H96   H     H_    0.817621 0.616175 0.822872 0.154618
C184  C     C_3   0.777458 0.696805 0.856283 -0.373411
H97   H     H_    0.791677 0.752972 0.864049 0.240862
H98   H     H_    0.720756 0.697096 0.847139 0.202624
C185  C     C_3   0.781174 0.645138 0.884232 -0.953713
H99   H     H_    0.766095 0.588667 0.877133 0.261100
H100  H     H_    0.742413 0.663788 0.902467 0.272720
H101  H     H_    0.837089 0.644761 0.894249 0.272021
O56   O     O_3   0.753579 0.160451 0.199537 -0.608456
C186  C     C_3   0.707688 0.130273 0.176353 0.092240
H102  H     H_    0.682897 0.173282 0.161274 0.121752
H103  H     H_    0.663823 0.097502 0.187515 0.154937
C187  C     C_3   0.752944 0.080089 0.155495 -0.329637
H104  H     H_    0.792985 0.113256 0.142106 0.222187
H105  H     H_    0.783898 0.040942 0.170203 0.249659
C188  C     C_3   0.704758 0.037662 0.132787 -0.914218
H106  H     H_    0.666216 0.001907 0.145763 0.265302
H107  H     H_    0.739391 0.002692 0.117665 0.275360
H108  H     H_    0.673392 0.076030 0.117789 0.262865
O57   O     O_3   0.831060 0.275994 0.194390 -0.611343
C189  C     C_3   0.830281 0.327030 0.169448 0.124203
H109  H     H_    0.886299 0.328956 0.159563 0.165898
H110  H     H_    0.817677 0.383780 0.177125 0.154613
C190  C     C_3   0.777523 0.303135 0.143718 -0.373381
H111  H     H_    0.791747 0.246968 0.135955 0.240854
H112  H     H_    0.720817 0.302842 0.152857 0.202625
C191  C     C_3   0.781248 0.354797 0.115767 -0.953695
H113  H     H_    0.766160 0.411269 0.122863 0.261094
H114  H     H_    0.742498 0.336141 0.097529 0.272712
H115  H     H_    0.837168 0.355178 0.105756 0.272038
O58   O     O_3   0.753554 0.839521 0.800472 -0.608474
C192  C     C_3   0.707667 0.869663 0.823666 0.092220
H116  H     H_    0.682924 0.826631 0.838747 0.121745
H117  H     H_    0.663765 0.902402 0.812514 0.154990
C193  C     C_3   0.752912 0.919874 0.844517 -0.329657
H118  H     H_    0.792978 0.886730 0.857903 0.222192
H119  H     H_    0.783838 0.959033 0.829804 0.249661
C194  C     C_3   0.704720 0.962284 0.867227 -0.914221
H120  H     H_    0.666149 0.998011 0.854253 0.265282
H121  H     H_    0.739344 0.997281 0.882343 0.275362
H122  H     H_    0.673385 0.923905 0.882233 0.262871
O59   O     O_3   0.133395 0.760372 0.208658 -0.628587
C195  C     C_3   0.100601 0.711775 0.186892 0.112206
H123  H     H_    0.048386 0.692237 0.197056 0.161644
H124  H     H_    0.132642 0.661653 0.181397 0.133377
C196  C     C_3   0.084912 0.752353 0.156433 -0.383201
H125  H     H_    0.052896 0.802676 0.161334 0.245734
H126  H     H_    0.137319 0.768673 0.145417 0.200141
C197  C     C_3   0.042291 0.704328 0.133723 -0.898297
H127  H     H_    0.074689 0.655069 0.127571 0.260806
H128  H     H_    0.030815 0.735597 0.112054 0.268973
H129  H     H_    0.989587 0.687011 0.144214 0.272102
O60   O     O_3   0.220131 0.128096 0.781422 -0.599435
C198  C     C_3   0.204760 0.106572 0.812554 0.193584
H130  H     H_    0.144549 0.104296 0.815287 0.152104
H131  H     H_    0.225208 0.144669 0.830866 0.089124
C199  C     C_3   0.234441 0.029688 0.818835 -0.425032
H132  H     H_    0.215632 0.011558 0.842247 0.188592
H133  H     H_    0.212308 0.990892 0.801278 0.223451
C200  C     C_3   0.317658 0.027445 0.818088 -0.744259
H134  H     H_    0.337526 0.033675 0.793838 0.255038
H135  H     H_    0.337065 0.973878 0.827025 0.234545
H136  H     H_    0.341061 0.071371 0.832925 0.234102
O61   O     O_3   0.633362 0.739607 0.291318 -0.628567
C201  C     C_3   0.600573 0.788188 0.313092 0.112178
H137  H     H_    0.548337 0.807702 0.302940 0.161680
H138  H     H_    0.632591 0.838330 0.318577 0.133386
C202  C     C_3   0.584947 0.747607 0.343557 -0.383229
H139  H     H_    0.552956 0.697264 0.338665 0.245694
H140  H     H_    0.637379 0.731322 0.354561 0.200135
C203  C     C_3   0.542327 0.795613 0.366274 -0.898269
H141  H     H_    0.574706 0.844890 0.372419 0.260807
H142  H     H_    0.530890 0.764340 0.387946 0.268960
H143  H     H_    0.489603 0.812903 0.355793 0.272108
O62   O     O_3   0.720130 0.371899 0.718574 -0.599444
C204  C     C_3   0.704750 0.393412 0.687441 0.193589
H144  H     H_    0.644537 0.395697 0.684712 0.152111
H145  H     H_    0.725184 0.355303 0.669132 0.089144
C205  C     C_3   0.734442 0.470286 0.681152 -0.425015
H146  H     H_    0.715633 0.488405 0.657738 0.188594
H147  H     H_    0.712317 0.509097 0.698705 0.223457
C206  C     C_3   0.817660 0.472519 0.681897 -0.744234
H148  H     H_    0.837532 0.466312 0.706148 0.255022
H149  H     H_    0.837073 0.526074 0.672949 0.234547
H150  H     H_    0.841056 0.428574 0.667068 0.234107
O63   O     O_3   0.331240 0.224211 0.305565 -0.611368
C207  C     C_3   0.330618 0.173223 0.330527 0.123991
H151  H     H_    0.386683 0.171364 0.340365 0.165874
H152  H     H_    0.318024 0.116448 0.322882 0.154679
C208  C     C_3   0.277960 0.197126 0.356293 -0.373325
H153  H     H_    0.292182 0.253316 0.364028 0.240818
H154  H     H_    0.221213 0.197366 0.347200 0.202626
C209  C     C_3   0.281840 0.145514 0.384257 -0.953572
H155  H     H_    0.266729 0.089027 0.377194 0.261059
H156  H     H_    0.243179 0.164193 0.402525 0.272677
H157  H     H_    0.337811 0.145165 0.394217 0.272102
O64   O     O_3   0.253535 0.660516 0.699515 -0.608484
C210  C     C_3   0.207631 0.630359 0.676331 0.092250
H158  H     H_    0.182843 0.673382 0.661258 0.121765
H159  H     H_    0.163764 0.597590 0.687492 0.154991
C211  C     C_3   0.252873 0.580178 0.655466 -0.329680
H160  H     H_    0.292911 0.613345 0.642076 0.222204
H161  H     H_    0.283828 0.541019 0.670168 0.249660
C212  C     C_3   0.204671 0.537763 0.632760 -0.914228
H162  H     H_    0.166132 0.502010 0.645737 0.265286
H163  H     H_    0.239293 0.502792 0.617632 0.275350
H164  H     H_    0.173302 0.576140 0.617766 0.262886
O65   O     O_3   0.330975 0.776088 0.694369 -0.611364
C213  C     C_3   0.330131 0.827152 0.669438 0.124256
H165  H     H_    0.386130 0.829108 0.659534 0.165891
H166  H     H_    0.317522 0.883890 0.677130 0.154603
C214  C     C_3   0.277332 0.803268 0.643721 -0.373424
H167  H     H_    0.291553 0.747109 0.635946 0.240869
H168  H     H_    0.220643 0.802959 0.652878 0.202627
C215  C     C_3   0.280998 0.854952 0.615776 -0.953751
H169  H     H_    0.265923 0.911418 0.622886 0.261111
H170  H     H_    0.242212 0.836308 0.597550 0.272731
H171  H     H_    0.336899 0.855343 0.605744 0.272000
O66   O     O_3   0.253654 0.339682 0.300415 -0.608420
C216  C     C_3   0.207824 0.369814 0.323632 0.092163
H172  H     H_    0.183172 0.326783 0.338741 0.121696
H173  H     H_    0.163850 0.402495 0.312500 0.154914
C217  C     C_3   0.253095 0.420091 0.344443 -0.329568
H174  H     H_    0.293225 0.387002 0.357817 0.222141
H175  H     H_    0.283951 0.459243 0.329700 0.249650
C218  C     C_3   0.204938 0.462503 0.367167 -0.914165
H176  H     H_    0.166280 0.498158 0.354204 0.265283
H177  H     H_    0.239578 0.497571 0.382245 0.275396
H178  H     H_    0.173696 0.424123 0.382208 0.262820
O67   O     O_3   0.633355 0.260405 0.708685 -0.628568
C219  C     C_3   0.600559 0.211828 0.686911 0.112170
H179  H     H_    0.548333 0.192301 0.697068 0.161651
H180  H     H_    0.632583 0.161694 0.681418 0.133360
C220  C     C_3   0.584905 0.252420 0.656452 -0.383208
H181  H     H_    0.552901 0.302751 0.661352 0.245713
H182  H     H_    0.637325 0.268727 0.645444 0.200138
C221  C     C_3   0.542286 0.204414 0.633734 -0.898282
H183  H     H_    0.574689 0.155165 0.627572 0.260789
H184  H     H_    0.530804 0.235704 0.612071 0.268972
H185  H     H_    0.489586 0.187080 0.644222 0.272108
O68   O     O_3   0.720134 0.628109 0.281434 -0.599432
C222  C     C_3   0.704766 0.606604 0.312568 0.193565
H186  H     H_    0.644556 0.604319 0.315302 0.152104
H187  H     H_    0.725209 0.644718 0.330874 0.089123
C223  C     C_3   0.734464 0.529732 0.318860 -0.425033
H188  H     H_    0.715682 0.511627 0.342279 0.188600
H189  H     H_    0.712318 0.490911 0.301315 0.223458
C224  C     C_3   0.817680 0.527500 0.318096 -0.744128
H190  H     H_    0.837518 0.533650 0.293838 0.254990
H191  H     H_    0.837106 0.473966 0.327063 0.234537
H192  H     H_    0.841094 0.571482 0.332901 0.234101

loop_
_geom_bond_atom_site_label_1
_geom_bond_atom_site_label_2
_ccdc_geom_bond_type
O5    Zn10  S    
C182  H94   S    
C53   C157  S    
C50   C154  S    
C169  N41   T    
C200  H134  S    
C109  H53   S    
C210  H158  S    
C36   O46   A    
C25   O39   A    
C117  C133  A    
C205  H147  S    
C159  N31   T    
C27   O37   A    
C157  N29   T    
C204  C205  S    
C41   C145  S    
C49   H9    S    
C118  H62   S    
C183  H96   S    
C223  H188  S    
C201  H138  S    
C40   O36   A    
C82   C87   S    
C202  C203  S    
C123  H67   S    
C186  C187  S    
C178  C179  S    
C73   H17   S    
C197  H129  S    
C125  H69   S    
C84   O64   S    
C220  H181  S    
C219  H179  S    
C20   N12   A    
C83   H27   S    
C113  H57   S    
C44   C92   S    
C46   C150  S    
C188  H107  S    
C132  C142  A    
C114  C130  A    
C108  C124  A    
C45   C149  S    
C116  H60   S    
C67   H43   S    
C116  C132  A    
O10   Zn15  S    
C63   H39   S    
C70   C174  S    
C152  N24   T    
C120  H64   S    
C4    O12   A    
C33   C92   S    
C214  H168  S    
C38   O34   A    
C213  H165  S    
C14   C114  A    
C37   C96   S    
C86   H30   S    
O31   Zn2   S    
C16   C118  A    
C214  C215  S    
C25   C100  S    
C168  N40   T    
C22   N6    A    
O38   Zn4   S    
C215  H169  S    
C211  H160  S    
C208  H154  S    
C59   C91   S    
C13   C115  A    
C87   C103  S    
C17   N15   A    
C36   C91   S    
C193  H118  S    
O6    Zn11  S    
C74   C79   S    
C66   H42   S    
C200  H136  S    
C7    O17   A    
C209  H155  S    
C21   C139  S    
C40   C95   S    
O36   Zn7   S    
C70   H46   S    
O46   Zn12  S    
C184  H98   S    
C197  H128  S    
C48   C96   S    
C69   C173  S    
O66   C216  S    
C145  N17   T    
C69   C101  S    
O49   Zn15  S    
C135  H79   S    
O50   Zn16  S    
C74   C90   S    
O13   Zn2   S    
N9    N15   A    
O33   Zn8   S    
O27   Zn14  S    
C1    O5    A    
C173  N45   T    
C127  H71   S    
C216  H172  S    
C78   C94   S    
C219  C220  S    
C194  H121  S    
C8    O18   A    
C196  H126  S    
C81   C88   S    
O32   Zn3   S    
C49   C97   S    
C158  N30   T    
O17   Zn6   S    
C83   C86   S    
C217  H175  S    
C151  N23   T    
C170  N42   T    
C221  H183  S    
C34   O30   A    
C79   H23   S    
C62   C166  S    
C80   H24   S    
C179  H85   S    
C180  H89   S    
C7    O19   A    
C41   C89   S    
C165  N37   T    
C22   C140  S    
C39   O49   A    
C10   C108  A    
C166  N38   T    
C45   C93   S    
C224  H192  S    
C6    C9    S    
C12   C110  A    
O4    Zn6   S    
C106  H50   S    
C192  H116  S    
C51   H11   S    
O12   Zn13  S    
C82   O62   S    
C220  H182  S    
C3    O11   A    
C16   C120  A    
C218  H178  S    
O20   Zn5   S    
C77   H21   S    
C184  H97   S    
C215  H171  S    
C75   H19   S    
C60   C164  S    
C5    O13   A    
C130  H74   S    
C177  H81   S    
C193  C194  S    
C33   O47   A    
C181  H90   S    
C134  H78   S    
C221  H185  S    
C34   O48   A    
O40   Zn2   S    
C35   O45   A    
C199  H132  S    
C131  C141  A    
C75   C91   S    
C198  C199  S    
C135  C143  A    
C212  H162  S    
C222  C223  S    
C207  H151  S    
C88   C104  S    
C18   N16   A    
C202  H139  S    
C189  H110  S    
C60   C92   S    
C7    C12   S    
C50   C98   S    
C82   C98   S    
C31   O27   A    
O62   C204  S    
C64   C96   S    
O14   Zn3   S    
C1    O7    A    
O34   Zn5   S    
C74   H18   S    
N2    N6    A    
C52   C100  S    
C29   C104  S    
C115  H59   S    
C11   C109  A    
C42   C90   S    
C177  C178  S    
C8    O20   A    
C68   C100  S    
C189  C190  S    
O43   Zn5   S    
C211  H161  S    
O63   C207  S    
C136  H80   S    
O18   Zn7   S    
C52   C156  S    
C106  C122  A    
C199  C200  S    
C36   O32   A    
C58   H34   S    
C83   O63   S    
C187  H104  S    
C128  H72   S    
C179  H87   S    
C28   C99   S    
C191  H113  S    
N3    N5    A    
C110  C126  A    
C190  C191  S    
C81   H25   S    
C10   C106  A    
C86   C102  S    
C12   C112  A    
O28   Zn15  S    
O58   C192  S    
O4    Zn8   S    
C185  H99   S    
C192  C193  S    
C39   O35   A    
C182  H93   S    
C71   C103  S    
C223  C224  S    
C74   O54   S    
C3    O9    A    
C84   H28   S    
C218  H176  S    
C219  H180  S    
C204  H145  S    
C65   C72   S    
C87   H31   S    
C123  C137  A    
O3    Zn16  S    
C88   H32   S    
C67   C70   S    
C5    O15   A    
C128  C140  A    
C34   C89   S    
O4    Zn13  S    
C223  H189  S    
C201  C202  S    
C181  C182  S    
C38   C93   S    
C193  H119  S    
C224  H191  S    
C15   C119  A    
C210  C211  S    
C186  H103  S    
C130  C142  A    
C178  H84   S    
C73   O53   S    
C26   C97   S    
C134  C144  A    
C198  H130  S    
C64   H40   S    
C203  H141  S    
C68   H44   S    
O3    Zn7   S    
C212  H164  S    
C208  H153  S    
C67   C171  S    
C1    C14   S    
C71   H47   S    
C72   H48   S    
C207  C208  S    
C3    C16   S    
C18   N14   A    
O1    Zn10  S    
C188  H106  S    
C42   C146  S    
C110  H54   S    
C29   O25   A    
C179  H86   S    
C206  H148  S    
C107  C123  A    
C146  N18   T    
C78   O58   S    
C167  N39   T    
C206  H150  S    
C52   C53   S    
O68   C222  S    
C190  H111  S    
C57   C89   S    
O45   Zn11  S    
C124  C138  A    
C189  H109  S    
C117  H61   S    
O1    Zn1   S    
C214  H167  S    
C61   C93   S    
C129  C141  A    
C213  H166  S    
C176  N48   T    
C63   C95   S    
C195  H123  S    
C81   O61   S    
N10   N14   A    
C2    O8    A    
C129  H73   S    
C126  H70   S    
C20   C142  S    
C23   N1    A    
C191  H115  S    
C53   C101  S    
C68   C69   S    
C215  H170  S    
C133  H77   S    
C172  N44   T    
C114  H58   S    
C40   O50   A    
C108  H52   S    
C80   O60   S    
C67   C99   S    
C87   O67   S    
C213  C214  S    
C55   H15   S    
C148  N20   T    
C83   C99   S    
C200  H135  S    
O25   Zn16  S    
C209  H156  S    
C32   O42   A    
C107  H51   S    
C205  H146  S    
C37   O33   A    
O21   Zn12  S    
C78   H22   S    
C211  C212  S    
C11   C111  A    
O3    Zn14  S    
O23   Zn10  S    
O8    Zn9   S    
O39   Zn1   S    
C84   C85   S    
C56   C104  S    
C19   C141  S    
O4    Zn15  S    
C164  N36   T    
C201  H137  S    
C79   O59   S    
O61   C201  S    
C47   C151  S    
C119  C135  A    
C15   C117  A    
C60   C61   S    
C120  C136  A    
C209  H157  S    
C84   C100  S    
C105  H49   S    
C156  N28   T    
C31   C102  S    
C85   O65   S    
C55   C159  S    
C62   H38   S    
C25   O21   A    
C160  N32   T    
C203  H143  S    
C37   O51   A    
C21   N5    A    
C38   O52   A    
C32   C103  S    
C6    O16   A    
C183  H95   S    
C58   C90   S    
C122  C138  A    
O1    Zn12  S    
O2    Zn11  S    
C47   H7    S    
C188  H108  S    
C48   H8    S    
C124  H68   S    
C221  H184  S    
C9    C107  A    
C44   C148  S    
C42   H2    S    
N4    N8    A    
O52   Zn14  S    
C44   C45   S    
C71   C175  S    
C216  H173  S    
C180  H88   S    
C59   C163  S    
C46   C94   S    
C31   O41   A    
C18   C144  S    
O48   Zn10  S    
C54   C102  S    
C19   N11   A    
O1    Zn3   S    
C216  C217  S    
O55   C183  S    
C70   C102  S    
O2    Zn4   S    
C112  H56   S    
C60   H36   S    
C72   C104  S    
C61   H37   S    
C195  C196  S    
C17   C143  S    
C59   H35   S    
C2    O6    A    
O24   Zn11  S    
C73   C89   S    
C154  N26   T    
C136  C144  A    
C49   C153  S    
C26   O40   A    
C218  H177  S    
C66   C98   S    
C147  N19   T    
C30   C101  S    
C77   C93   S    
C208  C209  S    
C153  N25   T    
C177  H82   S    
C112  C128  A    
C4    O10   A    
C150  N22   T    
C35   C90   S    
C5    C10   S    
C41   H1    S    
C181  H91   S    
O56   C186  S    
C199  H133  S    
O26   Zn13  S    
C9    C105  A    
C205  C206  S    
C198  H131  S    
C184  C185  S    
C57   H33   S    
C162  N34   T    
C82   H26   S    
C27   C98   S    
C197  H127  S    
O22   Zn9   S    
O7    Zn12  S    
C222  H187  S    
C155  N27   T    
C174  N46   T    
C183  C184  S    
C76   O56   S    
O59   C195  S    
O54   C180  S    
O41   Zn7   S    
C207  H152  S    
O57   C189  S    
O42   Zn8   S    
C182  H92   S    
C39   C94   S    
C115  C131  A    
C161  N33   T    
C125  C139  A    
C79   C95   S    
C126  C140  A    
O65   C213  S    
N1    N7    A    
C113  C129  A    
C217  C218  S    
C121  C137  A    
O67   C219  S    
C21   N7    A    
C55   C103  S    
C6    O14   A    
C56   C160  S    
C131  H75   S    
C54   C158  S    
O44   Zn6   S    
C2    C13   S    
C196  C197  S    
C202  H140  S    
C66   C170  S    
C41   C48   S    
O2    Zn9   S    
C66   C71   S    
C217  H174  S    
O29   Zn4   S    
O37   Zn3   S    
O51   Zn13  S    
C132  H76   S    
C186  H102  S    
C30   O26   A    
C121  H65   S    
C80   C96   S    
C187  H105  S    
O35   Zn6   S    
O3    Zn5   S    
C180  C181  S    
C111  H55   S    
C191  H114  S    
O60   C198  S    
C27   O23   A    
C190  H112  S    
C75   O55   S    
C58   C162  S    
N11   N13   A    
C127  C139  A    
C24   N2    A    
C19   N9    A    
C43   C46   S    
C57   C161  S    
O2    Zn2   S    
C185  H100  S    
C192  H117  S    
C48   C152  S    
C51   C99   S    
C65   H41   S    
O19   Zn8   S    
C133  C143  A    
C43   C147  S    
C51   C155  S    
C220  C221  S    
C76   C77   S    
C187  C188  S    
C69   H45   S    
O11   Zn16  S    
C63   C167  S    
C24   C138  S    
C204  H144  S    
C28   O24   A    
C43   C91   S    
N12   N16   A    
C88   O68   S    
C54   H14   S    
C185  H101  S    
C85   H29   S    
C65   C169  S    
C29   O43   A    
C30   O44   A    
C224  H190  S    
C105  C121  A    
C210  H159  S    
C72   C176  S    
C178  H83   S    
C76   C92   S    
C122  H66   S    
C86   O66   S    
C109  C125  A    
C46   H6    S    
C203  H142  S    
C20   N10   A    
C212  H163  S    
C111  C127  A    
C61   C165  S    
C76   H20   S    
C119  H63   S    
C222  H186  S    
C85   C101  S    
C57   C64   S    
C175  N47   T    
C58   C63   S    
O64   C210  S    
C59   C62   S    
C33   O29   A    
C23   C137  S    
C64   C168  S    
C35   O31   A    
C118  C134  A    
C23   N3    A    
C206  H149  S    
C28   O38   A    
O9    Zn14  S    
C26   O22   A    
C68   C172  S    
C52   H12   S    
C49   C56   S    
C171  N43   T    
C53   H13   S    
C50   C55   S    
O15   Zn4   S    
C51   C54   S    
C194  H122  S    
C4    C15   S    
C62   C94   S    
C65   C97   S    
C196  H125  S    
C56   H16   S    
O53   C177  S    
O30   Zn1   S    
C81   C97   S    
C50   H10   S    
C8    C11   S    
C14   C116  A    
C44   H4    S    
C73   C80   S    
C195  H124  S    
C32   O28   A    
C45   H5    S    
C42   C47   S    
C77   O57   S    
C149  N21   T    
C75   C78   S    
C43   H3    S    
C194  H120  S    
C22   N8    A    
O47   Zn9   S    
C47   C95   S    
C163  N35   T    
C24   N4    A    
C13   C113  A    
O16   Zn1   S    
C17   N13   A    
