data_mof_unit_34156.cif
_audit_creation_date              2012-12-10T19:30:30-0500
_audit_creation_method            fapswitch 2.2
_symmetry_space_group_name_H-M    P1
_symmetry_Int_Tables_number       1
_space_group_crystal_system       triclinic
_cell_length_a                    14.949489
_cell_length_b                    15.745802
_cell_length_c                    16.756012
_cell_angle_alpha                 89.91023
_cell_angle_beta                  84.932832
_cell_angle_gamma                 90.181799
_cell_volume                      3928.78485038

loop_
_atom_site_label
_atom_site_type_symbol
_atom_type_description
_atom_site_fract_x
_atom_site_fract_y
_atom_site_fract_z
_atom_type_partial_charge
C1    C     C_R   0.500147 0.662447 0.500001 0.899405
C2    C     C_3   0.584247 0.028254 0.494875 0.489830
C3    C     C_3   0.500882 0.917037 0.500644 -0.085196
C4    C     C_3   0.499119 0.083030 0.498321 -0.085969
C5    C     C_1   0.500740 0.826343 0.500447 0.099060
C6    C     C_1   0.499275 0.173706 0.498749 0.099814
C7    C     C_3   0.029157 0.579725 0.508006 0.266148
C8    C     C_3   0.970680 0.419490 0.492339 0.265426
C9    C     C_3   0.976822 0.547117 0.438541 0.329969
C10   C     C_3   0.023086 0.452106 0.561735 0.332873
C11   C     C_3   0.963862 0.532441 0.569680 0.277899
C12   C     C_R   0.499857 0.337562 0.499922 0.896450
C13   C     C_3   0.035953 0.466714 0.430588 0.276192
C14   C     C_3   0.909920 0.499881 0.500222 -0.247767
C15   C     C_3   0.089991 0.499341 0.500007 -0.248447
C16   C     C_R   0.487457 0.500116 0.653648 0.926901
C17   C     C_R   0.512505 0.495497 0.346665 0.927751
C18   C     C_1   0.810044 0.499979 0.500096 0.268880
C19   C     C_1   0.189927 0.499651 0.500006 0.268485
C20   C     C_R   0.479470 0.493087 0.740318 -0.176184
C21   C     C_R   0.520416 0.467157 0.263982 -0.168134
C22   C     C_R   0.553851 0.511555 0.782257 -0.312601
C23   C     C_3   0.458138 0.027317 0.434343 -0.493848
C24   C     C_R   0.451669 0.416886 0.237228 -0.326031
C25   C     C_R   0.551905 0.493968 0.864171 0.498928
C26   C     C_R   0.457788 0.386551 0.158517 0.494075
C27   C     C_R   0.472318 0.460333 0.903688 -0.090373
C28   C     C_R   0.535521 0.405644 0.108079 -0.088545
C29   C     C_R   0.395155 0.448160 0.863015 0.513207
C30   C     C_R   0.608564 0.448460 0.137267 0.524193
C31   C     C_R   0.399925 0.462573 0.780697 -0.293483
C32   C     C_R   0.599790 0.480605 0.215032 -0.294233
C33   C     C_2   0.467309 0.441713 0.988986 -0.056142
C34   C     C_3   0.541857 0.972770 0.564620 -0.495077
C35   C     C_2   0.532512 0.399596 0.021675 -0.043788
C36   C     C_3   0.997661 0.723726 0.515905 0.125164
C37   C     C_3   0.034010 0.808206 0.543105 -0.858252
C38   C     C_3   0.002087 0.275483 0.484286 0.124512
C39   C     C_3   0.965343 0.190953 0.457642 -0.859327
C40   C     C_3   0.014290 0.403352 0.309001 0.135417
C41   C     C_3   0.060430 0.383183 0.226737 -0.902963
C42   C     C_3   0.984131 0.596110 0.691470 0.128922
C43   C     C_3   0.938073 0.611513 0.774768 -0.876833
C44   C     C_3   0.251684 0.476524 0.911663 -0.331503
C45   C     C_3   0.544034 0.972512 0.432089 0.486129
C46   C     C_3   0.753860 0.414809 0.102349 -0.346449
C47   C     C_3   0.304421 0.365203 0.152833 -0.286547
C48   C     C_3   0.705379 0.486768 0.872596 -0.278044
C49   C     C_3   0.613101 0.999768 0.306537 -0.275232
C50   C     C_3   0.386879 0.000427 0.692440 -0.272197
C51   C     C_3   0.735366 0.002447 0.497080 -0.288309
C52   C     C_3   0.264638 0.997664 0.501857 -0.286716
C53   C     C_3   0.021252 0.626901 0.325673 -0.280223
C54   C     C_3   0.979033 0.372397 0.674739 -0.286029
C55   C     C_3   0.455964 0.027562 0.566871 0.485443
C56   C     C_1   0.500473 0.751194 0.500232 -0.165486
C57   C     C_1   0.499549 0.248841 0.499299 -0.162254
C58   C     C_3   0.415749 0.971822 0.504090 0.489177
H1    H     H_    0.613223 0.539515 0.750976 0.181395
H2    H     H_    0.977194 0.732498 0.454424 0.185199
H3    H     H_    0.093190 0.827776 0.502402 0.272202
H4    H     H_    0.981407 0.857746 0.542073 0.203537
H5    H     H_    0.054330 0.802450 0.605044 0.256411
H6    H     H_    0.023319 0.266892 0.545532 0.185725
H7    H     H_    0.062143 0.291968 0.443102 0.168000
H8    H     H_    0.944361 0.196563 0.395913 0.256575
H9    H     H_    0.017955 0.141383 0.458349 0.203705
H10   H     H_    0.906532 0.171541 0.498860 0.271961
H11   H     H_    0.960694 0.450732 0.301337 0.175221
H12   H     H_    0.393942 0.400717 0.278027 0.182412
H13   H     H_    0.982362 0.344125 0.333560 0.180715
H14   H     H_    0.110585 0.332058 0.231841 0.257171
H15   H     H_    0.009951 0.361362 0.186408 0.214387
H16   H     H_    0.094820 0.440664 0.200436 0.254271
H17   H     H_    0.012612 0.657400 0.668486 0.179507
H18   H     H_    0.040259 0.550845 0.697016 0.174506
H19   H     H_    0.910169 0.551063 0.800682 0.243762
H20   H     H_    0.987280 0.637268 0.814455 0.214501
H21   H     H_    0.882672 0.657900 0.771602 0.267574
H22   H     H_    0.228423 0.495127 0.852881 0.169564
H23   H     H_    0.654116 0.517494 0.236410 0.186048
H24   H     H_    0.275566 0.533311 0.943317 0.148829
H25   H     H_    0.192943 0.450301 0.948875 0.193447
H26   H     H_    0.735513 0.347068 0.093458 0.153920
H27   H     H_    0.774436 0.424635 0.163919 0.169083
H28   H     H_    0.812845 0.429505 0.059611 0.188359
H29   H     H_    0.299585 0.435764 0.150567 0.148528
H30   H     H_    0.281476 0.340968 0.213494 0.173396
H31   H     H_    0.257854 0.339545 0.110763 0.206542
H32   H     H_    0.733141 0.531000 0.824948 0.171701
H33   H     H_    0.700159 0.421101 0.848660 0.138054
H34   H     H_    0.342423 0.447342 0.748242 0.190846
H35   H     H_    0.754054 0.484798 0.918813 0.211407
H36   H     H_    0.651762 0.052628 0.331165 0.188550
H37   H     H_    0.551655 0.024413 0.281792 0.165312
H38   H     H_    0.656074 0.971522 0.256166 0.188372
H39   H     H_    0.448317 0.975769 0.717189 0.161911
H40   H     H_    0.348176 0.947573 0.667850 0.188044
H41   H     H_    0.343936 0.028735 0.742798 0.191051
H42   H     H_    0.730354 0.949444 0.453877 0.192081
H43   H     H_    0.730079 0.977889 0.559547 0.162189
H44   H     H_    0.803001 0.031288 0.484995 0.182959
H45   H     H_    0.590393 0.375474 0.984949 0.168746
H46   H     H_    0.269946 0.022205 0.439383 0.162733
H47   H     H_    0.269654 0.050678 0.545048 0.191978
H48   H     H_    0.196994 0.968839 0.513934 0.182829
H49   H     H_    0.047368 0.576986 0.283382 0.194535
H50   H     H_    0.076678 0.651350 0.359466 0.191719
H51   H     H_    0.998458 0.680332 0.289388 0.177014
H52   H     H_    0.923436 0.348001 0.641142 0.191621
H53   H     H_    0.953193 0.422307 0.717094 0.192217
H54   H     H_    0.001943 0.318957 0.710916 0.177253
H55   H     H_    0.410724 0.467712 0.026200 0.158794
H56   H     H_    0.424768 0.051920 0.382454 0.179094
H57   H     H_    0.575234 0.948196 0.616517 0.177019
H58   H     H_    0.937145 0.707102 0.556471 0.167299
N1    N     N_1   0.731990 0.500000 0.499970 -0.102185
N2    N     N_1   0.268010 0.500000 0.500030 -0.102661
O1    O     O_R   0.425540 0.623220 0.500000 -0.597582
O2    O     O_3   0.934008 0.337504 0.483897 -0.609271
O3    O     O_3   0.078917 0.433587 0.358851 -0.613582
O4    O     O_3   0.920245 0.565044 0.641344 -0.614117
O5    O     O_3   0.318423 0.413345 0.902537 -0.583436
O6    O     O_3   0.683127 0.469447 0.086266 -0.570147
O7    O     O_3   0.391813 0.335663 0.128964 -0.589655
O8    O     O_3   0.622517 0.516924 0.908593 -0.571826
O9    O     O_3   0.591438 0.936056 0.364144 -0.597985
O10   O     O_3   0.408570 0.064082 0.634790 -0.596946
O11   O     O_3   0.670542 0.065533 0.487739 -0.594865
O12   O     O_R   0.574460 0.376780 0.500000 -0.599364
O13   O     O_3   0.329443 0.934565 0.511230 -0.594548
O14   O     O_3   0.947016 0.596697 0.375800 -0.617861
O15   O     O_3   0.053098 0.402588 0.624424 -0.616342
O16   O     O_R   0.574480 0.623220 0.499990 -0.611826
O17   O     O_R   0.425520 0.376780 0.500010 -0.615231
O18   O     O_R   0.416730 0.500010 0.615810 -0.617834
O19   O     O_R   0.583270 0.499990 0.384190 -0.615130
O20   O     O_R   0.565670 0.500010 0.615790 -0.615758
O21   O     O_R   0.434330 0.499990 0.384210 -0.615940
O22   O     O_3   0.065694 0.661712 0.516791 -0.608227
Zn1   Zn    Zn3+2 0.400550 0.500000 0.500010 0.995119
Zn2   Zn    Zn3+2 0.599450 0.500000 0.499990 0.997356

loop_
_geom_bond_atom_site_label_1
_geom_bond_atom_site_label_2
_ccdc_geom_bond_type
C23   C58   S    
O19   Zn2   S    
C8    C13   S    
C23   C45   S    
C40   H13   S    
C27   C29   A    
C39   H10   S    
C14   C18   S    
C5    C56   T    
C2    C4    S    
C10   O15   S    
C9    C14   S    
C44   H25   S    
C37   H4    S    
C51   O11   S    
C24   H12   S    
C27   C33   S    
C43   H20   S    
C15   C19   S    
C32   H23   S    
C42   O4    S    
C42   H17   S    
C12   O12   A    
C12   O17   A    
C43   H19   S    
C36   C37   S    
C1    C56   S    
C24   C26   A    
C44   H24   S    
C10   C15   S    
C7    O22   S    
C11   C14   S    
C43   H21   S    
C2    O11   S    
C54   H52   S    
C1    O1    A    
C9    C13   S    
C41   H16   S    
C28   C35   S    
C22   C25   A    
C49   H36   S    
C46   H27   S    
C38   O2    S    
C33   H55   S    
C2    C34   S    
C7    C15   S    
C52   H48   S    
C34   C55   S    
C48   H32   S    
C47   H31   S    
C6    C57   T    
C46   O6    S    
C39   H9    S    
C37   H5    S    
C47   O7    S    
C38   H6    S    
C2    C45   S    
C49   O9    S    
C21   C32   A    
C50   H40   S    
C40   H11   S    
C44   H22   S    
C19   N2    T    
C4    C6    S    
O20   Zn2   S    
C22   H1    S    
C4    C23   S    
C3    C34   S    
C3    C5    S    
C34   H57   S    
C54   O15   S    
C41   H15   S    
C3    C45   S    
C17   C21   S    
C51   H44   S    
C26   O7    S    
C47   H29   S    
C35   H45   S    
C7    C11   S    
C25   O8    S    
O18   Zn1   S    
C40   O3    S    
O16   Zn2   S    
C13   O3    S    
C53   H49   S    
C38   H7    S    
C58   O13   S    
C16   C20   S    
C48   H33   S    
C50   H41   S    
C54   H54   S    
C17   O21   A    
C53   O14   S    
C49   H37   S    
C36   O22   S    
C18   N1    T    
C41   H14   S    
C46   H26   S    
C12   C57   S    
C40   C41   S    
C20   C22   A    
C52   H47   S    
C13   C15   S    
C4    C55   S    
O1    Zn1   S    
C39   H8    S    
C21   C24   A    
C11   O4    S    
C50   O10   S    
C42   C43   S    
C1    O16   A    
C36   H58   S    
C8    O2    S    
C9    O14   S    
C53   H51   S    
C51   H42   S    
C7    C9    S    
C52   H46   S    
C50   H39   S    
C8    C14   S    
C52   O13   S    
C26   C28   A    
C16   O20   A    
C30   O6    S    
C36   H2    S    
C37   H3    S    
C25   C27   A    
C44   O5    S    
C42   H18   S    
C47   H30   S    
C28   C30   A    
N1    Zn2   S    
C29   C31   A    
C23   H56   S    
C30   C32   A    
O21   Zn1   S    
C53   H50   S    
C38   C39   S    
C45   O9    S    
C29   O5    S    
N2    Zn1   S    
C33   C35   D    
C54   H53   S    
C49   H38   S    
O12   Zn2   S    
C48   H35   S    
C10   C11   S    
C48   O8    S    
C3    C58   S    
O17   Zn1   S    
C55   O10   S    
C8    C10   S    
C31   H34   S    
C55   C58   S    
C17   O19   A    
C51   H43   S    
C46   H28   S    
C20   C31   A    
C16   O18   A    
