data_mof_unit_45714.cif
_audit_creation_date              2012-12-11T14:51:48-0500
_audit_creation_method            fapswitch 2.2
_symmetry_space_group_name_H-M    P1
_symmetry_Int_Tables_number       1
_space_group_crystal_system       triclinic
_cell_length_a                    6.953003
_cell_length_b                    16.847484
_cell_length_c                    16.874878
_cell_angle_alpha                 101.248892
_cell_angle_beta                  90.093988
_cell_angle_gamma                 91.350199
_cell_volume                      1938.18101651

loop_
_atom_site_label
_atom_site_type_symbol
_atom_type_description
_atom_site_fract_x
_atom_site_fract_y
_atom_site_fract_z
_atom_type_partial_charge
O1    O     O_R   0.506340 0.439070 0.579550 -0.537571
O2    O     O_R   0.170010 0.404890 0.412100 -0.541169
O3    O     O_R   0.005010 0.560930 0.420450 -0.531683
C1    C     C_R   0.338611 0.380503 0.383904 0.683437
O4    O     O_R   0.176280 0.429360 0.578400 -0.543061
O5    O     O_R   0.011320 0.585570 0.587940 -0.541157
C2    C     C_R   0.342411 0.414618 0.606046 0.696839
O6    O     O_R   0.500030 0.414430 0.412060 -0.538973
O7    O     O_3   0.340950 0.551220 0.502940 -0.367021
V1    V     V_3+5 0.064020 0.490500 0.499460 1.387989
O8    O     O_R   0.681910 0.595110 0.587900 -0.540472
C3    C     C_R   0.851626 0.615926 0.618574 0.691044
O9    O     O_R   0.675640 0.570640 0.421600 -0.540363
C4    C     C_R   0.844162 0.585299 0.393467 0.686493
V2    V     V_3+5 0.564670 0.509500 0.500540 1.389626
O10   O     O_3   0.837610 0.448780 0.497060 -0.369881
C5    C     C_R   0.917826 0.867882 0.171271 -0.082269
C6    C     C_R   0.850291 0.637728 0.330245 -0.139634
C7    C     C_R   0.733220 0.668203 0.202327 -0.181842
C8    C     C_R   0.729110 0.618358 0.259899 0.111222
C9    C     C_R   0.968290 0.710312 0.341052 0.058120
C10   C     C_R   0.952637 0.763810 0.284942 0.091321
C11   C     C_R   0.836578 0.741223 0.215156 0.081364
C12   C     C_R   0.822751 0.792212 0.158408 -0.249740
C13   C     C_R   0.024055 0.893883 0.243621 0.141305
C14   C     C_R   0.044974 0.840992 0.297813 -0.189877
H1    H     H_    0.739393 0.772590 0.103372 0.114880
H2    H     H_    0.648007 0.651090 0.147507 0.136741
C15   C     C_3   0.793547 0.809897 0.732595 0.156967
C16   C     C_3   0.966100 0.765814 0.689124 0.142225
C17   C     C_3   0.865021 0.684206 0.690950 -0.110026
C18   C     C_3   0.691161 0.728043 0.734738 -0.151191
C19   C     C_3   0.791536 0.727862 0.816859 0.171649
C20   C     C_3   0.963214 0.681930 0.772861 -0.166816
C21   C     C_3   0.066094 0.764495 0.770721 -0.197351
C22   C     C_3   0.893509 0.809789 0.814524 -0.107022
H3    H     H_    0.537383 0.712412 0.720316 0.118386
H4    H     H_    0.031716 0.628461 0.789290 0.113123
C23   C     C_3   0.522280 0.248731 0.308189 -0.115946
C24   C     C_3   0.379057 0.177252 0.277460 -0.192049
H5    H     H_    0.635998 0.248961 0.354517 0.104702
C25   C     C_3   0.415745 0.187148 0.189596 -0.066794
C26   C     C_3   0.556438 0.257907 0.219990 0.201205
C27   C     C_3   0.391848 0.318420 0.226079 -0.171192
C28   C     C_3   0.249493 0.246841 0.195715 -0.140307
C29   C     C_3   0.211855 0.237559 0.284286 -0.105293
C30   C     C_3   0.354889 0.308652 0.313969 -0.035210
H6    H     H_    0.395834 0.375849 0.203346 0.110952
H7    H     H_    0.144914 0.245232 0.145814 0.123649
H8    H     H_    0.070053 0.227391 0.311087 0.109061
C31   C     C_R   0.437984 0.141204 0.832673 -0.123178
C32   C     C_R   0.336986 0.362615 0.668211 -0.064075
C33   C     C_R   0.153591 0.304096 0.767907 -0.198899
C34   C     C_R   0.169449 0.358290 0.714655 -0.165156
C35   C     C_R   0.489127 0.312261 0.677482 -0.233139
C36   C     C_R   0.471681 0.256369 0.729556 0.113575
C37   C     C_R   0.303508 0.251640 0.775054 0.152374
C38   C     C_R   0.288320 0.194873 0.826603 -0.263752
C39   C     C_R   0.609425 0.146940 0.785527 0.126972
C40   C     C_R   0.621444 0.204977 0.735786 -0.186321
H9    H     H_    0.022544 0.302144 0.802215 0.121142
H10   H     H_    0.618237 0.314360 0.641898 0.120489
O11   O     O_R   0.266070 0.085680 0.087850 -0.538739
O12   O     O_R   0.590090 0.070660 0.921580 -0.551542
O13   O     O_R   0.754780 0.914400 0.912080 -0.545409
C41   C     C_R   0.425387 0.086564 0.894071 0.689058
O14   O     O_R   0.596110 0.095130 0.087880 -0.541763
O15   O     O_R   0.760850 0.939050 0.079570 -0.534187
C42   C     C_R   0.428389 0.117670 0.117627 0.680688
O16   O     O_R   0.260010 0.061030 0.920360 -0.531685
O17   O     O_3   0.425070 0.948840 0.997010 -0.367271
V3    V     V_3+5 0.702100 0.009490 0.000550 1.370154
O18   O     O_R   0.090200 0.929250 0.078500 -0.541896
C43   C     C_R   0.921594 0.915288 0.106033 0.697733
O19   O     O_R   0.084180 0.904770 0.912200 -0.538338
C44   C     C_R   0.912824 0.881260 0.883854 0.695212
V4    V     V_3+5 0.201420 0.990350 0.999580 1.388561
O20   O     O_3   0.928580 0.051150 0.002990 -0.373194
C45   C     C_3   0.691489 0.707824 0.891274 -0.363056
C46   C     C_3   0.599498 0.623096 0.873496 -0.761794
H11   H     H_    0.488051 0.618524 0.825464 0.220600
H12   H     H_    0.710289 0.577063 0.853818 0.224593
H13   H     H_    0.530068 0.610312 0.929027 0.215842
H14   H     H_    0.798607 0.712039 0.940924 0.165783
H15   H     H_    0.578464 0.752842 0.911035 0.184808
H16   H     H_    0.218990 0.776749 0.788005 0.126462
H17   H     H_    0.378852 0.119241 0.299097 0.115284
C47   C     C_3   0.752546 0.271162 0.184600 -0.378979
C48   C     C_3   0.851956 0.347176 0.232765 -0.752664
H18   H     H_    0.754210 0.398083 0.239943 0.210326
H19   H     H_    0.891754 0.338525 0.294062 0.232851
H20   H     H_    0.981348 0.363902 0.200867 0.212177
H21   H     H_    0.839998 0.217316 0.186213 0.183808
H22   H     H_    0.734200 0.277635 0.120791 0.173660
H23   H     H_    0.161929 0.194059 0.863747 0.131421
C49   C     C_3   0.110307 0.978759 0.267539 -0.368154
C50   C     C_3   0.996973 0.028318 0.336774 -0.780945
H24   H     H_    0.845050 0.032893 0.317954 0.225867
H25   H     H_    0.000519 0.000123 0.390987 0.227997
H26   H     H_    0.060730 0.090307 0.353457 0.214315
H27   H     H_    0.262517 0.975245 0.286527 0.170061
H28   H     H_    0.111128 0.012164 0.217158 0.186458
C51   C     C_3   0.786583 0.096632 0.791886 -0.309415
C52   C     C_3   0.922336 0.083966 0.719143 -0.828102
H29   H     H_    0.841443 0.059453 0.662498 0.232874
H30   H     H_    0.999449 0.140672 0.713349 0.241015
H31   H     H_    0.034097 0.040559 0.727990 0.220498
H32   H     H_    0.869206 0.124792 0.846855 0.186747
H33   H     H_    0.740280 0.035600 0.798961 0.198963
H34   H     H_    0.749482 0.211882 0.701458 0.134774
H35   H     H_    0.048945 0.396529 0.709267 0.123565
H36   H     H_    0.132607 0.862683 0.350790 0.138526
C53   C     C_3   0.600236 0.542794 0.239794 -0.372149
C54   C     C_3   0.392922 0.560345 0.218031 -0.750565
H37   H     H_    0.347736 0.620545 0.249998 0.242827
H38   H     H_    0.380010 0.558696 0.152116 0.211860
H39   H     H_    0.291735 0.513920 0.233767 0.207330
H40   H     H_    0.662038 0.502401 0.186479 0.170715
H41   H     H_    0.593461 0.508693 0.289212 0.188830
C55   C     C_3   0.098155 0.734760 0.415068 -0.378731
C56   C     C_3   0.312249 0.726977 0.395727 -0.716808
H42   H     H_    0.397784 0.759734 0.448165 0.204202
H43   H     H_    0.351515 0.662373 0.385596 0.250108
H44   H     H_    0.351121 0.752635 0.341975 0.220136
H45   H     H_    0.067554 0.797506 0.445712 0.176081
H46   H     H_    0.069119 0.697990 0.460745 0.190317
C57   C     C_3   0.057413 0.785391 0.613188 -0.360569
C58   C     C_3   0.118148 0.874324 0.620355 -0.805208
H47   H     H_    0.009172 0.906659 0.591312 0.217762
H48   H     H_    0.133462 0.905128 0.684360 0.231413
H49   H     H_    0.256877 0.878949 0.588855 0.232997
H50   H     H_    0.183211 0.746136 0.597006 0.192390
H51   H     H_    0.944717 0.770939 0.565891 0.151515
C59   C     C_3   0.697780 0.877813 0.700560 -0.375494
C60   C     C_3   0.508084 0.901686 0.741537 -0.797852
H52   H     H_    0.522109 0.916755 0.807907 0.248651
H53   H     H_    0.452961 0.955274 0.720319 0.218282
H54   H     H_    0.404901 0.850525 0.724964 0.237627
H55   H     H_    0.798167 0.929922 0.708420 0.194754
H56   H     H_    0.669769 0.857657 0.634777 0.187605

loop_
_geom_bond_atom_site_label_1
_geom_bond_atom_site_label_2
_ccdc_geom_bond_type
C60   H54   S    
C35   C36   A    
C49   H28   S    
C6    C9    A    
O18   C43   A    
C4    C6    S    
O2    C1    A    
C21   C22   S    
C59   H55   S    
C12   H1    S    
C45   H15   S    
C1    O6    A    
C58   H47   S    
C52   H30   S    
C54   H37   S    
C60   H52   S    
C23   H5    S    
C41   O16   A    
C28   C29   S    
C55   C56   S    
C24   C29   S    
C15   C22   S    
O13   C44   A    
C16   C21   S    
C26   C47   S    
C24   H17   S    
C2    C32   S    
O14   V3    S    
C9    C55   S    
C59   H56   S    
C8    C53   S    
C21   H16   S    
C55   H46   S    
O15   C43   A    
V2    O10   S    
C35   H10   S    
C19   C22   S    
C36   C37   A    
C20   C21   S    
C29   C30   S    
C57   H50   S    
C56   H44   S    
V3    O20   S    
C22   C44   S    
C53   H41   S    
O8    V2    S    
O11   C42   A    
C11   C12   A    
C51   H32   S    
O1    V2    S    
C48   H19   S    
O7    V1    S    
C32   C35   A    
C24   C25   S    
C15   C59   S    
C39   C40   A    
O1    C2    A    
O9    C4    A    
O16   V4    S    
C33   H9    S    
C46   H13   S    
C52   H29   S    
C50   H25   S    
C32   C34   A    
C50   H24   S    
C47   H22   S    
C5    C12   A    
C38   H23   S    
C49   H27   S    
C46   H12   S    
C23   C24   S    
O4    C2    A    
C33   C37   A    
C55   H45   S    
C19   C45   S    
C23   C26   S    
C13   C14   A    
V4    O20   S    
C25   C42   S    
C53   H40   S    
O14   C42   A    
C25   C28   S    
O12   C41   A    
C16   C57   S    
C7    C11   A    
O19   C44   A    
C15   C16   S    
C17   C18   S    
C28   H7    S    
C16   C17   S    
O15   V3    S    
C49   C50   S    
C19   C20   S    
C17   C20   S    
C31   C38   A    
C18   H3    S    
C48   H20   S    
C7    H2    S    
O19   V4    S    
C56   H42   S    
O3    C4    A    
O6    V2    S    
O9    V2    S    
C3    C17   S    
C5    C43   S    
C31   C39   A    
C25   C26   S    
C57   C58   S    
O2    V1    S    
C58   H49   S    
C14   H36   S    
O17   V4    S    
C50   H26   S    
C27   C28   S    
C23   C30   S    
C53   C54   S    
O11   V4    S    
C60   H53   S    
C47   H21   S    
C20   H4    S    
C57   H51   S    
C46   H11   S    
C58   H48   S    
O5    V1    S    
C54   H38   S    
O8    C3    A    
C27   C30   S    
C33   C34   A    
C59   C60   S    
C15   C18   S    
O13   V3    S    
C29   H8    S    
C51   H33   S    
C5    C13   A    
C18   C19   S    
C7    C8    A    
O7    V2    S    
C39   C51   S    
O4    V1    S    
O3    V1    S    
V1    O10   S    
O5    C3    A    
C37   C38   A    
C45   H14   S    
C26   C27   S    
C34   H35   S    
C6    C8    A    
O12   V3    S    
C56   H43   S    
C54   H39   S    
C40   H34   S    
C45   C46   S    
C36   C40   A    
O17   V3    S    
C47   C48   S    
C13   C49   S    
C10   C14   A    
C51   C52   S    
O18   V4    S    
C10   C11   A    
C48   H18   S    
C9    C10   A    
C31   C41   S    
C52   H31   S    
C27   H6    S    
C1    C30   S    
