data_mof_unit_25717.cif
_audit_creation_date              2012-12-10T20:42:43-0500
_audit_creation_method            fapswitch 2.2
_symmetry_space_group_name_H-M    P1
_symmetry_Int_Tables_number       1
_space_group_crystal_system       triclinic
_cell_length_a                    8.902692
_cell_length_b                    10.660157
_cell_length_c                    9.892261
_cell_angle_alpha                 90.085135
_cell_angle_beta                  89.950406
_cell_angle_gamma                 89.874212
_cell_volume                      938.812418989

loop_
_atom_site_label
_atom_site_type_symbol
_atom_type_description
_atom_site_fract_x
_atom_site_fract_y
_atom_site_fract_z
_atom_type_partial_charge
C1    C     C_R   0.502908 0.260105 0.500071 0.875487
C2    C     C_R   0.383856 0.447459 0.929133 0.119107
C3    C     C_3   0.222014 0.486154 0.926838 0.202576
C4    C     C_R   0.218806 0.500156 0.500023 0.945846
C5    C     C_3   0.223317 0.480357 0.080272 -0.509490
C6    C     C_R   0.509826 0.739584 0.500101 0.860178
C7    C     C_R   0.781219 0.500130 0.499980 0.911274
C8    C     C_1   0.065448 0.500259 0.500059 -0.180005
C9    C     C_1   0.934594 0.500258 0.499962 -0.183421
C10   C     C_R   0.485339 0.063346 0.618283 0.143065
C11   C     C_R   0.523584 0.128590 0.502266 -0.144228
C12   C     C_R   0.607047 0.936473 0.395763 -0.036888
C13   C     C_R   0.596472 0.067215 0.395376 -0.190566
C14   C     C_2   0.691194 0.872002 0.285904 0.442298
C15   C     C_R   0.536267 0.871161 0.503088 -0.206590
C16   C     C_R   0.490513 0.935996 0.618285 0.131012
C17   C     C_3   0.349824 0.925381 0.700260 -0.368377
C18   C     C_3   0.344142 0.067566 0.699930 -0.508679
C19   C     C_R   0.385109 0.445351 0.071355 0.151357
C20   C     C_R   0.619839 0.543412 0.071787 -0.086924
C21   C     C_R   0.620012 0.543094 0.928091 -0.067695
Cl1   Cl    Cl    0.193081 0.642661 0.866873 -0.608121
H1    H     H_    0.642141 0.120690 0.311798 0.203035
H2    H     H_    0.715529 0.580827 0.874266 0.164552
H3    H     H_    0.729367 0.776061 0.298237 0.072356
H4    H     H_    0.148304 0.414676 0.879141 0.114579
H5    H     H_    0.205412 0.572291 0.131210 0.252968
H6    H     H_    0.154126 0.402475 0.121259 0.174911
H7    H     H_    0.255976 0.881191 0.643478 0.214869
H8    H     H_    0.371577 0.885377 0.802098 0.250079
H9    H     H_    0.247230 0.106463 0.642639 0.200430
H10   H     H_    0.362351 0.109608 0.801513 0.217714
H11   H     H_    0.715151 0.581517 0.125564 0.150762
N1    N     N_R   0.499010 0.499140 0.142800 -0.096908
N2    N     N_R   0.499010 0.499180 0.857150 -0.088550
O1    O     O_R   0.500020 0.316790 0.614690 -0.619891
O2    O     O_R   0.500000 0.316760 0.385350 -0.617221
O3    O     O_R   0.285350 0.500020 0.614650 -0.576651
O4    O     O_R   0.285340 0.499980 0.385310 -0.622731
O5    O     O_R   0.500000 0.683240 0.614650 -0.579183
O6    O     O_R   0.499980 0.683210 0.385310 -0.628539
O7    O     O_R   0.714660 0.500020 0.614690 -0.618385
O8    O     O_R   0.714650 0.499980 0.385350 -0.636508
O9    O     O_2   0.721830 0.926415 0.180869 -0.567958
Zn1   Zn    Zn3+2 0.500010 0.500020 0.653130 0.991589
Zn2   Zn    Zn3+2 0.499990 0.499980 0.346870 0.953466

loop_
_geom_bond_atom_site_label_1
_geom_bond_atom_site_label_2
_ccdc_geom_bond_type
C2    N2    A    
O6    Zn2   S    
C4    O4    A    
N1    Zn2   S    
C7    O8    A    
C5    H6    S    
C17   H7    S    
C1    C11   S    
C12   C15   A    
C1    O2    A    
C4    C8    S    
C20   N1    A    
C2    C3    S    
O2    Zn2   S    
O1    Zn1   S    
C7    O7    A    
C10   C16   A    
C20   C21   A    
C17   H8    S    
C11   C13   A    
C5    H5    S    
C10   C18   S    
O4    Zn2   S    
C5    C19   S    
C20   H11   S    
C4    O3    A    
C17   C18   S    
C14   H3    S    
O5    Zn1   S    
O8    Zn2   S    
C6    O5    A    
C21   N2    A    
C18   H10   S    
C10   C11   A    
O7    Zn1   S    
C15   C16   A    
N2    Zn1   S    
C12   C13   A    
C13   H1    S    
C14   O9    D    
C21   H2    S    
C7    C9    S    
C8    C9    T    
C3    Cl1   S    
C18   H9    S    
C3    C5    S    
C6    C15   S    
C2    C19   A    
C6    O6    A    
C3    H4    S    
C1    O1    A    
C12   C14   S    
C16   C17   S    
O3    Zn1   S    
C19   N1    A    
