data_mof_unit_22277.cif
_audit_creation_date              2012-10-26T19:48:46-0400
_audit_creation_method            fapswitch 2.2
_symmetry_space_group_name_H-M    P1
_symmetry_Int_Tables_number       1
_space_group_crystal_system       triclinic
_cell_length_a                    10.836311
_cell_length_b                    9.451934
_cell_length_c                    27.81854
_cell_angle_alpha                 90.021231
_cell_angle_beta                  88.888514
_cell_angle_gamma                 89.990682
_cell_volume                      2848.75247324

loop_
_atom_site_label
_atom_site_type_symbol
_atom_type_description
_atom_site_fract_x
_atom_site_fract_y
_atom_site_fract_z
_atom_type_partial_charge
C1    C     C_R   0.260492 0.500001 0.502370 0.536288
C2    C     C_R   0.390553 0.462571 0.975213 0.018536
C3    C     C_R   0.609368 0.536571 0.973603 0.018413
C4    C     C_R   0.499780 0.499973 0.407522 0.578809
C5    C     C_R   0.499978 0.499604 0.949164 0.034284
C6    C     C_R   0.282872 0.432750 0.949000 -0.140796
C7    C     C_R   0.283838 0.434406 0.899086 -0.112002
C8    C     C_R   0.391765 0.466530 0.873179 0.024655
C9    C     C_R   0.500011 0.499677 0.898024 -0.027011
C10   C     C_R   0.608288 0.532899 0.871582 0.024586
C11   C     C_R   0.606378 0.532207 0.821129 0.398336
C12   C     C_R   0.496914 0.371546 0.278937 -0.047863
C13   C     C_R   0.393737 0.467370 0.822698 0.398195
C14   C     C_R   0.491021 0.372118 0.721121 -0.056483
C15   C     C_R   0.491129 0.371987 0.671001 -0.145816
C16   C     C_R   0.740874 0.499982 0.500911 0.578953
C17   C     C_R   0.508817 0.627937 0.670928 -0.145670
C18   C     C_R   0.509108 0.627689 0.721046 -0.056491
C19   C     C_R   0.500098 0.499874 0.746285 0.242783
C20   C     C_R   0.391924 0.457435 0.026291 0.018115
C21   C     C_R   0.499898 0.499502 0.050742 0.034519
C22   C     C_R   0.607919 0.541600 0.024705 0.018292
C23   C     C_R   0.499622 0.499640 0.253672 0.236664
C24   C     C_R   0.288902 0.410608 0.054053 -0.140367
C25   C     C_R   0.709211 0.589246 0.100879 -0.109668
C26   C     C_R   0.717086 0.566461 0.945801 -0.140638
C27   C     C_R   0.716184 0.564946 0.895899 -0.111433
C28   C     C_R   0.499828 0.500014 0.592495 0.535028
C29   C     C_R   0.710900 0.588368 0.050959 -0.140291
C30   C     C_3   0.073529 0.629197 0.531654 -0.200001
C31   C     C_3   0.073667 0.368720 0.530535 -0.199852
C32   C     C_3   0.931606 0.634604 0.528589 0.074113
C33   C     C_3   0.931724 0.363842 0.527700 0.074225
C34   C     C_R   0.499847 0.499484 0.101884 -0.026699
C35   C     C_3   0.077143 0.501789 0.451095 -0.230510
C36   C     C_3   0.123811 0.499961 0.503654 -0.019387
C37   C     C_3   0.880646 0.499936 0.501672 0.035274
C38   C     C_3   0.934670 0.501334 0.449780 -0.184533
C39   C     C_3   0.586908 0.083267 0.536425 -0.088672
C40   C     C_3   0.586570 0.916788 0.536547 -0.088515
C41   C     C_3   0.376797 0.083778 0.514426 -0.166613
C42   C     C_3   0.376715 0.916274 0.514299 -0.166621
C43   C     C_3   0.532064 0.083575 0.452562 0.269675
C44   C     C_3   0.532482 0.916220 0.452606 0.269363
C45   C     C_R   0.394798 0.454700 0.128296 0.025346
C46   C     C_R   0.396628 0.455573 0.178750 0.399591
C47   C     C_R   0.602873 0.543442 0.177239 0.402792
C48   C     C_R   0.502103 0.627855 0.278862 -0.049220
C49   C     C_R   0.501927 0.628133 0.328979 -0.124456
C50   C     C_R   0.496891 0.371506 0.329053 -0.123379
C51   C     C_R   0.290488 0.409699 0.103948 -0.109096
C52   C     C_R   0.604837 0.544264 0.126757 0.024024
C53   C     C_R   0.499568 0.499877 0.354571 0.007408
C54   C     C_R   0.499925 0.499994 0.645428 0.004457
Cl1   Cl    Cl    0.897002 0.799531 0.499983 -0.537490
Cl2   Cl    Cl    0.896608 0.200321 0.498263 -0.533935
Cl3   Cl    Cl    0.671525 0.157760 0.427128 -0.441880
Cl4   Cl    Cl    0.672779 0.842518 0.427657 -0.442148
Cu1   Cu    Cu3+1 0.499860 0.642410 0.500020 0.971000
Cu2   Cu    Cu3+1 0.499860 0.357590 0.500020 0.971375
H1    H     H_    0.494656 0.271032 0.347712 0.154757
H2    H     H_    0.100406 0.623122 0.570036 0.091590
H3    H     H_    0.101048 0.371656 0.568904 0.092206
H4    H     H_    0.890787 0.638394 0.565576 0.113516
H5    H     H_    0.891337 0.358426 0.564731 0.113415
H6    H     H_    0.495175 0.272027 0.259665 0.140264
H7    H     H_    0.112824 0.597567 0.432156 0.150117
H8    H     H_    0.113398 0.407754 0.431284 0.148948
H9    H     H_    0.901846 0.595504 0.429802 0.203616
H10   H     H_    0.902383 0.407849 0.429288 0.202099
H11   H     H_    0.562550 0.121601 0.573180 0.099464
H12   H     H_    0.503738 0.727286 0.259536 0.140066
H13   H     H_    0.561458 0.879151 0.573302 0.098046
H14   H     H_    0.680995 0.121359 0.529034 0.235669
H15   H     H_    0.680557 0.878006 0.529469 0.235821
H16   H     H_    0.346915 0.123356 0.550493 0.133185
H17   H     H_    0.346399 0.876386 0.550262 0.134058
H18   H     H_    0.459789 0.117193 0.427057 0.081585
H19   H     H_    0.460775 0.882024 0.426947 0.082100
H20   H     H_    0.306440 0.120967 0.488756 0.131433
H21   H     H_    0.306612 0.879392 0.488461 0.131379
H22   H     H_    0.209010 0.373115 0.123415 0.171392
H23   H     H_    0.790653 0.625811 0.119152 0.170518
H24   H     H_    0.484004 0.271805 0.652358 0.119549
H25   H     H_    0.484242 0.272948 0.740470 0.129713
H26   H     H_    0.198903 0.410441 0.880842 0.167569
H27   H     H_    0.194930 0.409763 0.965843 0.108932
H28   H     H_    0.205477 0.371404 0.038471 0.111214
H29   H     H_    0.503557 0.728706 0.347576 0.157400
H30   H     H_    0.794364 0.627565 0.034155 0.110847
H31   H     H_    0.805006 0.589405 0.961346 0.109130
H32   H     H_    0.515791 0.728157 0.652229 0.119325
H33   H     H_    0.801143 0.588963 0.876401 0.168565
H34   H     H_    0.515909 0.726819 0.740340 0.129762
H35   H     H_    0.116627 0.727774 0.517351 0.192768
H36   H     H_    0.116461 0.271251 0.515200 0.193096
N1    N     N_R   0.499715 0.499531 0.202106 -0.399228
N2    N     N_R   0.500073 0.499820 0.797825 -0.398582
N3    N     N_3   0.500250 0.143650 0.501060 -0.258240
N4    N     N_3   0.500250 0.856350 0.501060 -0.258363
O1    O     O_R   0.317570 0.620260 0.500030 -0.528701
O2    O     O_2   0.290083 0.436937 0.798628 -0.493149
O3    O     O_2   0.703560 0.585059 0.201312 -0.476690
O4    O     O_2   0.710058 0.562718 0.795528 -0.492885
O5    O     O_R   0.317570 0.379740 0.500030 -0.529013
O6    O     O_R   0.499900 0.620250 0.430280 -0.479390
O7    O     O_R   0.499900 0.379750 0.430280 -0.477768
O8    O     O_R   0.682190 0.620260 0.500010 -0.431589
O9    O     O_R   0.682190 0.379740 0.500010 -0.431901
O10   O     O_R   0.499860 0.620280 0.569750 -0.524069
O11   O     O_R   0.499860 0.379720 0.569750 -0.524483
O12   O     O_2   0.295872 0.413989 0.204297 -0.486629

loop_
_geom_bond_atom_site_label_1
_geom_bond_atom_site_label_2
_ccdc_geom_bond_type
C10   C27   A    
C38   H10   S    
C8    C13   A    
C22   C29   A    
C46   O12   S    
C4    C53   S    
C41   C42   S    
C35   C36   S    
Cu2   N3    S    
C41   H20   S    
C33   H5    S    
C7    C8    A    
C45   C46   A    
C43   H18   S    
C42   H21   S    
C12   C23   A    
C26   C27   A    
C30   H35   S    
C11   N2    A    
C43   N3    S    
C7    H26   S    
C45   C51   A    
C31   H36   S    
Cu1   O10   S    
C40   H13   S    
C18   C19   A    
C39   H14   S    
C13   N2    A    
Cu2   O9    S    
C20   C24   A    
C44   Cl4   S    
C8    C9    A    
C41   N3    S    
C11   O4    S    
C9    C10   A    
C32   Cl1   S    
C16   C37   S    
C24   C51   A    
C38   H9    S    
Cu1   Cu2   S    
C21   C22   A    
Cu1   N4    S    
C2    C6    A    
C17   H32   S    
C48   H12   S    
C29   H30   S    
C19   N2    S    
C16   O9    A    
C44   H19   S    
C28   O11   A    
C25   C29   A    
C4    O7    A    
Cu1   O6    S    
C47   O3    S    
C2    C20   A    
C50   C53   A    
C15   C54   A    
C31   H3    S    
C35   C38   S    
C32   H4    S    
C39   C40   S    
C28   C54   S    
C21   C34   A    
C28   O10   A    
C26   H31   S    
C4    O6    A    
C33   C37   S    
C6    H27   S    
Cu1   O1    S    
C47   C52   A    
C43   C44   S    
C5    C9    A    
C37   C38   S    
C42   N4    S    
C39   N3    S    
C35   H7    S    
C31   C33   S    
C17   C18   A    
C43   Cl3   S    
C34   C45   A    
C32   C37   S    
C24   H28   S    
C51   H22   S    
C15   H24   S    
Cu2   O7    S    
C48   C49   A    
C23   N1    S    
C46   N1    A    
C30   H2    S    
C18   H34   S    
C27   H33   S    
C2    C5    A    
C1    O1    A    
C23   C48   A    
C14   C15   A    
C14   C19   A    
C3    C26   A    
C14   H25   S    
C49   H29   S    
C3    C5    A    
C40   N4    S    
C12   C50   A    
C6    C7    A    
C34   C52   A    
Cu1   O8    S    
C47   N1    A    
C40   H15   S    
C30   C36   S    
C25   C52   A    
Cu2   O11   S    
C41   H16   S    
C30   C32   S    
C44   N4    S    
C12   H6    S    
C35   H8    S    
C33   Cl2   S    
C49   C53   A    
C10   C11   A    
C16   O8    A    
C20   C21   A    
C42   H17   S    
C25   H23   S    
C50   H1    S    
C39   H11   S    
C31   C36   S    
C3    C22   A    
C13   O2    S    
C17   C54   A    
Cu2   O5    S    
C1    C36   S    
C1    O5    A    
