data_mof_unit_63101.cif
_audit_creation_date              2012-12-10T20:46:36-0500
_audit_creation_method            fapswitch 2.2
_symmetry_space_group_name_H-M    P1
_symmetry_Int_Tables_number       1
_space_group_crystal_system       triclinic
_cell_length_a                    15.479072
_cell_length_b                    19.17116
_cell_length_c                    19.148774
_cell_angle_alpha                 94.950768
_cell_angle_beta                  102.408085
_cell_angle_gamma                 97.145233
_cell_volume                      5469.01948735

loop_
_atom_site_label
_atom_site_type_symbol
_atom_type_description
_atom_site_fract_x
_atom_site_fract_y
_atom_site_fract_z
_atom_type_partial_charge
C1    C     C_R   0.509253 0.311296 0.493341 0.974617
C2    C     C_R   0.883811 0.521892 0.500994 0.264424
C3    C     C_R   0.885750 0.572123 0.622841 0.287089
C4    C     C_R   0.489660 0.688103 0.505448 0.870191
C5    C     C_R   0.159563 0.461537 0.442209 -0.201948
C6    C     C_R   0.487144 0.765014 0.509259 -0.131249
C7    C     C_R   0.566685 0.809262 0.510979 -0.229718
C8    C     C_R   0.571382 0.882401 0.519172 0.412606
C9    C     C_R   0.494405 0.913378 0.523781 0.177968
C10   C     C_R   0.413937 0.869731 0.524315 -0.190430
C11   C     C_R   0.409578 0.794954 0.516017 -0.140684
C12   C     C_R   0.044609 0.490845 0.345329 0.332031
C13   C     C_R   0.441303 0.112542 0.467665 0.305152
C14   C     C_R   0.436194 0.185186 0.471589 0.333589
C15   C     C_R   0.525160 0.088814 0.482840 0.097125
C16   C     C_R   0.510135 0.509084 0.690850 0.939200
C17   C     C_R   0.515241 0.234825 0.488272 -0.295727
C18   C     C_R   0.599778 0.210897 0.500248 -0.233547
C19   C     C_R   0.603918 0.137684 0.496961 0.332668
C20   C     C_R   0.482078 0.487267 0.229855 -0.182112
C21   C     C_R   0.503090 0.550371 0.201052 -0.261866
C22   C     C_R   0.491611 0.552038 0.126726 -0.112595
C23   C     C_R   0.005310 0.523434 0.396974 -0.157883
C24   C     C_R   0.462551 0.488064 0.080016 0.128175
C25   C     C_R   0.438114 0.425157 0.108162 0.357113
C26   C     C_R   0.449099 0.424046 0.182794 0.335035
C27   C     C_R   0.492459 0.444812 0.868481 -0.205524
C28   C     C_R   0.490572 0.490173 0.308544 0.904641
C29   C     C_R   0.483624 0.447107 0.794049 0.330330
C30   C     C_R   0.528231 0.507049 0.916759 0.135444
C31   C     C_R   0.513636 0.510053 0.768105 -0.217052
C32   C     C_R   0.554870 0.570812 0.816526 -0.217237
C33   C     C_R   0.562411 0.568585 0.890903 0.394479
C34   C     C_R   0.029280 0.508486 0.469609 0.001643
C35   C     C_R   0.741399 0.534770 0.535489 0.966319
C36   C     C_R   0.257695 0.466313 0.465037 0.932340
C37   C     C_R   0.975810 0.563904 0.645130 0.392170
C38   C     C_R   0.838816 0.547002 0.551990 -0.251687
C39   C     C_R   0.120170 0.457955 0.367865 0.303926
C40   C     C_2   0.333920 0.903340 0.530615 1.069390
C41   C     C_2   0.324417 0.748462 0.513845 1.036628
C42   C     C_2   0.683782 0.261852 0.513615 1.072330
C43   C     C_2   0.470855 0.376391 0.895997 1.088739
C44   C     C_2   0.592965 0.635772 0.790082 1.013385
C45   C     C_R   0.110196 0.480816 0.493338 -0.074383
C46   C     C_2   0.504737 0.621814 0.099478 1.048670
C47   C     C_2   0.951123 0.581260 0.378167 1.045398
C48   C     C_R   0.977670 0.524106 0.520575 0.038804
C49   C     C_R   0.019833 0.534825 0.594826 -0.131131
C50   C     C_R   0.100985 0.509587 0.617613 -0.112528
C51   C     C_R   0.140525 0.475958 0.568075 0.408031
Cl1   Cl    Cl    0.829175 0.607635 0.685588 -0.461374
Cl2   Cl    Cl    0.819389 0.470864 0.420464 -0.537890
Cl3   Cl    Cl    0.171074 0.421409 0.301466 -0.384688
Cl4   Cl    Cl    0.006631 0.497442 0.252375 -0.338838
Cl5   Cl    Cl    0.220552 0.422211 0.603347 -0.478993
Cl6   Cl    Cl    0.329596 0.213124 0.458612 -0.363671
Cl7   Cl    Cl    0.342176 0.050904 0.439886 -0.405036
Cl8   Cl    Cl    0.677048 0.932810 0.528249 -0.404455
Cl9   Cl    Cl    0.707852 0.105981 0.507553 -0.344092
Cl10  Cl    Cl    0.438889 0.369939 0.732550 -0.439835
Cl11  Cl    Cl    0.393798 0.346933 0.049170 -0.392171
Cl12  Cl    Cl    0.425089 0.342017 0.215702 -0.365231
Cl13  Cl    Cl    0.611709 0.644090 0.952962 -0.412424
Cl14  Cl    Cl    0.031515 0.588204 0.736498 -0.395804
H1    H     H_    0.626914 0.786741 0.508275 0.211298
H2    H     H_    0.921043 0.676782 0.409612 0.375574
H3    H     H_    0.129617 0.509162 0.674320 0.231255
H4    H     H_    0.524922 0.599412 0.236702 0.230875
H5    H     H_    0.283333 0.979714 0.581439 0.390475
H6    H     H_    0.232591 0.665961 0.461860 0.352137
H7    H     H_    0.751946 0.346000 0.483253 0.375872
H8    H     H_    0.382519 0.288049 0.889671 0.393528
H9    H     H_    0.699200 0.711097 0.798549 0.380591
H10   H     H_    0.568541 0.722304 0.117640 0.387676
N1    N     N_2   0.494757 0.987779 0.526532 -0.065994
N2    N     N_2   0.530977 0.015514 0.481423 -0.038178
N3    N     N_2   0.458543 0.485356 0.005019 -0.084682
N4    N     N_2   0.531366 0.509224 0.991726 -0.071742
O1    O     O_3   0.500000 0.500000 0.500000 -0.552162
O2    O     O_R   0.703360 0.489010 0.567610 -0.618403
O3    O     O_R   0.300660 0.429640 0.429680 -0.568644
O4    O     O_R   0.695340 0.566530 0.487850 -0.603510
O5    O     O_R   0.300650 0.514820 0.514850 -0.630076
O6    O     O_2   0.261408 0.881285 0.489873 -0.530781
O7    O     O_R   0.342050 0.961031 0.582720 -0.719133
O8    O     O_2   0.284496 0.757224 0.561785 -0.551591
O9    O     O_R   0.290326 0.694466 0.457036 -0.783890
O10   O     O_2   0.745453 0.258202 0.564546 -0.511107
O11   O     O_R   0.692061 0.314283 0.468088 -0.770036
O12   O     O_R   0.453370 0.540700 0.651360 -0.579539
O13   O     O_2   0.525373 0.357294 0.944097 -0.531221
O14   O     O_R   0.388697 0.333712 0.866945 -0.675385
O15   O     O_2   0.547882 0.661465 0.741055 -0.593531
O16   O     O_R   0.680743 0.667439 0.821258 -0.674600
O17   O     O_2   0.459981 0.631737 0.041281 -0.537417
O18   O     O_R   0.566155 0.677228 0.141678 -0.744049
O19   O     O_2   0.897339 0.576465 0.320335 -0.478766
O20   O     O_R   0.961709 0.641464 0.427732 -0.781415
O21   O     O_R   0.442100 0.444740 0.334100 -0.581387
O22   O     O_R   0.561930 0.354050 0.543340 -0.630072
O23   O     O_R   0.542600 0.660510 0.471200 -0.642287
O24   O     O_R   0.453390 0.335660 0.446330 -0.573030
O25   O     O_R   0.442080 0.649780 0.539130 -0.616735
O26   O     O_R   0.561920 0.473910 0.663190 -0.610282
O27   O     O_R   0.542610 0.540650 0.351350 -0.630887
Zn1   Zn    Zn3+2 0.425320 0.550450 0.550460 1.084219
Zn2   Zn    Zn3+2 0.580410 0.455020 0.567370 1.098035
Zn3   Zn    Zn3+2 0.568940 0.565780 0.453410 1.055513
Zn4   Zn    Zn3+2 0.425330 0.428750 0.428760 1.155639

loop_
_geom_bond_atom_site_label_1
_geom_bond_atom_site_label_2
_ccdc_geom_bond_type
O21   Zn4   S    
C27   C29   A    
H8    O14   S    
C35   O2    A    
C47   O20   S    
C7    C8    A    
C16   C31   S    
C15   C19   A    
O1    Zn1   S    
C47   O19   D    
O24   Zn4   S    
O3    Zn4   S    
C18   C19   A    
C18   C42   S    
C8    Cl8   S    
C39   Cl3   S    
C45   C51   A    
C5    C36   S    
H10   O18   S    
O5    Zn1   S    
C37   C49   A    
C10   C40   S    
C51   Cl5   S    
C40   O7    S    
C41   O9    S    
C3    C38   A    
C28   O27   A    
C8    C9    A    
C37   Cl14  S    
O1    Zn3   S    
O4    Zn3   S    
C9    N1    S    
C9    C10   A    
C1    O24   A    
H2    O20   S    
C28   O21   A    
O22   Zn2   S    
O2    Zn2   S    
C13   C14   A    
C27   C30   A    
C4    O23   A    
C14   C17   A    
C50   C51   A    
C41   O8    D    
O26   Zn2   S    
C29   Cl10  S    
C23   C47   S    
O12   Zn1   S    
C35   C38   S    
N1    N2    D    
C4    C6    S    
C36   O3    A    
C6    C11   A    
C35   O4    A    
N3    N4    D    
C13   Cl7   S    
C20   C28   S    
C2    C48   A    
C25   C26   A    
C5    C45   A    
C21   H4    S    
C42   O11   S    
C40   O6    D    
C26   Cl12  S    
H7    O11   S    
C2    C38   A    
C31   C32   A    
C12   C23   A    
C23   C34   A    
C17   C18   A    
C32   C44   S    
C34   C45   A    
C24   C25   A    
C16   O26   A    
C30   N4    S    
C24   N3    S    
C48   C49   A    
C22   C46   S    
C46   O18   S    
C13   C15   A    
C22   C24   A    
C34   C48   A    
H5    O7    S    
C1    O22   A    
C14   Cl6   S    
C30   C33   A    
H9    O16   S    
C2    Cl2   S    
C3    Cl1   S    
C6    C7    A    
C19   Cl9   S    
O1    Zn2   S    
C1    C17   S    
C43   O13   D    
C42   O10   D    
C32   C33   A    
C12   C39   A    
C5    C39   A    
C29   C31   A    
C44   O16   S    
C7    H1    S    
C15   N2    S    
C20   C26   A    
C36   O5    A    
C33   Cl13  S    
C4    O25   A    
C43   O14   S    
C11   C41   S    
C25   Cl11  S    
C12   Cl4   S    
C44   O15   D    
C10   C11   A    
H6    O9    S    
C27   C43   S    
C46   O17   D    
C20   C21   A    
C3    C37   A    
C16   O12   A    
C49   C50   A    
O1    Zn4   S    
O23   Zn3   S    
C21   C22   A    
C50   H3    S    
O25   Zn1   S    
O27   Zn3   S    
