data_mof_unit_24609.cif
_audit_creation_date              2012-12-11T15:41:15-0500
_audit_creation_method            fapswitch 2.2
_symmetry_space_group_name_H-M    P1
_symmetry_Int_Tables_number       1
_space_group_crystal_system       triclinic
_cell_length_a                    18.998132
_cell_length_b                    10.975861
_cell_length_c                    18.779749
_cell_angle_alpha                 90.086539
_cell_angle_beta                  90.214472
_cell_angle_gamma                 90.085523
_cell_volume                      3915.93304141

loop_
_atom_site_label
_atom_site_type_symbol
_atom_type_description
_atom_site_fract_x
_atom_site_fract_y
_atom_site_fract_z
_atom_type_partial_charge
C1    C     C_R   0.726083 0.957329 0.854176 0.540949
C2    C     C_R   0.312960 0.395737 0.029352 0.023121
C3    C     C_R   0.759835 0.863935 0.352944 0.544178
C4    C     C_2   0.497700 0.171042 0.921076 -0.108930
C5    C     C_2   0.501085 0.165962 0.078330 -0.120635
C6    C     C_2   0.997762 0.671042 0.921105 -0.108887
C7    C     C_2   0.001129 0.665945 0.078354 -0.120649
C8    C     C_2   0.484290 0.070131 0.036488 -0.166315
C9    C     C_2   0.498470 0.068504 0.959573 -0.167146
C10   C     C_2   0.984346 0.570110 0.036509 -0.166261
C11   C     C_2   0.998521 0.568493 0.959592 -0.167089
C12   C     C_R   0.745630 0.400979 0.080506 0.015199
C13   C     C_R   0.187376 0.933014 0.966929 0.018179
C14   C     C_R   0.238148 0.425678 0.927663 0.018854
C15   C     C_R   0.245637 0.901119 0.080476 0.015233
C16   C     C_R   0.738136 0.925696 0.927663 0.018908
C17   C     C_R   0.812944 0.895570 0.029328 0.023188
C18   C     C_R   0.762469 0.259128 0.982551 -0.158096
C19   C     C_R   0.187987 0.419475 0.046499 -0.167266
C20   C     C_R   0.262159 0.758952 0.982627 -0.158284
C21   C     C_R   0.687992 0.919536 0.046507 -0.167151
C22   C     C_R   0.773605 0.291523 0.053983 -0.153104
C23   C     C_R   0.179433 0.426522 0.973328 -0.151590
C24   C     C_R   0.273307 0.791374 0.054059 -0.153140
C25   C     C_R   0.272607 0.955691 0.146262 0.543883
C26   C     C_R   0.679428 0.926638 0.973337 -0.151483
C27   C     C_3   0.692890 0.597431 0.021451 -0.251596
C28   C     C_3   0.373437 0.466844 0.945944 -0.282874
C29   C     C_3   0.193731 0.097958 0.021228 -0.251607
C30   C     C_3   0.873466 0.966470 0.945889 -0.282841
C31   C     C_3   0.681240 0.562340 0.944095 -0.258561
C32   C     C_3   0.382335 0.460578 0.026471 -0.261900
C33   C     C_3   0.182112 0.062871 0.943870 -0.258610
C34   C     C_3   0.882375 0.960233 0.026416 -0.261793
C35   C     C_R   0.724705 0.336279 0.936658 0.014649
C36   C     C_R   0.226084 0.457327 0.854177 0.540917
C37   C     C_R   0.255483 0.409177 0.075627 0.011671
C38   C     C_R   0.224719 0.836387 0.936640 0.014710
C39   C     C_R   0.755489 0.909136 0.075618 0.011714
C40   C     C_R   0.510358 0.171188 0.419926 0.017790
C41   C     C_R   0.520062 0.169454 0.567376 0.017569
C42   C     C_R   0.010362 0.671190 0.419924 0.017781
C43   C     C_R   0.020068 0.669457 0.567374 0.017562
C44   C     C_R   0.521796 0.279886 0.457498 0.030776
C45   C     C_R   0.525681 0.277926 0.529803 0.043585
C46   C     C_R   0.021803 0.779888 0.457495 0.030784
C47   C     C_R   0.772610 0.455688 0.146258 0.543935
C48   C     C_R   0.025689 0.777928 0.529800 0.043592
C49   C     C_R   0.523784 0.058797 0.529629 -0.161738
C50   C     C_R   0.519863 0.059744 0.455295 -0.166738
C51   C     C_R   0.023788 0.558800 0.529627 -0.161741
C52   C     C_R   0.019869 0.559747 0.455293 -0.166751
C53   C     C_R   0.529806 0.177868 0.850710 0.544895
C54   C     C_R   0.469838 0.177283 0.149025 0.550455
C55   C     C_R   0.029819 0.677868 0.850718 0.544902
C56   C     C_R   0.969849 0.677280 0.149033 0.550455
C57   C     C_3   0.481401 0.397981 0.459591 -0.269336
C58   C     C_R   0.697512 0.464403 0.037694 0.009001
C59   C     C_3   0.486377 0.393994 0.539616 -0.279794
C60   C     C_3   0.981410 0.897986 0.459589 -0.269330
C61   C     C_3   0.986388 0.893999 0.539614 -0.279787
C62   C     C_R   0.750816 0.402089 0.419900 0.015349
C63   C     C_R   0.237147 0.441144 0.569748 0.015081
C64   C     C_R   0.250810 0.902084 0.419897 0.015354
C65   C     C_R   0.737153 0.941129 0.569753 0.015082
C66   C     C_R   0.799622 0.331932 0.458116 0.030582
C67   C     C_R   0.181415 0.392139 0.530832 0.041449
C68   C     C_R   0.299603 0.831887 0.458108 0.030585
C69   C     C_R   0.304505 0.404950 0.956538 -0.007229
C70   C     C_R   0.681431 0.892086 0.530841 0.041433
C71   C     C_R   0.795404 0.322592 0.530677 0.038893
C72   C     C_R   0.184239 0.382324 0.458240 0.028798
C73   C     C_R   0.295387 0.822551 0.530669 0.038912
C74   C     C_R   0.684254 0.882266 0.458250 0.028794
C75   C     C_R   0.686534 0.433485 0.529857 -0.159919
C76   C     C_R   0.294508 0.491009 0.457680 -0.164558
C77   C     C_R   0.186541 0.933515 0.529860 -0.159916
C78   C     C_R   0.794503 0.991009 0.457682 -0.164566
C79   C     C_R   0.690071 0.442009 0.455366 -0.166192
C80   C     C_R   0.197815 0.964943 0.037551 0.009059
C81   C     C_R   0.291377 0.500402 0.532182 -0.160690
C82   C     C_R   0.190074 0.942038 0.455368 -0.166171
C83   C     C_R   0.791373 0.000406 0.532183 -0.160695
C84   C     C_3   0.878522 0.337336 0.461373 -0.269422
C85   C     C_3   0.144352 0.273550 0.540152 -0.280331
C86   C     C_3   0.378508 0.837198 0.461356 -0.269421
C87   C     C_3   0.644396 0.773476 0.540167 -0.280346
C88   C     C_3   0.873115 0.326638 0.541343 -0.280739
C89   C     C_3   0.147260 0.261532 0.460087 -0.270781
C90   C     C_3   0.373104 0.826519 0.541328 -0.280704
C91   C     C_R   0.804478 0.904792 0.956518 -0.007209
C92   C     C_3   0.647308 0.761447 0.460102 -0.270767
C93   C     C_R   0.742789 0.381858 0.568519 0.013654
C94   C     C_R   0.244107 0.420460 0.421105 0.015781
C95   C     C_R   0.242788 0.881853 0.568517 0.013657
C96   C     C_R   0.744110 0.920441 0.421110 0.015784
C97   C     C_R   0.723654 0.312565 0.859872 0.561786
C98   C     C_R   0.262228 0.364326 0.147466 0.541899
C99   C     C_R   0.223655 0.812565 0.859872 0.561709
C100  C     C_R   0.762230 0.864316 0.147463 0.541929
C101  C     C_R   0.726066 0.960352 0.645304 0.548121
C102  C     C_R   0.687058 0.432472 0.967070 0.018052
C103  C     C_R   0.271778 0.953568 0.351854 0.543682
C104  C     C_R   0.226065 0.460356 0.645302 0.548116
C105  C     C_R   0.771778 0.453569 0.351854 0.543678
C106  C     C_R   0.533199 0.176239 0.642569 0.547146
C107  C     C_R   0.472025 0.176744 0.353815 0.546616
C108  C     C_R   0.033201 0.676240 0.642567 0.547151
C109  C     C_R   0.972026 0.676744 0.353814 0.546598
C110  C     C_R   0.737815 0.356624 0.644129 0.553602
C111  C     C_R   0.259835 0.363937 0.352943 0.544178
C112  C     C_R   0.237815 0.856624 0.644129 0.553587
Cr1   Cr    Cr6+3 0.769260 0.163750 0.750730 1.005800
Cr2   Cr    Cr6+3 0.385810 0.322400 0.252290 1.008244
Cr3   Cr    Cr6+3 0.114190 0.822400 0.747710 1.010150
Cr4   Cr    Cr6+3 0.885810 0.822400 0.252290 1.008275
Cr5   Cr    Cr6+3 0.230740 0.163750 0.249270 1.008958
Cr6   Cr    Cr6+3 0.269260 0.663750 0.750730 1.005797
Cr7   Cr    Cr6+3 0.730740 0.663750 0.249270 1.008938
Cr8   Cr    Cr6+3 0.612640 0.009910 0.748780 1.006793
Cr9   Cr    Cr6+3 0.387360 0.009910 0.251220 1.006674
Cr10  Cr    Cr6+3 0.112640 0.509910 0.748780 1.006778
Cr11  Cr    Cr6+3 0.887360 0.509910 0.251220 1.006673
Cr12  Cr    Cr6+3 0.614190 0.322400 0.747710 1.010115
H1    H     H_    0.457428 0.991226 0.058333 0.160642
H2    H     H_    0.434693 0.380343 0.566092 0.136459
H3    H     H_    0.011225 0.974930 0.435752 0.124715
H4    H     H_    0.934704 0.880353 0.566091 0.136460
H5    H     H_    0.641428 0.470644 0.557127 0.131002
H6    H     H_    0.338805 0.530261 0.429816 0.120585
H7    H     H_    0.141443 0.970701 0.557133 0.130975
H8    H     H_    0.838795 0.030277 0.429814 0.120601
H9    H     H_    0.648540 0.488378 0.426685 0.120807
H10   H     H_    0.332155 0.550018 0.560232 0.130563
H11   H     H_    0.148549 0.988428 0.426691 0.120794
H12   H     H_    0.509302 0.981399 0.934532 0.142589
H13   H     H_    0.832144 0.050042 0.560230 0.130589
H14   H     H_    0.899230 0.427149 0.444597 0.168222
H15   H     H_    0.089993 0.284434 0.560729 0.134012
H16   H     H_    0.399257 0.926982 0.444575 0.168213
H17   H     H_    0.590035 0.784327 0.560742 0.134026
H18   H     H_    0.903601 0.256925 0.435917 0.126961
H19   H     H_    0.177035 0.205057 0.568634 0.137691
H20   H     H_    0.403549 0.756746 0.435902 0.126942
H21   H     H_    0.677094 0.705012 0.568653 0.137699
H22   H     H_    0.894614 0.239663 0.562242 0.133654
H23   H     H_    0.957476 0.491208 0.058347 0.160617
H24   H     H_    0.181942 0.186263 0.442805 0.167439
H25   H     H_    0.394578 0.739523 0.562229 0.133641
H26   H     H_    0.682015 0.686209 0.442824 0.167445
H27   H     H_    0.890763 0.409887 0.570194 0.137980
H28   H     H_    0.094570 0.264607 0.434195 0.126620
H29   H     H_    0.390781 0.909760 0.570173 0.137971
H30   H     H_    0.594618 0.764470 0.434207 0.126635
H31   H     H_    0.529370 0.243802 0.057061 0.103503
H32   H     H_    0.482875 0.256166 0.945952 0.101081
H33   H     H_    0.029426 0.743780 0.057096 0.103481
H34   H     H_    0.009315 0.481387 0.934537 0.142561
H35   H     H_    0.982989 0.756170 0.946002 0.101041
H36   H     H_    0.786651 0.178067 0.962129 0.129297
H37   H     H_    0.141817 0.420013 0.080236 0.134944
H38   H     H_    0.286062 0.677596 0.962291 0.129281
H39   H     H_    0.641830 0.920148 0.080254 0.134943
H40   H     H_    0.808161 0.236196 0.086534 0.128797
H41   H     H_    0.126812 0.438658 0.952767 0.142430
H42   H     H_    0.307611 0.735778 0.086707 0.128717
H43   H     H_    0.626814 0.938887 0.952784 0.142428
H44   H     H_    0.244534 0.145880 0.030584 0.153291
H45   H     H_    0.926269 0.888441 0.441128 0.170662
H46   H     H_    0.869887 0.060192 0.924514 0.146784
H47   H     H_    0.743543 0.645924 0.030716 0.153550
H48   H     H_    0.369760 0.560584 0.924604 0.146937
H49   H     H_    0.646041 0.640543 0.046208 0.149640
H50   H     H_    0.410687 0.408515 0.916208 0.139469
H51   H     H_    0.147002 0.141622 0.045860 0.149989
H52   H     H_    0.910635 0.908002 0.916147 0.139518
H53   H     H_    0.627557 0.584824 0.924391 0.142638
H54   H     H_    0.426696 0.401274 0.043142 0.152129
H55   H     H_    0.128577 0.085948 0.924034 0.142792
H56   H     H_    0.019291 0.968205 0.562345 0.135504
H57   H     H_    0.926689 0.900830 0.043090 0.152145
H58   H     H_    0.724990 0.591072 0.908628 0.153507
H59   H     H_    0.380873 0.551271 0.052835 0.129506
H60   H     H_    0.226038 0.091010 0.908488 0.153441
H61   H     H_    0.880993 0.050946 0.052762 0.129473
H62   H     H_    0.526909 0.972621 0.557276 0.132488
H63   H     H_    0.516970 0.974144 0.426722 0.122888
H64   H     H_    0.026909 0.472625 0.557275 0.132485
H65   H     H_    0.016971 0.474147 0.426721 0.122893
H66   H     H_    0.426262 0.388429 0.441129 0.170666
H67   H     H_    0.519278 0.468202 0.562348 0.135500
H68   H     H_    0.511215 0.474928 0.435755 0.124708
O1    O     O_R   0.784290 0.290360 0.830540 -0.514484
O2    O     O_R   0.456020 0.282110 0.333230 -0.524959
O3    O     O_R   0.043980 0.782110 0.666770 -0.518489
O4    O     O_R   0.956020 0.782110 0.333230 -0.524958
O5    O     O_R   0.679070 0.374030 0.674430 -0.503286
O6    O     O_R   0.320930 0.374030 0.325570 -0.510101
O7    O     O_R   0.179070 0.874030 0.674430 -0.503286
O8    O     O_R   0.820930 0.874030 0.325570 -0.510098
O9    O     O_3   0.665360 0.165350 0.749070 -0.269660
O10   O     O_3   0.334640 0.165350 0.250930 -0.243081
O11   O     O_3   0.165360 0.665350 0.749070 -0.269665
O12   O     O_R   0.215710 0.290360 0.169460 -0.524810
O13   O     O_3   0.834640 0.665350 0.250930 -0.243073
O14   O     O_R   0.762610 0.041070 0.825230 -0.520519
O15   O     O_R   0.237390 0.041070 0.174770 -0.497388
O16   O     O_R   0.262610 0.541070 0.825230 -0.520513
O17   O     O_R   0.737390 0.541070 0.174770 -0.497407
O18   O     O_R   0.667390 0.924160 0.829970 -0.524845
O19   O     O_R   0.332610 0.924160 0.170030 -0.524341
O20   O     O_R   0.167390 0.424160 0.829970 -0.524861
O21   O     O_R   0.832610 0.424160 0.170030 -0.524381
O22   O     O_R   0.553980 0.081420 0.821780 -0.499308
O23   O     O_R   0.284290 0.790360 0.830540 -0.514460
O24   O     O_R   0.446020 0.081420 0.178220 -0.497061
O25   O     O_R   0.053980 0.581420 0.821780 -0.499303
O26   O     O_R   0.946020 0.581420 0.178220 -0.497054
O27   O     O_R   0.543210 0.283170 0.826740 -0.524870
O28   O     O_R   0.456790 0.283170 0.173260 -0.518723
O29   O     O_R   0.043210 0.783170 0.826740 -0.524841
O30   O     O_R   0.956790 0.783170 0.173260 -0.518719
O31   O     O_R   0.678350 0.375000 0.822720 -0.496958
O32   O     O_R   0.321650 0.375000 0.177280 -0.498406
O33   O     O_R   0.178350 0.875000 0.822720 -0.496941
O34   O     O_R   0.715710 0.790360 0.169460 -0.524815
O35   O     O_R   0.821650 0.875000 0.177280 -0.498391
O36   O     O_R   0.785060 0.289300 0.670580 -0.513231
O37   O     O_R   0.214940 0.289300 0.329420 -0.522429
O38   O     O_R   0.285060 0.789300 0.670580 -0.513238
O39   O     O_R   0.714940 0.789300 0.329420 -0.522429
O40   O     O_R   0.763330 0.040090 0.676940 -0.506404
O41   O     O_R   0.236670 0.040090 0.323060 -0.509231
O42   O     O_R   0.263330 0.540090 0.676940 -0.506398
O43   O     O_R   0.736670 0.540090 0.323060 -0.509236
O44   O     O_R   0.668160 0.923110 0.670000 -0.515158
O45   O     O_R   0.554690 0.080440 0.673480 -0.506238
O46   O     O_R   0.331840 0.923110 0.330000 -0.522243
O47   O     O_R   0.168160 0.423110 0.670000 -0.515162
O48   O     O_R   0.831840 0.423110 0.330000 -0.522234
O49   O     O_R   0.445310 0.080440 0.326520 -0.511134
O50   O     O_R   0.054690 0.580440 0.673480 -0.506236
O51   O     O_R   0.945310 0.580440 0.326520 -0.511148
O52   O     O_R   0.543980 0.282110 0.666770 -0.518494

loop_
_geom_bond_atom_site_label_1
_geom_bond_atom_site_label_2
_ccdc_geom_bond_type
C20   C38   A    
Cr10  O11   S    
C7    C10   D    
C56   O30   A    
C21   C26   A    
C19   H37   S    
C53   O22   A    
C21   H39   S    
Cr10  O25   S    
C12   C22   A    
C4    C53   S    
C64   C103  S    
C68   C86   S    
C32   H59   S    
Cr6   O16   S    
Cr6   O11   S    
C17   C91   A    
C65   C101  S    
C6    C55   S    
C35   C102  A    
C32   H54   S    
C85   H19   S    
C56   O26   A    
C6    H35   S    
C48   C61   S    
C86   H20   S    
C81   H10   S    
Cr10  O50   S    
C62   C105  S    
C59   H2    S    
C54   O24   A    
C31   H53   S    
C60   H45   S    
C64   C68   A    
C29   H44   S    
C98   O12   A    
C42   C109  S    
Cr6   O38   S    
C73   C90   S    
Cr3   O33   S    
C89   H24   S    
C35   C97   S    
C95   C112  S    
C90   H25   S    
C111  O6    A    
C36   O16   A    
Cr4   O8    S    
C100  O35   A    
C38   C99   S    
C109  O4    A    
C65   C83   A    
C33   H55   S    
C109  O51   A    
C74   C92   S    
C65   C70   A    
C29   C33   S    
C94   C111  S    
C112  O38   A    
Cr11  O13   S    
C34   H57   S    
C2    C32   S    
C67   C72   A    
C17   C39   A    
C61   H4    S    
C97   O1    A    
C82   H11   S    
C25   O19   A    
C78   H8    S    
C30   H46   S    
C51   H64   S    
C19   C37   A    
C76   C94   A    
C23   H41   S    
C104  O47   A    
C76   H6    S    
C78   C83   A    
C28   H48   S    
C89   H28   S    
C49   H62   S    
C20   C24   A    
C78   C96   A    
C8    C9    S    
C106  O45   A    
C98   O32   A    
C70   C74   A    
Cr2   O10   S    
Cr6   O23   S    
C58   C102  A    
C84   H18   S    
C43   C108  S    
Cr12  O52   S    
Cr5   O12   S    
Cr2   O2    S    
C18   C35   A    
C85   H15   S    
C112  O7    A    
Cr4   O13   S    
C86   H16   S    
C93   C110  S    
C55   O29   A    
C12   C58   A    
C61   H56   S    
C104  O42   A    
Cr12  O27   S    
C84   H14   S    
C103  O41   A    
C87   C92   S    
C110  O5    A    
C70   C87   S    
Cr8   O9    S    
C105  O43   A    
C27   H49   S    
C7    C56   S    
C29   H51   S    
C12   C47   S    
C50   H63   S    
C41   C49   A    
C37   C98   S    
C59   H67   S    
C92   H26   S    
C46   C48   A    
C16   C26   A    
C79   H9    S    
C63   C67   A    
C26   H43   S    
C67   C85   S    
Cr7   O17   S    
C41   C106  S    
C30   C34   S    
Cr4   O35   S    
C27   C31   S    
C51   C52   A    
C31   C102  S    
C74   C96   A    
C62   C79   A    
C28   C32   S    
C57   H68   S    
C55   O25   A    
C86   C90   S    
C3    O39   A    
C6    C11   D    
C62   C66   A    
C19   C23   A    
C63   C104  S    
Cr1   O36   S    
C68   C73   A    
C5    H31   S    
Cr3   O7    S    
Cr12  O5    S    
C77   C95   A    
C97   O31   A    
Cr3   O11   S    
C60   C61   S    
C90   H29   S    
C14   C23   A    
C34   H61   S    
C24   H42   S    
Cr9   O24   S    
C66   C71   A    
C13   C33   S    
C106  O52   A    
C22   H40   S    
C5    C54   S    
C15   C80   A    
C21   C39   A    
Cr12  O31   S    
Cr5   O41   S    
C44   C57   S    
C43   C48   A    
C20   H38   S    
C28   C69   S    
C3    O8    A    
C33   H60   S    
C1    C16   S    
C99   O33   A    
C41   C45   A    
C87   H17   S    
C108  O3    A    
C100  O34   A    
C1    O14   A    
C64   C82   A    
C13   C38   A    
C3    C96   S    
C36   O20   A    
C40   C107  S    
C7    H33   S    
Cr7   O43   S    
C15   C24   A    
C4    H32   S    
Cr11  O26   S    
C63   C81   A    
Cr10  O47   S    
Cr1   O9    S    
Cr11  O21   S    
C31   H58   S    
C42   C46   A    
C111  O37   A    
C14   C69   A    
Cr10  O20   S    
C57   C59   S    
C75   C79   A    
C17   C34   S    
C73   C95   A    
Cr5   O10   S    
C2    C69   A    
C27   H47   S    
C83   H13   S    
C44   C45   A    
C75   C93   A    
Cr1   O40   S    
Cr11  O48   S    
Cr9   O49   S    
Cr3   O3    S    
Cr6   O42   S    
C45   C59   S    
C85   C89   S    
C15   C25   S    
C87   H21   S    
C46   C60   S    
C1    O18   A    
C18   C22   A    
Cr1   O1    S    
Cr3   O29   S    
C60   H3    S    
C77   H7    S    
C84   C88   S    
Cr2   O28   S    
C30   C91   S    
Cr5   O15   S    
C27   C58   S    
C76   C81   A    
Cr9   O10   S    
C5    C8    D    
C54   O28   A    
C71   C93   A    
Cr7   O39   S    
C10   H23   S    
Cr12  O9    S    
Cr8   O45   S    
Cr1   O14   S    
Cr7   O13   S    
Cr8   O18   S    
C47   O17   A    
C72   C94   A    
C57   H66   S    
C110  O36   A    
Cr8   O44   S    
C14   C36   S    
C72   C89   S    
C2    C37   A    
C28   H50   S    
C39   C100  S    
C29   C80   S    
C99   O23   A    
C77   C82   A    
C43   C51   A    
C103  O46   A    
C40   C50   A    
Cr11  O51   S    
C47   O21   A    
Cr5   O37   S    
C88   H27   S    
C105  O48   A    
C101  O40   A    
C52   H65   S    
Cr9   O19   S    
Cr4   O30   S    
C53   O27   A    
C13   C80   A    
C18   H36   S    
C10   C11   S    
C66   C84   S    
C71   C88   S    
Cr4   O4    S    
C9    H12   S    
C75   H5    S    
C8    H1    S    
C40   C44   A    
C11   H34   S    
C16   C91   A    
C49   C50   A    
Cr2   O6    S    
C101  O44   A    
C108  O50   A    
C88   H22   S    
C107  O49   A    
C92   H30   S    
Cr2   O32   S    
C4    C9    D    
C25   O15   A    
Cr8   O22   S    
C30   H52   S    
C107  O2    A    
Cr9   O46   S    
Cr7   O34   S    
C42   C52   A    
