data_mof_unit_67521.cif
_audit_creation_date              2013-03-05T15:41:20-0500
_audit_creation_method            fapswitch 2.2
_symmetry_space_group_name_H-M    P1
_symmetry_Int_Tables_number       1
_space_group_crystal_system       triclinic
_cell_length_a                    10.652275
_cell_length_b                    8.811414
_cell_length_c                    7.513451
_cell_angle_alpha                 104.075606
_cell_angle_beta                  94.397355
_cell_angle_gamma                 93.041456
_cell_volume                      680.159772708

loop_
_atom_site_label
_atom_site_type_symbol
_atom_site_description
_atom_site_fract_x
_atom_site_fract_y
_atom_site_fract_z
_atom_type_partial_charge
O1    O     O_R   0.509190 0.286130 0.619780 -0.548961
O2    O     O_R   0.490810 0.713870 0.380220 -0.514426
O3    O     O_R   0.485310 0.256770 0.308360 -0.614364
O4    O     O_R   0.514690 0.743230 0.691640 -0.580401
C1    C     C_R   0.497461 0.200040 0.452427 0.744893
C2    C     C_R   0.509860 0.800154 0.546512 0.789440
O5    O     O_R   0.328790 0.514640 0.655680 -0.530672
O6    O     O_R   0.671210 0.485360 0.344320 -0.563232
O7    O     O_R   0.304910 0.485280 0.344260 -0.616832
O8    O     O_R   0.695090 0.514720 0.655740 -0.653857
C3    C     C_R   0.259495 0.499410 0.501888 0.741429
C4    C     C_R   0.740391 0.498332 0.497861 0.733353
Cu1   Cu    Cu3+1 0.514140 0.517380 0.684380 1.011005
Cu2   Cu    Cu3+1 0.485860 0.482620 0.315620 1.008690
N1    N     N_2   0.464560 0.456420 0.038510 0.113428
N2    N     N_2   0.535440 0.543580 0.961490 0.119303
C5    C     C_3   0.047307 0.486923 0.667521 -0.136385
C6    C     C_3   0.952555 0.507054 0.332480 -0.129316
C7    C     C_3   0.953727 0.363304 0.533615 -0.194965
C8    C     C_3   0.045661 0.631229 0.466521 -0.185850
H1    H     H_    0.912697 0.252737 0.556596 0.126496
H2    H     H_    0.082194 0.744729 0.445058 0.138204
H3    H     H_    0.088078 0.478915 0.805036 0.161240
H4    H     H_    0.913272 0.511922 0.193427 0.125814
C9    C     C_3   0.877215 0.496086 0.495037 0.043002
C10   C     C_3   0.122552 0.498579 0.504834 0.049104
C11   C     C_3   0.968443 0.619577 0.628963 -0.194015
C12   C     C_3   0.031341 0.374414 0.371167 -0.155932
H5    H     H_    0.940190 0.719570 0.735300 0.136736
H6    H     H_    0.059814 0.273336 0.265917 0.123532
C13   C     C_2   0.494345 0.031132 0.424759 0.128691
C14   C     C_2   0.527625 0.967943 0.568561 0.165799
O9    O     O_3   0.360320 0.390231 0.928844 -0.480716
C15   C     C_3   0.331462 0.241886 0.957472 0.209921
H7    H     H_    0.280933 0.252922 0.082883 0.140854
H8    H     H_    0.417948 0.178137 0.967161 0.194756
C16   C     C_3   0.244306 0.147314 0.793603 -0.899926
H9    H     H_    0.294271 0.124275 0.666807 0.245433
H10   H     H_    0.210932 0.033464 0.818143 0.199771
H11   H     H_    0.161752 0.214077 0.771597 0.255858
O10   O     O_3   0.598600 0.663645 0.087311 -0.433112
C17   C     C_3   0.715156 0.697452 0.028210 0.232314
H12   H     H_    0.701261 0.748831 0.909437 0.168537
H13   H     H_    0.768539 0.590748 0.993067 0.112222
C18   C     C_3   0.790201 0.818207 0.184939 -0.901832
H14   H     H_    0.811051 0.768016 0.304824 0.247550
H15   H     H_    0.879476 0.856032 0.137580 0.208060
H16   H     H_    0.735638 0.922523 0.229982 0.266287
O11   O     O_3   0.472634 0.937610 0.245574 -0.561855
C19   C     C_3   0.347866 0.944040 0.170020 0.082439
H17   H     H_    0.352963 0.944604 0.023596 0.175605
H18   H     H_    0.300440 0.049686 0.238405 0.084417
C20   C     C_3   0.266803 0.797425 0.173758 -0.253811
H19   H     H_    0.308735 0.691800 0.095748 0.279753
H20   H     H_    0.262945 0.790832 0.318627 0.192548
C21   C     C_3   0.133762 0.802015 0.087451 -1.030444
H21   H     H_    0.090931 0.907138 0.165258 0.251447
H22   H     H_    0.075549 0.695085 0.091927 0.268668
H23   H     H_    0.136181 0.807143 0.941676 0.265535
O12   O     O_3   0.575087 0.058668 0.741352 -0.617484
C22   C     C_3   0.701910 0.115438 0.737083 0.108959
H24   H     H_    0.712659 0.240999 0.813817 0.181200
H25   H     H_    0.730419 0.109538 0.595781 0.091306
C23   C     C_3   0.790952 0.025463 0.833533 -0.359861
H26   H     H_    0.762096 0.033403 0.973934 0.245575
H27   H     H_    0.783906 0.901647 0.752580 0.195622
C24   C     C_3   0.927632 0.090340 0.848610 -0.992055
H28   H     H_    0.963067 0.062793 0.710076 0.261644
H29   H     H_    0.986325 0.033717 0.938552 0.263899
H30   H     H_    0.936787 0.219199 0.909304 0.259966

loop_
_geom_bond_atom_site_label_1
_geom_bond_atom_site_label_2
_geom_bond_distance
_ccdc_geom_bond_type
C1    C13   1.450043 S    
C22   C23   1.518945 S    
C19   H18   1.114836 S    
O7    Cu2   1.956570 S    
O8    Cu1   1.956570 S    
C17   C18   1.521123 S    
C20   H19   1.108236 S    
C16   H9    1.107802 S    
C8    C11   1.543588 S    
O3    Cu2   1.977183 S    
C11   H5    1.108070 S    
C15   C16   1.521783 S    
O10   C17   1.391788 S    
C10   C12   1.533861 S    
C13   C14   1.363038 D    
C21   H23   1.109328 S    
C4    C9    1.460377 S    
O6    C4    1.297514 A    
C24   H30   1.111863 S    
C23   H26   1.108282 S    
C12   H6    1.110605 S    
O9    C15   1.397720 S    
Cu1   N2    2.031729 S    
C16   H10   1.108566 S    
C5    H3    1.109519 S    
Cu1   Cu2   2.703806 S    
O5    C3    1.296668 A    
C7    C12   1.545034 S    
O7    C3    1.294102 A    
O2    C2    1.289566 A    
C6    C9    1.531226 S    
C17   H13   1.111801 S    
C13   O11   1.391935 S    
C15   H7    1.107161 S    
O1    C1    1.293830 A    
C5    C10   1.532866 S    
O8    C4    1.293320 A    
C7    H1    1.103724 S    
C8    H2    1.106534 S    
C19   H17   1.106838 S    
C16   H11   1.107544 S    
C15   H8    1.110893 S    
C20   H20   1.107782 S    
C22   H24   1.111637 S    
O2    Cu2   1.973312 S    
C6    H4    1.106867 S    
C20   C21   1.519374 S    
C19   C20   1.522624 S    
O1    Cu1   1.973310 S    
C17   H12   1.098452 S    
C14   O12   1.389891 S    
C7    C9    1.532027 S    
N1    N2    1.310123 D    
C5    C11   1.545161 S    
C23   C24   1.521287 S    
O5    Cu1   1.967855 S    
C6    C12   1.544905 S    
C21   H21   1.109178 S    
C6    C8    1.546217 S    
O4    C2    1.305144 A    
O11   C19   1.414146 S    
C18   H15   1.103634 S    
C24   H29   1.108514 S    
O4    Cu1   1.977184 S    
C22   H25   1.116396 S    
Cu2   N1    2.031729 S    
C5    C7    1.546069 S    
C2    C14   1.447567 S    
O6    Cu2   1.967857 S    
C18   H16   1.110305 S    
C3    C10   1.460274 S    
O3    C1    1.298795 A    
C18   H14   1.108951 S    
N2    O10   1.343897 S    
N1    O9    1.345092 S    
C24   H28   1.109902 S    
C21   H22   1.109053 S    
O12   C22   1.420936 S    
C8    C10   1.532645 S    
C9    C11   1.531724 S    
C23   H27   1.107878 S    
