data_mof_unit_51367.cif
_audit_creation_date              2013-03-05T15:50:33-0500
_audit_creation_method            fapswitch 2.2
_symmetry_space_group_name_H-M    P1
_symmetry_Int_Tables_number       1
_space_group_crystal_system       triclinic
_cell_length_a                    9.610295
_cell_length_b                    10.763357
_cell_length_c                    13.43907
_cell_angle_alpha                 93.246643
_cell_angle_beta                  73.700225
_cell_angle_gamma                 90.006923
_cell_volume                      1331.92835026

loop_
_atom_site_label
_atom_site_type_symbol
_atom_site_description
_atom_site_fract_x
_atom_site_fract_y
_atom_site_fract_z
_atom_type_partial_charge
O1    O     O_R   0.381190 0.680360 0.500010 -0.574601
O2    O     O_R   0.618760 0.680340 0.500000 -0.571350
C1    C     C_R   0.498667 0.737434 0.503343 0.788834
O3    O     O_R   0.323240 0.499990 0.650990 -0.586575
O4    O     O_R   0.560820 0.499960 0.650980 -0.583080
C2    C     C_R   0.423236 0.500832 0.699372 0.795076
Cu1   Cu    Cu3+1 0.359340 0.500010 0.500010 0.950738
Cu2   Cu    Cu3+1 0.640660 0.499990 0.499990 0.949563
O5    O     O_R   0.381240 0.319660 0.500000 -0.609827
O6    O     O_R   0.618810 0.319640 0.499990 -0.604331
O7    O     O_R   0.439180 0.500040 0.349020 -0.565823
O8    O     O_R   0.676760 0.500010 0.349010 -0.570913
C3    C     C_R   0.498893 0.262986 0.502811 0.748254
C4    C     C_R   0.576922 0.496543 0.300292 0.810388
C5    C     C_R   0.747249 0.337822 0.037951 0.508804
H1    H     H_    0.800400 0.352449 0.183090 0.180936
H2    H     H_    0.750819 0.262315 0.843320 0.181305
C6    C     C_R   0.617290 0.470143 0.187612 -0.131380
C7    C     C_R   0.264096 0.593841 0.862095 -0.316616
C8    C     C_R   0.221613 0.614645 0.969361 0.483735
C9    C     C_R   0.293823 0.550551 0.029274 0.258851
C10   C     C_R   0.430540 0.491697 0.979236 -0.059198
C11   C     C_R   0.463226 0.459358 0.871544 0.060562
C12   C     C_R   0.533159 0.459154 0.032462 0.021797
C13   C     C_R   0.649748 0.375379 0.983550 0.051246
C14   C     C_R   0.665847 0.329301 0.881622 -0.190275
C15   C     C_R   0.575112 0.371363 0.826142 -0.163415
C16   C     C_R   0.526486 0.512281 0.131393 -0.238556
C17   C     C_R   0.729387 0.385205 0.140086 -0.212408
C18   C     C_R   0.380245 0.513247 0.812880 -0.168348
H3    H     H_    0.450599 0.586856 0.165903 0.203303
H4    H     H_    0.203492 0.639396 0.817217 0.173613
H5    H     H_    0.592229 0.331594 0.747900 0.161593
H6    H     H_    0.679242 0.877904 0.373334 0.157385
C19   C     C_R   0.294807 0.882792 0.672550 -0.185328
H7    H     H_    0.293381 0.782915 0.677157 0.130499
C20   C     C_R   0.197416 0.953453 0.752165 -0.155453
H8    H     H_    0.122599 0.907748 0.814699 0.143224
C21   C     C_R   0.197672 0.082713 0.752188 -0.123979
H9    H     H_    0.123032 0.137376 0.814687 0.177021
C22   C     C_R   0.295299 0.142041 0.672639 -0.175595
H10   H     H_    0.294173 0.242586 0.677545 0.156699
C23   C     C_R   0.393867 0.072220 0.590402 0.092667
C24   C     C_R   0.393700 0.940872 0.590436 0.098461
C25   C     C_R   0.496149 0.871753 0.510012 -0.097509
C26   C     C_R   0.599834 0.931223 0.434106 -0.191948
H11   H     H_    0.678757 0.103844 0.372781 0.125339
C27   C     C_R   0.599703 0.059350 0.433870 -0.216118
C28   C     C_R   0.496220 0.129724 0.509740 -0.081832
H12   H     H_    0.829241 0.654316 0.606758 0.139541
C29   C     C_R   0.905388 0.320021 0.374297 -0.093093
H13   H     H_    0.803590 0.322671 0.357886 0.169948
C30   C     C_R   0.995786 0.221055 0.324836 -0.133965
H14   H     H_    0.957652 0.150190 0.278799 0.128155
C31   C     C_R   0.137702 0.217511 0.328783 -0.158297
H15   H     H_    0.210623 0.144411 0.284964 0.145835
C32   C     C_R   0.190884 0.316099 0.377850 -0.093958
H16   H     H_    0.305934 0.318259 0.360100 0.179768
C33   C     C_R   0.098043 0.409774 0.439955 0.253904
C34   C     C_R   0.949096 0.410750 0.439059 0.228918
N1    N     N_R   0.852480 0.498790 0.499000 -0.203989
C35   C     C_R   0.903174 0.584850 0.558589 -0.040549
H17   H     H_    0.087455 0.654754 0.606220 0.131400
C36   C     C_R   0.051135 0.585071 0.558312 -0.036393
N2    N     N_R   0.148360 0.498710 0.498970 -0.196795
O9    O     O_3   0.863323 0.258956 0.989564 -0.565094
C37   C     C_3   0.837225 0.140849 0.031029 -0.347725
H18   H     H_    0.731163 0.103562 0.025694 0.151311
H19   H     H_    0.842565 0.143551 0.112750 0.157895
H20   H     H_    0.923262 0.075128 0.984888 0.190731
S1    S     S_3+6 0.182630 0.491360 0.145028 0.010326
O10   O     O_2   0.202063 0.559715 0.240664 -0.336269
O11   O     O_2   0.025508 0.501295 0.148339 -0.211050
O12   O     O_3   0.225784 0.339823 0.142579 -0.527728
H21   H     H_    0.316866 0.337127 0.162952 0.337298
O13   O     O_3   0.096333 0.683884 0.014482 -0.529744
C38   C     C_3   0.133674 0.795618 0.059936 -0.293758
H22   H     H_    0.211102 0.849957 0.001193 0.134735
H23   H     H_    0.179211 0.777803 0.125420 0.187988
H24   H     H_    0.033966 0.853598 0.091908 0.185222

loop_
_geom_bond_atom_site_label_1
_geom_bond_atom_site_label_2
_geom_bond_distance
_ccdc_geom_bond_type
C31   H15   1.083023 S    
C22   H10   1.080338 S    
C4    C6    1.464895 S    
C7    C8    1.388517 A    
Cu1   Cu2   2.703492 S    
C21   C22   1.394661 A    
C38   H22   1.114204 S    
C15   H5    1.080688 S    
Cu1   O7    1.957641 S    
C14   C15   1.387270 A    
C9    S1    1.773908 S    
H2    C14   1.083420 S    
C19   C20   1.394673 A    
O1    C1    1.295802 A    
O4    C2    1.299203 A    
O7    C4    1.301221 A    
C32   C33   1.412860 A    
C8    O13   1.382707 S    
O5    C3    1.295649 A    
C35   C36   1.420911 A    
S1    O12   1.679223 S    
C19   H7    1.080151 S    
H6    C26   1.084397 S    
C11   C15   1.411389 A    
Cu2   N1    2.031996 S    
C38   H23   1.112691 S    
O9    C37   1.411075 S    
C33   C34   1.434894 A    
C9    C10   1.426815 A    
C22   C23   1.414907 A    
O3    Cu1   1.960165 S    
C7    H4    1.083568 S    
C5    C17   1.400735 A    
C30   C31   1.380294 A    
C26   C27   1.379263 A    
O12   H21   0.988648 S    
C37   H18   1.114820 S    
C11   C18   1.413783 A    
C6    C16   1.395375 A    
C12   C13   1.421361 A    
O3    C2    1.302475 A    
C21   H9    1.082640 S    
S1    O11   1.501755 D    
C23   C28   1.415290 A    
H1    C17   1.081014 S    
C25   C26   1.395156 A    
C5    O9    1.385027 S    
C1    C25   1.443214 S    
C29   H13   1.062240 S    
C34   N1    1.379454 A    
C37   H19   1.112512 S    
C23   C24   1.413775 A    
C20   H8    1.082974 S    
Cu1   N2    2.031589 S    
H11   C27   1.083922 S    
Cu2   O8    1.960164 S    
C6    C17   1.397197 A    
O13   C38   1.409961 S    
C19   C24   1.414602 A    
C3    C28   1.442388 S    
C27   C28   1.394962 A    
C2    C18   1.462422 S    
O8    C4    1.304030 A    
C31   C32   1.389906 A    
H12   C35   1.081694 S    
C10   C12   1.425265 A    
C24   C25   1.415192 A    
C38   H24   1.109473 S    
Cu1   O5    1.952561 S    
O1    Cu1   1.952472 S    
C16   H3    1.076741 S    
O2    Cu2   1.952562 S    
C12   C16   1.401708 A    
O6    C3    1.295884 A    
O4    Cu2   1.957641 S    
C30   H14   1.082870 S    
C37   H20   1.109600 S    
C36   N2    1.367864 A    
O2    C1    1.295995 A    
C13   C14   1.396576 A    
S1    O10   1.501889 D    
C20   C21   1.391259 A    
C33   N2    1.381424 A    
C32   H16   1.064193 S    
N1    C35   1.368048 A    
C5    C13   1.412097 A    
H17   C36   1.081797 S    
C8    C9    1.408013 A    
Cu2   O6    1.952471 S    
C10   C11   1.414996 A    
C29   C34   1.412959 A    
C29   C30   1.388208 A    
C7    C18   1.398837 A    
