data_mof_unit_40912.cif
_audit_creation_date              2012-12-11T14:28:18-0500
_audit_creation_method            fapswitch 2.2
_symmetry_space_group_name_H-M    P1
_symmetry_Int_Tables_number       1
_space_group_crystal_system       triclinic
_cell_length_a                    11.018548
_cell_length_b                    18.954389
_cell_length_c                    18.486524
_cell_angle_alpha                 89.818906
_cell_angle_beta                  89.565826
_cell_angle_gamma                 90.222628
_cell_volume                      3860.74802953

loop_
_atom_site_label
_atom_site_type_symbol
_atom_type_description
_atom_site_fract_x
_atom_site_fract_y
_atom_site_fract_z
_atom_type_partial_charge
C1    C     C_R   0.319396 0.970105 0.646448 0.519906
C2    C     C_R   0.319239 0.969871 0.853720 0.524340
C3    C     C_R   0.320753 0.029255 0.352604 0.528870
C4    C     C_R   0.321179 0.029166 0.147441 0.519088
C5    C     C_R   0.820091 0.471015 0.647360 0.525372
C6    C     C_R   0.819239 0.469873 0.853718 0.522393
C7    C     C_R   0.820550 0.530009 0.353459 0.519524
C8    C     C_R   0.821179 0.529167 0.147439 0.520886
C9    C     C_3   0.196803 0.776126 0.453107 -0.122259
C10   C     C_3   0.198984 0.784224 0.045894 -0.121017
C11   C     C_3   0.159722 0.305073 0.525102 -0.098427
C12   C     C_3   0.209774 0.262145 0.953127 -0.116661
C13   C     C_3   0.704239 0.258898 0.451800 -0.144087
C14   C     C_3   0.698950 0.284277 0.045887 -0.121709
C15   C     C_3   0.680118 0.777890 0.542392 -0.099519
C16   C     C_3   0.709757 0.762201 0.953142 -0.116366
C17   C     C_3   0.073477 0.747567 0.429615 0.015085
C18   C     C_3   0.081284 0.748387 0.071522 0.018291
C19   C     C_3   0.078847 0.255849 0.571157 0.027837
C20   C     C_3   0.078594 0.252601 0.928643 0.015332
C21   C     C_3   0.573370 0.246359 0.429203 0.013607
C22   C     C_3   0.581307 0.248391 0.071529 0.018686
C23   C     C_3   0.546796 0.766566 0.564655 0.022474
C24   C     C_3   0.578590 0.752607 0.928644 0.013082
C25   C     C_R   0.330429 0.993285 0.422974 -0.044142
C26   C     C_R   0.331322 0.992025 0.077633 -0.041817
C27   C     C_R   0.322474 0.004131 0.574343 -0.031930
C28   C     C_R   0.323051 0.003389 0.926031 -0.018756
C29   C     C_R   0.829469 0.497125 0.425637 -0.047793
C30   C     C_R   0.831323 0.492029 0.077629 -0.043522
C31   C     C_R   0.825841 0.508335 0.577134 -0.016940
C32   C     C_R   0.823048 0.503392 0.926028 -0.018043
C33   C     C_R   0.555367 0.995576 0.428557 -0.084580
C34   C     C_R   0.555393 0.990304 0.069866 -0.092127
C35   C     C_R   0.541611 0.025847 0.575735 -0.067342
C36   C     C_R   0.542670 0.023566 0.923024 -0.036312
C37   C     C_R   0.054956 0.496730 0.429619 -0.099251
C38   C     C_R   0.055396 0.490316 0.069858 -0.092673
C39   C     C_R   0.044958 0.526578 0.577125 -0.050595
C40   C     C_R   0.042662 0.523581 0.923016 -0.036305
C41   C     C_R   0.660389 0.011204 0.467039 -0.136106
C42   C     C_R   0.661228 0.002885 0.029873 -0.155551
C43   C     C_R   0.652952 0.027365 0.540273 -0.132843
C44   C     C_R   0.654218 0.021705 0.957073 -0.130919
C45   C     C_R   0.160952 0.511381 0.467434 -0.140693
C46   C     C_R   0.161228 0.502904 0.029864 -0.155210
C47   C     C_R   0.155229 0.528113 0.540664 -0.137413
C48   C     C_R   0.154213 0.521724 0.957064 -0.130803
C49   C     C_R   0.434690 0.009006 0.538064 -0.001002
C50   C     C_R   0.435375 0.007499 0.961518 0.019031
C51   C     C_R   0.440103 0.998638 0.462478 -0.009660
C52   C     C_R   0.440664 0.996471 0.037119 -0.005223
C53   C     C_R   0.937163 0.511174 0.540042 0.016178
C54   C     C_R   0.935371 0.507508 0.961513 0.019363
C55   C     C_R   0.940417 0.501109 0.464272 -0.015875
C56   C     C_R   0.940664 0.496479 0.037114 -0.005446
C57   C     C_R   0.213293 0.002888 0.533319 -0.000095
C58   C     C_R   0.214605 0.002067 0.968166 -0.003082
C59   C     C_R   0.219917 0.984359 0.460194 0.005729
C60   C     C_R   0.221244 0.982802 0.041208 -0.001530
C61   C     C_R   0.717040 0.511502 0.537319 0.007017
C62   C     C_R   0.714602 0.502064 0.968163 -0.002727
C63   C     C_R   0.719376 0.492236 0.464452 -0.000572
C64   C     C_R   0.721243 0.482801 0.041204 -0.001485
C65   C     C_R   0.096263 0.011925 0.564472 -0.085172
C66   C     C_R   0.098257 0.012672 0.938400 -0.090901
C67   C     C_R   0.113668 0.960851 0.424541 -0.055330
C68   C     C_R   0.115144 0.959377 0.077900 -0.071788
C69   C     C_R   0.603833 0.525062 0.570372 -0.075101
C70   C     C_R   0.598254 0.512670 0.938397 -0.090940
C71   C     C_R   0.610038 0.470210 0.431665 -0.073081
C72   C     C_R   0.615143 0.459382 0.077898 -0.071898
C73   C     C_R   0.992551 0.989734 0.528479 -0.135729
C74   C     C_R   0.993943 0.992572 0.976317 -0.148001
C75   C     C_R   0.001068 0.963912 0.458537 -0.098410
C76   C     C_R   0.002391 0.964412 0.045511 -0.129002
C77   C     C_R   0.496877 0.505361 0.536769 -0.136198
C78   C     C_R   0.493937 0.492587 0.976321 -0.148184
C79   C     C_R   0.499916 0.477218 0.467672 -0.133412
C80   C     C_R   0.502385 0.464428 0.045516 -0.128972
C81   C     C_R   0.180785 0.770518 0.636073 0.542925
C82   C     C_R   0.183516 0.771244 0.863267 0.554899
C83   C     C_R   0.132392 0.242394 0.355961 0.566636
C84   C     C_R   0.185482 0.228232 0.136290 0.578593
C85   C     C_R   0.680994 0.270799 0.635951 0.569860
C86   C     C_R   0.683506 0.271243 0.863268 0.554322
C87   C     C_R   0.680232 0.729244 0.364344 0.575249
C88   C     C_R   0.685478 0.728233 0.136289 0.583631
C89   C     C_R   0.503780 0.785348 0.636209 0.546674
C90   C     C_R   0.541074 0.769715 0.855858 0.555919
C91   C     C_R   0.539220 0.229653 0.356251 0.550956
C92   C     C_R   0.543756 0.231249 0.144993 0.548060
C93   C     C_R   0.046055 0.268591 0.645946 0.553970
C94   C     C_R   0.041067 0.269717 0.855862 0.548384
C95   C     C_R   0.040584 0.730419 0.355936 0.552834
C96   C     C_R   0.043744 0.731245 0.144988 0.551939
C97   C     C_3   0.004548 0.793037 0.485331 -0.112962
C98   C     C_3   0.004507 0.786921 0.014500 -0.109252
C99   C     C_3   0.125171 0.189868 0.532467 -0.107823
C100  C     C_3   0.064878 0.183106 0.970691 -0.139154
C101  C     C_3   0.525513 0.305176 0.478740 -0.122983
C102  C     C_3   0.504478 0.286875 0.014503 -0.108739
C103  C     C_3   0.545119 0.692967 0.529964 -0.127860
C104  C     C_3   0.564948 0.683093 0.970669 -0.139702
C105  C     C_3   0.129986 0.821571 0.510041 -0.191120
C106  C     C_3   0.123518 0.823059 0.987836 -0.184164
C107  C     C_3   0.205716 0.238914 0.485031 -0.103669
C108  C     C_3   0.197932 0.192164 0.996695 -0.139130
C109  C     C_3   0.658608 0.317992 0.502860 -0.182885
C110  C     C_3   0.623429 0.323061 0.987824 -0.183923
C111  C     C_3   0.679262 0.704315 0.506177 -0.148659
C112  C     C_3   0.697991 0.692200 0.996686 -0.139448
C113  C     C_3   0.139135 0.760591 0.563350 0.042936
C114  C     C_3   0.144854 0.761646 0.936778 0.032947
C115  C     C_3   0.100431 0.247223 0.431322 0.080566
C116  C     C_3   0.151079 0.235438 0.061072 0.062590
C117  C     C_3   0.640983 0.262404 0.562242 0.055155
C118  C     C_3   0.644839 0.261648 0.936778 0.032879
C119  C     C_3   0.634529 0.739771 0.436905 0.063281
C120  C     C_3   0.651065 0.735439 0.061073 0.060134
C121  C     C_3   0.017163 0.732478 0.539562 0.241176
C122  C     C_3   0.029585 0.725815 0.962672 0.242149
C123  C     C_3   0.022239 0.199132 0.477842 0.237197
C124  C     C_3   0.021656 0.226651 0.035663 0.237352
C125  C     C_3   0.511653 0.249653 0.538719 0.238654
C126  C     C_3   0.529626 0.225771 0.962689 0.242135
C127  C     C_3   0.503672 0.728604 0.459918 0.239060
C128  C     C_3   0.521652 0.726603 0.035652 0.237967
C129  C     C_3   0.080576 0.686157 0.483945 -0.055102
C130  C     C_3   0.101892 0.686210 0.019376 -0.052958
C131  C     C_3   0.974060 0.264250 0.517346 -0.119429
C132  C     C_3   0.030609 0.295870 0.993184 -0.071054
C133  C     C_3   0.554112 0.190547 0.488890 -0.058022
C134  C     C_3   0.601995 0.186216 0.019396 -0.052741
C135  C     C_3   0.501279 0.801797 0.495219 -0.101563
C136  C     C_3   0.530530 0.795842 0.993194 -0.071414
C137  C     C_3   0.205196 0.714586 0.508003 -0.103869
C138  C     C_3   0.219623 0.722239 0.992871 -0.109873
C139  C     C_3   0.055341 0.312838 0.470563 -0.164288
C140  C     C_3   0.162715 0.304951 0.018391 -0.140021
C141  C     C_3   0.686146 0.203398 0.512376 -0.113925
C142  C     C_3   0.719665 0.222293 0.992876 -0.109706
C143  C     C_3   0.635138 0.813090 0.472537 -0.136974
C144  C     C_3   0.662626 0.804971 0.018414 -0.139894
Cr1   Cr    Cr6+3 0.488160 0.884660 0.750000 0.997925
Cr2   Cr    Cr6+3 0.488160 0.115340 0.250000 1.008532
Cr3   Cr    Cr6+3 0.988160 0.384660 0.750000 1.001135
Cr4   Cr    Cr6+3 0.988160 0.615340 0.250000 1.001905
Cr5   Cr    Cr6+3 0.173480 0.883120 0.750000 0.994585
Cr6   Cr    Cr6+3 0.173480 0.116880 0.250000 1.052730
Cr7   Cr    Cr6+3 0.673480 0.383120 0.750000 1.005207
Cr8   Cr    Cr6+3 0.673480 0.616880 0.250000 1.033026
Cr9   Cr    Cr6+3 0.333410 0.727260 0.750000 0.995003
Cr10  Cr    Cr6+3 0.333410 0.272740 0.250000 0.992775
Cr11  Cr    Cr6+3 0.833410 0.227260 0.750000 0.995160
Cr12  Cr    Cr6+3 0.833410 0.772740 0.250000 0.994274
H1    H     H_    0.155744 0.872957 0.531710 0.151487
H2    H     H_    0.136186 0.875242 0.963735 0.163984
H3    H     H_    0.299337 0.227323 0.466664 0.149592
H4    H     H_    0.266950 0.149969 0.001173 0.167208
H5    H     H_    0.708304 0.366956 0.514970 0.131315
H6    H     H_    0.636009 0.375244 0.963714 0.163840
H7    H     H_    0.751856 0.663975 0.507434 0.166626
H8    H     H_    0.767050 0.650024 0.001158 0.167322
H9    H     H_    0.906160 0.991207 0.555732 0.096675
H10   H     H_    0.907659 0.995783 0.950351 0.104897
H11   H     H_    0.921237 0.945149 0.430831 0.099126
H12   H     H_    0.922811 0.945161 0.073874 0.102885
H13   H     H_    0.413161 0.509301 0.566141 0.098592
H14   H     H_    0.407651 0.495808 0.950360 0.104903
H15   H     H_    0.418022 0.459187 0.442102 0.097029
H16   H     H_    0.422804 0.445187 0.073884 0.102691
H17   H     H_    0.920754 0.823378 0.474650 0.114249
H18   H     H_    0.917905 0.814356 0.025496 0.115727
H19   H     H_    0.159401 0.143218 0.561407 0.124671
H20   H     H_    0.014092 0.137740 0.949025 0.110430
H21   H     H_    0.452489 0.341710 0.462919 0.119112
H22   H     H_    0.417858 0.314281 0.025506 0.115981
H23   H     H_    0.499070 0.647434 0.555609 0.115671
H24   H     H_    0.514198 0.637727 0.948973 0.110505
H25   H     H_    0.049592 0.633064 0.469391 0.158075
H26   H     H_    0.086022 0.631224 0.035738 0.161699
H27   H     H_    0.883822 0.278179 0.538028 0.105985
H28   H     H_    0.959906 0.337376 0.990409 0.114996
H29   H     H_    0.505537 0.140217 0.480271 0.143937
H30   H     H_    0.586250 0.131227 0.035770 0.161747
H31   H     H_    0.427818 0.841584 0.492865 0.099564
H32   H     H_    0.459773 0.837319 0.990426 0.114937
H33   H     H_    0.283167 0.680644 0.522043 0.141392
H34   H     H_    0.302330 0.693227 0.976701 0.148675
H35   H     H_    0.022858 0.360456 0.442336 0.122621
H36   H     H_    0.204198 0.354454 0.038586 0.129695
H37   H     H_    0.750937 0.162747 0.530002 0.134250
H38   H     H_    0.802395 0.193313 0.976701 0.149217
H39   H     H_    0.675081 0.861857 0.448970 0.134130
H40   H     H_    0.704067 0.854480 0.038627 0.129718
H41   H     H_    0.265146 0.797540 0.414500 0.175042
H42   H     H_    0.266034 0.810004 0.081787 0.167060
H43   H     H_    0.218043 0.348346 0.545737 0.137530
H44   H     H_    0.282518 0.280758 0.916054 0.155380
H45   H     H_    0.781524 0.262944 0.413114 0.154612
H46   H     H_    0.765974 0.310092 0.081768 0.164859
H47   H     H_    0.751388 0.800643 0.577396 0.156106
H48   H     H_    0.782492 0.780868 0.916084 0.155172
H49   H     H_    0.747097 0.012301 0.439502 0.125877
H50   H     H_    0.747710 0.002062 0.056573 0.108786
H51   H     H_    0.732460 0.042827 0.569971 0.097635
H52   H     H_    0.733620 0.037477 0.926732 0.105060
H53   H     H_    0.245933 0.514136 0.438531 0.113186
H54   H     H_    0.247712 0.502086 0.056563 0.108623
H55   H     H_    0.234034 0.545899 0.569212 0.103881
H56   H     H_    0.233612 0.537500 0.926721 0.105004
H57   H     H_    0.565338 0.980791 0.372365 0.138185
H58   H     H_    0.563960 0.975839 0.126262 0.140870
H59   H     H_    0.539004 0.040995 0.632141 0.144596
H60   H     H_    0.540377 0.040147 0.866946 0.149239
H61   H     H_    0.063797 0.482070 0.373351 0.136630
H62   H     H_    0.063968 0.475850 0.126254 0.138943
H63   H     H_    0.043453 0.541635 0.633592 0.146380
H64   H     H_    0.040363 0.540161 0.866939 0.148838
H65   H     H_    0.118258 0.938791 0.370582 0.124423
H66   H     H_    0.119934 0.936709 0.131700 0.129316
H67   H     H_    0.084250 0.034664 0.617683 0.134168
H68   H     H_    0.087074 0.035574 0.885160 0.140803
H69   H     H_    0.609969 0.446053 0.378623 0.132859
H70   H     H_    0.619932 0.436713 0.131697 0.128821
H71   H     H_    0.597976 0.547860 0.623960 0.138699
H72   H     H_    0.587071 0.535569 0.885155 0.141369
O1    O     O_R   0.575450 0.828820 0.667950 -0.510200
O2    O     O_R   0.575450 0.828820 0.832050 -0.510661
O3    O     O_R   0.575450 0.171180 0.332050 -0.500403
O4    O     O_R   0.575450 0.171180 0.167950 -0.508484
O5    O     O_R   0.075450 0.328820 0.667950 -0.511443
O6    O     O_R   0.075450 0.328820 0.832050 -0.514028
O7    O     O_R   0.075450 0.671180 0.332050 -0.500080
O8    O     O_R   0.075450 0.671180 0.167950 -0.505345
O9    O     O_R   0.416860 0.942890 0.674680 -0.514950
O10   O     O_R   0.416860 0.942890 0.825320 -0.507018
O11   O     O_R   0.416860 0.057110 0.325320 -0.511551
O12   O     O_R   0.416860 0.057110 0.174680 -0.512519
O13   O     O_R   0.916860 0.442890 0.674680 -0.504994
O14   O     O_R   0.916860 0.442890 0.825320 -0.508182
O15   O     O_R   0.916860 0.557110 0.325320 -0.512289
O16   O     O_R   0.916860 0.557110 0.174680 -0.510539
O17   O     O_R   0.213790 0.953680 0.668330 -0.532702
O18   O     O_R   0.213790 0.953680 0.831670 -0.532754
O19   O     O_R   0.213790 0.046320 0.331670 -0.503517
O20   O     O_R   0.213790 0.046320 0.168330 -0.529521
O21   O     O_R   0.713790 0.453680 0.668330 -0.529598
O22   O     O_R   0.713790 0.453680 0.831670 -0.534817
O23   O     O_R   0.713790 0.546320 0.331670 -0.529408
O24   O     O_R   0.713790 0.546320 0.168330 -0.527830
O25   O     O_R   0.121360 0.817890 0.672660 -0.501907
O26   O     O_R   0.121360 0.817890 0.827340 -0.504751
O27   O     O_R   0.121360 0.182110 0.327340 -0.449548
O28   O     O_R   0.121360 0.182110 0.172660 -0.470247
O29   O     O_R   0.621360 0.317890 0.672660 -0.486515
O30   O     O_R   0.621360 0.317890 0.827340 -0.504660
O31   O     O_R   0.621360 0.682110 0.327340 -0.457616
O32   O     O_R   0.621360 0.682110 0.172660 -0.458423
O33   O     O_R   0.206850 0.711370 0.665820 -0.516488
O34   O     O_R   0.206850 0.711370 0.834180 -0.514831
O35   O     O_R   0.206850 0.288630 0.334180 -0.542677
O36   O     O_R   0.206850 0.288630 0.165820 -0.531186
O37   O     O_R   0.706850 0.211370 0.665820 -0.516436
O38   O     O_R   0.706850 0.211370 0.834180 -0.514145
O39   O     O_R   0.706850 0.788630 0.334180 -0.526776
O40   O     O_R   0.706850 0.788630 0.165820 -0.522667
O41   O     O_R   0.457710 0.733190 0.672630 -0.521742
O42   O     O_R   0.457710 0.733190 0.827370 -0.525206
O43   O     O_R   0.457710 0.266810 0.327370 -0.519981
O44   O     O_R   0.457710 0.266810 0.172630 -0.533091
O45   O     O_R   0.957710 0.233190 0.672630 -0.532200
O46   O     O_R   0.957710 0.233190 0.827370 -0.530438
O47   O     O_R   0.957710 0.766810 0.327370 -0.532909
O48   O     O_R   0.957710 0.766810 0.172630 -0.533640
O49   O     O_3   0.331690 0.831680 0.750000 -0.301256
O50   O     O_3   0.331690 0.168320 0.250000 -0.285484
O51   O     O_3   0.831690 0.331680 0.750000 -0.290184
O52   O     O_3   0.831690 0.668320 0.250000 -0.300498
O53   O     O_3   0.928375 0.706959 0.587392 -0.721593
H73   H     H_    0.921177 0.742809 0.626048 0.338221
O54   O     O_3   0.947638 0.691184 0.917419 -0.729048
H74   H     H_    0.947104 0.718066 0.871384 0.339628
O55   O     O_3   0.950703 0.145621 0.448530 -0.684941
H75   H     H_    0.924316 0.116770 0.490380 0.312095
O56   O     O_3   0.928212 0.208155 0.083783 -0.702540
H76   H     H_    0.930000 0.155955 0.087401 0.332699
O57   O     O_3   0.414798 0.243413 0.587650 -0.705273
H77   H     H_    0.401912 0.291473 0.607143 0.332569
O58   O     O_3   0.447697 0.191098 0.917464 -0.728979
H78   H     H_    0.447196 0.217924 0.871399 0.341148
O59   O     O_3   0.417595 0.701042 0.412394 -0.697077
H79   H     H_    0.428593 0.649148 0.413442 0.330787
O60   O     O_3   0.428224 0.708053 0.083769 -0.697566
H80   H     H_    0.429851 0.655843 0.087221 0.332557

loop_
_geom_bond_atom_site_label_1
_geom_bond_atom_site_label_2
_ccdc_geom_bond_type
C6    C32   S    
Cr1   O2    S    
C7    C29   S    
C119  C143  S    
C38   H62   S    
O58   H78   S    
C120  C144  S    
C74   H10   S    
C110  C118  S    
C24   C104  S    
C16   C144  S    
C70   H72   S    
C57   C59   A    
C8    O16   A    
C58   C60   A    
C10   H42   S    
C62   C70   A    
C61   C63   A    
C62   C64   A    
Cr10  O35   S    
C23   C103  S    
C48   H56   S    
C49   C51   A    
C34   C42   A    
C84   O28   A    
Cr4   O15   S    
C50   C52   A    
C23   C89   S    
C122  O54   S    
C97   C105  S    
C40   H64   S    
C41   C43   A    
C90   O42   A    
C42   C44   A    
C20   C132  S    
Cr10  O44   S    
C21   C133  S    
C45   C47   A    
C112  H8    S    
C46   C48   A    
C115  C123  S    
C6    O22   A    
C27   C57   A    
C87   O31   A    
C112  C120  S    
C33   H57   S    
C94   O6    A    
C29   C55   A    
C46   H54   S    
C30   C56   A    
C100  C124  S    
C68   H66   S    
C85   O37   A    
C104  C128  S    
C12   C20   S    
C142  H38   S    
C13   C21   S    
C85   C117  S    
Cr11  O37   S    
C115  C139  S    
C113  C137  S    
C36   C44   A    
C33   C51   A    
C80   H16   S    
C37   C45   A    
C130  C138  S    
C36   C50   A    
C39   C47   A    
C40   C48   A    
C20   C94   S    
C133  C141  S    
Cr1   O49   S    
C24   C90   S    
C15   H47   S    
C28   C58   A    
C98   C106  S    
Cr5   O26   S    
C33   C41   A    
C111  H7    S    
C1    O17   A    
C10   C18   S    
C76   H12   S    
Cr12  O48   S    
C2    C28   S    
C32   C62   A    
C124  O56   S    
C129  C137  S    
C126  C134  S    
C7    O23   A    
C92   O4    A    
C84   O36   A    
C10   C138  S    
C81   O25   A    
C16   H48   S    
C125  O57   S    
C14   C142  S    
C81   O33   A    
Cr5   O18   S    
C47   H55   S    
C134  H30   S    
C83   O35   A    
C71   C79   A    
C110  H6    S    
Cr6   O20   S    
C74   C76   A    
C39   H63   S    
C78   C80   A    
Cr3   O13   S    
Cr5   O25   S    
C66   C74   A    
C78   H14   S    
C124  C132  S    
C111  C119  S    
C67   H65   S    
Cr11  O51   S    
C59   C67   A    
C35   C49   A    
C101  C125  S    
Cr5   O49   S    
C35   C43   A    
C121  C129  S    
C133  H29   S    
C127  O59   S    
C24   C136  S    
C135  C143  S    
C84   C116  S    
C136  H32   S    
C121  O53   S    
Cr11  O46   S    
C135  H31   S    
C9    H41   S    
Cr7   O22   S    
Cr2   O3    S    
C100  C108  S    
C83   C115  S    
C103  C127  S    
C73   H9    S    
C104  C112  S    
C1    O9    A    
C45   H53   S    
C91   O3    A    
C87   C119  S    
O59   H79   S    
C93   O45   A    
Cr12  O40   S    
Cr1   O10   S    
O57   H77   S    
C12   H44   S    
C141  H37   S    
C15   C143  S    
C40   C54   A    
C96   O48   A    
C10   C106  S    
C67   C75   A    
Cr8   O24   S    
Cr7   O29   S    
C14   C110  S    
Cr1   O1    S    
C8    O24   A    
C102  C126  S    
C144  H40   S    
C103  C111  S    
C68   C76   A    
Cr4   O7    S    
C85   O29   A    
C14   C22   S    
C72   C80   A    
C36   H60   S    
Cr8   O31   S    
Cr6   O27   S    
C102  H22   S    
C14   H46   S    
C114  C138  S    
C38   C46   A    
C99   H19   S    
Cr10  O36   S    
C37   C55   A    
Cr3   O6    S    
C113  C121  S    
O54   H74   S    
Cr4   O16   S    
C22   C92   S    
C90   O2    A    
C25   C59   A    
Cr2   O50   S    
C17   C97   S    
C27   C49   A    
C87   O39   A    
C119  C127  S    
C29   C63   A    
C30   C64   A    
C73   C75   A    
C31   C61   A    
Cr9   O42   S    
C37   H61   S    
C109  C117  S    
C11   C19   S    
C127  C135  S    
Cr12  O52   S    
C139  H35   S    
C128  C136  S    
C92   O44   A    
C101  C109  S    
C95   O47   A    
Cr9   O49   S    
C79   H15   S    
C11   C139  S    
C86   O30   A    
C69   C77   A    
C105  H1    S    
C82   O34   A    
C12   C140  S    
C17   C95   S    
C13   C141  S    
C88   C120  S    
C19   C93   S    
C77   C79   A    
Cr5   O17   S    
C72   H70   S    
C3    O19   A    
C32   C54   A    
C43   H51   S    
C5    O21   A    
C3    C25   S    
C97   H17   S    
C35   H59   S    
C34   H58   S    
O60   H80   S    
C93   O5    A    
Cr4   O52   S    
C83   O27   A    
C117  C141  S    
O55   H75   S    
C134  C142  S    
C107  H3    S    
O56   H76   S    
C20   C100  S    
C143  H39   S    
C4    O12   A    
C86   C118  S    
C22   C134  S    
C102  C110  S    
Cr10  O43   S    
C65   H67   S    
C16   C112  S    
C12   C108  S    
C21   C91   S    
C105  C113  S    
C19   C99   S    
C116  C124  S    
C123  C131  S    
C88   O40   A    
C57   C65   A    
C94   O46   A    
C4    C26   S    
C120  C128  S    
C100  H20   S    
C132  C140  S    
C99   C107  S    
Cr2   O12   S    
C34   C52   A    
C23   C135  S    
C8    C30   S    
C108  C116  S    
C2    O18   A    
C136  C144  S    
C132  H28   S    
C39   C53   A    
C42   H50   S    
C103  H23   S    
C11   H43   S    
Cr11  O38   S    
C101  H21   S    
C88   O32   A    
Cr2   O11   S    
C60   C68   A    
C81   C113  S    
C82   O26   A    
C9    C105  S    
C71   H69   S    
C3    O11   A    
C128  O60   S    
C70   C78   A    
C18   C96   S    
Cr11  O45   S    
Cr7   O21   S    
Cr2   O4    S    
C106  C114  S    
C89   O41   A    
C91   O43   A    
C98   H18   S    
C44   H52   S    
C65   C73   A    
C131  H27   S    
Cr7   O51   S    
C4    O20   A    
Cr12  O47   S    
C5    C31   S    
C123  O55   S    
C28   C50   A    
C58   C66   A    
Cr1   O9    S    
C97   C121  S    
Cr8   O52   S    
C21   C101  S    
C15   C23   S    
C13   C109  S    
C16   C24   S    
C138  H34   S    
C95   O7    A    
C69   H71   S    
C53   C55   A    
C19   C131  S    
Cr6   O19   S    
C54   C56   A    
C17   C129  S    
C15   C111  S    
Cr10  O50   S    
C131  C139  S    
C82   C114  S    
C66   H68   S    
C130  H26   S    
C2    O10   A    
Cr3   O14   S    
O53   H73   S    
C106  H2    S    
Cr4   O8    S    
Cr6   O50   S    
C26   C52   A    
Cr8   O32   S    
Cr6   O28   S    
C125  C133  S    
C96   O8    A    
C38   C56   A    
C31   C53   A    
Cr9   O34   S    
C107  C115  S    
C137  H33   S    
Cr3   O5    S    
C9    C17   S    
C11   C107  S    
C140  H36   S    
Cr9   O33   S    
C99   C123  S    
C61   C69   A    
C129  H25   S    
Cr9   O41   S    
C63   C71   A    
C118  C142  S    
Cr3   O51   S    
C108  H4    S    
C118  C126  S    
C25   C51   A    
C22   C102  S    
C5    O13   A    
C9    C137  S    
C109  H5    S    
C104  H24   S    
Cr12  O39   S    
C26   C60   A    
C13   H45   S    
C64   C72   A    
C41   H49   S    
C18   C130  S    
C126  O58   S    
C114  C122  S    
C98   C122  S    
C77   H13   S    
C7    O15   A    
C1    C27   S    
C86   O38   A    
C6    O14   A    
C75   H11   S    
C18   C98   S    
C89   O1    A    
C117  C125  S    
C122  C130  S    
Cr8   O23   S    
Cr7   O30   S    
C116  C140  S    
