data_mof_unit_28166.cif
_audit_creation_date              2013-03-05T15:50:21-0500
_audit_creation_method            fapswitch 2.2
_symmetry_space_group_name_H-M    P1
_symmetry_Int_Tables_number       1
_space_group_crystal_system       triclinic
_cell_length_a                    21.858684
_cell_length_b                    7.235656
_cell_length_c                    19.55802
_cell_angle_alpha                 89.999737
_cell_angle_beta                  87.528081
_cell_angle_gamma                 89.999925
_cell_volume                      3090.45554616

loop_
_atom_site_label
_atom_site_type_symbol
_atom_site_description
_atom_site_fract_x
_atom_site_fract_y
_atom_site_fract_z
_atom_type_partial_charge
O1    O     O_R   0.688010 0.379840 0.189360 -0.575285
O2    O     O_R   0.311990 0.620160 0.810640 -0.570408
O3    O     O_R   0.811990 0.879840 0.310640 -0.575303
O4    O     O_R   0.188010 0.120160 0.689360 -0.570418
O5    O     O_R   0.808630 0.708850 0.184280 -0.554389
O6    O     O_R   0.191370 0.291150 0.815720 -0.549834
O7    O     O_R   0.691370 0.208850 0.315720 -0.554353
O8    O     O_R   0.308630 0.791150 0.684280 -0.549831
C1    C     C_R   0.830441 0.541126 0.166654 0.985189
C2    C     C_R   0.169528 0.458899 0.833308 1.000750
C3    C     C_R   0.669559 0.041125 0.333346 0.985233
C4    C     C_R   0.330472 0.958900 0.666692 1.000767
O9    O     O_R   0.688260 0.709510 0.181570 -0.573130
O10   O     O_R   0.311740 0.290490 0.818430 -0.571722
O11   O     O_R   0.811740 0.209510 0.318430 -0.573142
O12   O     O_R   0.188260 0.790490 0.681570 -0.571734
O13   O     O_R   0.690760 0.880550 0.307920 -0.563174
O14   O     O_R   0.309240 0.119450 0.692080 -0.574809
O15   O     O_R   0.809240 0.380550 0.192080 -0.563145
O16   O     O_R   0.190760 0.619450 0.807920 -0.574803
C5    C     C_R   0.669235 0.540814 0.165342 1.113213
C6    C     C_R   0.330802 0.459044 0.834727 1.109603
C7    C     C_R   0.830764 0.040813 0.334659 1.113239
C8    C     C_R   0.169198 0.959044 0.665273 1.109620
O17   O     O_3   0.750960 0.546580 0.291460 -0.274832
O18   O     O_3   0.249040 0.453420 0.708540 -0.274543
O19   O     O_3   0.749040 0.046580 0.208540 -0.274828
O20   O     O_3   0.250960 0.953420 0.791460 -0.274534
V1    V     V_3+5 0.749820 0.821150 0.242310 1.290486
V2    V     V_3+5 0.250180 0.178850 0.757690 1.296009
V3    V     V_3+5 0.750180 0.321150 0.257690 1.290496
V4    V     V_3+5 0.249820 0.678850 0.742310 1.296003
C9    C     C_R   0.060555 0.017968 0.639037 0.274539
C10   C     C_R   0.940933 0.019615 0.359331 0.266415
C11   C     C_R   0.439439 0.518053 0.860970 0.274553
C12   C     C_R   0.559068 0.519480 0.140677 0.266424
C13   C     C_R   0.119752 0.967921 0.615960 -0.441009
C14   C     C_R   0.880053 0.029272 0.383972 -0.432789
C15   C     C_R   0.380248 0.467924 0.884040 -0.441038
C16   C     C_R   0.619945 0.529271 0.116031 -0.432744
C17   C     C_R   0.131855 0.924539 0.546706 0.282436
C18   C     C_R   0.865474 0.021600 0.454431 0.279962
C19   C     C_R   0.368149 0.424472 0.953290 0.282441
C20   C     C_R   0.634520 0.521759 0.045570 0.279963
C21   C     C_R   0.085180 0.946574 0.498238 -0.046562
C22   C     C_R   0.912952 0.010239 0.502466 -0.047255
C23   C     C_R   0.414822 0.446520 0.001760 -0.046557
C24   C     C_R   0.587043 0.510335 0.997537 -0.047262
C25   C     C_R   0.023756 0.980700 0.523110 0.018581
C26   C     C_R   0.975114 0.992585 0.476896 0.018720
C27   C     C_R   0.476243 0.480711 0.976893 0.018576
C28   C     C_R   0.524884 0.492591 0.023108 0.018728
C29   C     C_R   0.011023 0.002892 0.594548 -0.042322
C30   C     C_R   0.988635 0.985427 0.404993 -0.046949
C31   C     C_R   0.488972 0.502974 0.905458 -0.042311
C32   C     C_R   0.511365 0.485339 0.095011 -0.046974
C33   C     C_R   0.097451 0.931115 0.426261 -0.069264
C34   C     C_R   0.900652 0.008952 0.574843 -0.079353
C35   C     C_R   0.402549 0.431019 0.073735 -0.069239
C36   C     C_R   0.599342 0.509062 0.925160 -0.079353
C37   C     C_R   0.049251 0.943171 0.380514 -0.057501
C38   C     C_R   0.949314 0.003148 0.620185 -0.053074
C39   C     C_R   0.450748 0.443050 0.119484 -0.057555
C40   C     C_R   0.550680 0.503271 0.879818 -0.053050
C41   C     C_1   0.382725 0.968807 0.614581 -0.179360
C42   C     C_1   0.617259 0.031462 0.385398 -0.178847
C43   C     C_1   0.117275 0.468806 0.885419 -0.179360
C44   C     C_1   0.882741 0.531463 0.114602 -0.178889
C45   C     C_1   0.426320 0.979829 0.571764 0.089536
C46   C     C_1   0.573612 0.020847 0.428159 0.091082
C47   C     C_1   0.073679 0.479827 0.928236 0.089544
C48   C     C_1   0.926388 0.520849 0.071840 0.091060
C49   C     C_1   0.478085 0.994321 0.521238 0.000528
C50   C     C_1   0.521807 0.006719 0.478643 0.000420
C51   C     C_1   0.021915 0.494320 0.978761 0.000535
C52   C     C_1   0.978192 0.506720 0.021356 0.000412
N1    N     N_R   0.051933 0.095629 0.706391 0.232029
O21   O     O_R   0.065605 0.000711 0.760169 -0.420423
O22   O     O_R   0.037017 0.268941 0.713193 -0.429355
N2    N     N_R   0.954030 0.064769 0.288712 0.227502
O23   O     O_R   0.934365 0.959170 0.240465 -0.416834
O24   O     O_R   0.976468 0.226538 0.272986 -0.445345
N3    N     N_R   0.448055 0.595791 0.793628 0.232041
O25   O     O_R   0.434384 0.500931 0.739836 -0.420431
O26   O     O_R   0.462978 0.769104 0.786850 -0.429354
N4    N     N_R   0.545975 0.564486 0.211309 0.227485
O27   O     O_R   0.565635 0.458763 0.259522 -0.416818
O28   O     O_R   0.523569 0.726263 0.227084 -0.445305
N5    N     N_R   0.191218 0.852682 0.527278 0.227100
O29   O     O_R   0.198206 0.675266 0.519538 -0.397661
O30   O     O_R   0.239382 0.957209 0.531214 -0.447223
N6    N     N_R   0.801918 0.028422 0.475513 0.214436
O31   O     O_R   0.770107 0.876395 0.476736 -0.415036
O32   O     O_R   0.773358 0.186174 0.475326 -0.418105
N7    N     N_R   0.308796 0.352526 0.972710 0.227123
O33   O     O_R   0.301837 0.175101 0.980453 -0.397657
O34   O     O_R   0.260616 0.456985 0.968777 -0.447233
N8    N     N_R   0.698070 0.528906 0.024483 0.214435
O35   O     O_R   0.729979 0.377066 0.023301 -0.415160
O36   O     O_R   0.726530 0.686828 0.024627 -0.417977
C53   C     C_R   0.160866 0.917195 0.395751 0.153694
C54   C     C_R   0.183086 0.748505 0.368961 -0.039901
C55   C     C_R   0.240395 0.740639 0.334441 -0.118035
C56   C     C_R   0.275728 0.900811 0.326157 -0.106018
C57   C     C_R   0.253799 0.069083 0.352448 -0.084877
C58   C     C_R   0.196554 0.077598 0.387079 -0.104665
H1    H     H_    0.155618 0.624271 0.374056 0.103226
H2    H     H_    0.257088 0.610727 0.313504 0.105358
H3    H     H_    0.319883 0.894825 0.298966 0.103268
H4    H     H_    0.280778 0.193468 0.345309 0.114014
H5    H     H_    0.179487 0.209356 0.406029 0.122489
C59   C     C_R   0.837471 0.004680 0.606201 0.160157
C60   C     C_R   0.810627 0.834781 0.625165 -0.057598
C61   C     C_R   0.754244 0.830572 0.661648 -0.104839
C62   C     C_R   0.724372 0.995577 0.679562 -0.111702
C63   C     C_R   0.750853 0.165197 0.660936 -0.095390
C64   C     C_R   0.807400 0.170106 0.624676 -0.079991
H6    H     H_    0.834028 0.706264 0.612878 0.101447
H7    H     H_    0.734199 0.699325 0.676842 0.106773
H8    H     H_    0.681018 0.991927 0.708416 0.099039
H9    H     H_    0.728028 0.292922 0.675469 0.115165
H10   H     H_    0.828270 0.302173 0.611953 0.108997
C65   C     C_R   0.339132 0.417106 0.104241 0.153696
C66   C     C_R   0.316910 0.248422 0.131033 -0.039874
C67   C     C_R   0.259599 0.240566 0.165550 -0.118070
C68   C     C_R   0.224267 0.400742 0.173828 -0.106013
C69   C     C_R   0.246198 0.569008 0.147533 -0.084856
C70   C     C_R   0.303445 0.577514 0.112906 -0.104715
H11   H     H_    0.344376 0.124184 0.125942 0.103221
H12   H     H_    0.242904 0.110658 0.186490 0.105369
H13   H     H_    0.180110 0.394763 0.201016 0.103269
H14   H     H_    0.219218 0.693394 0.154666 0.114011
H15   H     H_    0.320514 0.709267 0.093953 0.122494
C71   C     C_R   0.662524 0.504664 0.893803 0.160158
C72   C     C_R   0.689351 0.334695 0.874903 -0.057802
C73   C     C_R   0.745734 0.330347 0.838422 -0.104634
C74   C     C_R   0.775624 0.495281 0.820452 -0.111673
C75   C     C_R   0.749160 0.664971 0.839017 -0.095573
C76   C     C_R   0.692612 0.670018 0.875271 -0.079820
H16   H     H_    0.665936 0.206229 0.887235 0.101492
H17   H     H_    0.765765 0.199044 0.823275 0.106762
H18   H     H_    0.818979 0.491524 0.791602 0.099009
H19   H     H_    0.771999 0.792638 0.824441 0.115181
H20   H     H_    0.671755 0.802134 0.887945 0.108967
C77   C     C_R   0.062231 0.887770 0.307893 0.138536
C78   C     C_R   0.094050 0.006442 0.261850 -0.042530
C79   C     C_R   0.106513 0.951102 0.194181 -0.109638
C80   C     C_R   0.087926 0.776832 0.172231 -0.101009
C81   C     C_R   0.056976 0.657278 0.217935 -0.079556
C82   C     C_R   0.044129 0.712269 0.285574 -0.114632
H21   H     H_    0.108564 0.141882 0.278267 0.099877
H22   H     H_    0.130494 0.043364 0.158692 0.121969
H23   H     H_    0.097697 0.734134 0.119850 0.127133
H24   H     H_    0.042916 0.522067 0.200899 0.153135
H25   H     H_    0.020195 0.618456 0.320617 0.140139
C83   C     C_R   0.934549 0.965710 0.694104 0.147239
C84   C     C_R   0.910977 0.105479 0.737675 -0.043439
C85   C     C_R   0.897180 0.067460 0.806716 -0.119798
C86   C     C_R   0.905997 0.889669 0.832479 -0.073935
C87   C     C_R   0.928843 0.749587 0.789303 -0.083645
C88   C     C_R   0.943087 0.787186 0.720334 -0.133798
H26   H     H_    0.904167 0.243899 0.718356 0.099998
H27   H     H_    0.879851 0.175986 0.840330 0.120641
H28   H     H_    0.895080 0.860378 0.885889 0.131471
H29   H     H_    0.935540 0.611866 0.809283 0.125854
H30   H     H_    0.960677 0.677535 0.687292 0.133182
C89   C     C_R   0.437763 0.387628 0.192102 0.138562
C90   C     C_R   0.405953 0.506309 0.238149 -0.042571
C91   C     C_R   0.393484 0.450954 0.305816 -0.109609
C92   C     C_R   0.412058 0.276662 0.327758 -0.100995
C93   C     C_R   0.442997 0.157098 0.282050 -0.079592
C94   C     C_R   0.455848 0.212102 0.214412 -0.114585
H31   H     H_    0.391450 0.641765 0.221737 0.099861
H32   H     H_    0.369509 0.543222 0.341307 0.121963
H33   H     H_    0.402283 0.233955 0.380138 0.127144
H34   H     H_    0.457044 0.021869 0.299080 0.153118
H35   H     H_    0.479774 0.118282 0.179365 0.140083
C95   C     C_R   0.565444 0.465853 0.805897 0.147252
C96   C     C_R   0.589013 0.605635 0.762330 -0.043455
C97   C     C_R   0.602807 0.567636 0.693287 -0.119811
C98   C     C_R   0.593988 0.389854 0.667518 -0.073922
C99   C     C_R   0.571143 0.249761 0.710690 -0.083650
C100  C     C_R   0.556903 0.287338 0.779661 -0.133811
H36   H     H_    0.595823 0.744049 0.781654 0.099996
H37   H     H_    0.620135 0.676171 0.659676 0.120657
H38   H     H_    0.604902 0.360578 0.614107 0.131459
H39   H     H_    0.564443 0.112046 0.690705 0.125848
H40   H     H_    0.539313 0.177679 0.812700 0.133189

loop_
_geom_bond_atom_site_label_1
_geom_bond_atom_site_label_2
_geom_bond_distance
_ccdc_geom_bond_type
C94   H35   1.083178 S    
C34   C38   1.414564 A    
C17   N5    1.433854 S    
C74   H18   1.082177 S    
O1    C5    1.327532 A    
C68   C69   1.398345 A    
O19   V1    1.760135 S    
O13   V1    1.831679 S    
C49   C50   1.243690 T    
C57   C58   1.398285 A    
O3    C7    1.327533 A    
C79   C80   1.398014 A    
C64   H10   1.083227 S    
C48   C52   1.473495 S    
O15   V3    1.831680 S    
C77   C78   1.406396 A    
C65   C66   1.406521 A    
C98   C99   1.397652 A    
O7    C3    1.343424 A    
C21   C33   1.426037 A    
C53   C54   1.406520 A    
N3    O25   1.301681 A    
C34   C59   1.487064 S    
O9    V1    2.003086 S    
C83   C84   1.405905 A    
C57   H4    1.081748 S    
C14   C18   1.402046 A    
C75   H19   1.082384 S    
C18   C22   1.431953 A    
C56   H3    1.082573 S    
O4    C8    1.329205 A    
N4    O28   1.300864 A    
C92   C93   1.397443 A    
C62   C63   1.398527 A    
O1    V3    1.992412 S    
C63   C64   1.398711 A    
O2    V4    1.992413 S    
C91   C92   1.398015 A    
C33   C37   1.414024 A    
O3    V1    1.992414 S    
C37   C77   1.491234 S    
C99   C100  1.397942 A    
C56   C57   1.398346 A    
C10   N2    1.436050 S    
C69   H14   1.081754 S    
C20   N8    1.432835 S    
C67   H12   1.082382 S    
C1    O15   1.338701 A    
C84   C85   1.398157 A    
N7    O33   1.300847 A    
C2    O16   1.338497 A    
C46   C50   1.473495 S    
C19   N7    1.433858 S    
C91   H32   1.082036 S    
C45   C49   1.473554 S    
C55   H2    1.082383 S    
O14   V2    1.831681 S    
N5    O30   1.301279 A    
C72   C73   1.397565 A    
C16   C20   1.402032 A    
C27   C31   1.421903 A    
C61   H7    1.082085 S    
C3    C42   1.499265 S    
C44   C48   1.243691 T    
C58   H5    1.083277 S    
C39   C89   1.491224 S    
C67   C68   1.398258 A    
C74   C75   1.398524 A    
O12   C8    1.331949 A    
C81   H24   1.082334 S    
C22   C34   1.429447 A    
C35   C65   1.488738 S    
C90   H31   1.083021 S    
O10   V2    2.003086 S    
C59   C60   1.405107 A    
C24   C36   1.429448 A    
O5    V1    1.864152 S    
C92   H33   1.082467 S    
N1    O22   1.301092 A    
C9    C29   1.422168 A    
C72   H16   1.083282 S    
C62   H8    1.082173 S    
O7    V3    1.864148 S    
C63   H9    1.082389 S    
C78   C79   1.398227 A    
C11   C31   1.422159 A    
C27   C28   1.427493 A    
O8    V4    1.864151 S    
C95   C96   1.405903 A    
C12   C16   1.397413 A    
C80   C81   1.397438 A    
N2    O24   1.300853 A    
C97   H37   1.082048 S    
C89   C90   1.406395 A    
C11   N3    1.437072 S    
N4    O27   1.301519 A    
N2    O23   1.301527 A    
C15   C19   1.404361 A    
C12   N4    1.436040 S    
N1    O21   1.301678 A    
C9    C13   1.399568 A    
C78   H21   1.083019 S    
C95   C100  1.405291 A    
C11   C15   1.399575 A    
C51   C52   1.243689 T    
C100  H40   1.083279 S    
O5    C1    1.343424 A    
C73   H17   1.082085 S    
C12   C32   1.423488 A    
C40   C95   1.492436 S    
C76   H20   1.083225 S    
C4    C41   1.499351 S    
C86   C87   1.397655 A    
C21   C25   1.429680 A    
O8    C4    1.343636 A    
C31   C40   1.418628 A    
N6    O32   1.301092 A    
C8    C13   1.480679 S    
C32   C39   1.422551 A    
O9    C5    1.332287 A    
C54   H1    1.083188 S    
C26   C30   1.425414 A    
C87   H29   1.082629 S    
O11   V3    2.003080 S    
C93   C94   1.398290 A    
C89   C94   1.405193 A    
C85   H27   1.082049 S    
C90   C91   1.398227 A    
O6    V2    1.864154 S    
C83   C88   1.405291 A    
C10   C30   1.423471 A    
N8    O36   1.301088 A    
C82   H25   1.083175 S    
C85   C86   1.397963 A    
C25   C26   1.427493 A    
C80   H23   1.082469 S    
C59   C64   1.405292 A    
C69   C70   1.398287 A    
C36   C71   1.487066 S    
C71   C76   1.405293 A    
C97   C98   1.397963 A    
C60   C61   1.397557 A    
O16   V4    1.831679 S    
C53   C58   1.404611 A    
C41   C45   1.243737 T    
C3    O13   1.338702 A    
C18   N6    1.432836 S    
N3    O26   1.301089 A    
C10   C14   1.397416 A    
O17   V3    1.760140 S    
C77   C82   1.405192 A    
C73   C74   1.398147 A    
O6    C2    1.343636 A    
C23   C27   1.429667 A    
C98   H38   1.082375 S    
N7    O34   1.301279 A    
C61   C62   1.398146 A    
C71   C72   1.405101 A    
O18   V4    1.760142 S    
C30   C37   1.422530 A    
C96   C97   1.398157 A    
O12   V4    2.003080 S    
C7    C14   1.479055 S    
C33   C53   1.488732 S    
C93   H34   1.082336 S    
C22   C26   1.433215 A    
C35   C39   1.414025 A    
C9    N1    1.437065 S    
C36   C40   1.414560 A    
C87   C88   1.397943 A    
O2    C6    1.329204 A    
O20   V2    1.760135 S    
C79   H22   1.082030 S    
C1    C44   1.499264 S    
C2    C43   1.499351 S    
C81   C82   1.398291 A    
C47   C51   1.473555 S    
O10   C6    1.331953 A    
C65   C70   1.404617 A    
C42   C46   1.243691 T    
C5    C16   1.479057 S    
C68   H13   1.082574 S    
C25   C29   1.421909 A    
C6    C15   1.480677 S    
O11   C7    1.332288 A    
N6    O31   1.301039 A    
C38   C83   1.492434 S    
C66   H11   1.083188 S    
C43   C47   1.243736 T    
C99   H39   1.082629 S    
C13   C17   1.404355 A    
C54   C55   1.398343 A    
C75   C76   1.398707 A    
C88   H30   1.083280 S    
C23   C35   1.426024 A    
C60   H6    1.083283 S    
C96   H36   1.082996 S    
C28   C32   1.425433 A    
C24   C28   1.433217 A    
C29   C38   1.418633 A    
N8    O35   1.301039 A    
C4    O14   1.338498 A    
C55   C56   1.398256 A    
C17   C21   1.431217 A    
C86   H28   1.082373 S    
N5    O29   1.300848 A    
C70   H15   1.083278 S    
C19   C23   1.431211 A    
C84   H26   1.082996 S    
O4    V2    1.992419 S    
C20   C24   1.431942 A    
C66   C67   1.398341 A    
