data_mof_unit_61754.cif
_audit_creation_date              2012-12-10T19:55:49-0500
_audit_creation_method            fapswitch 2.2
_symmetry_space_group_name_H-M    P1
_symmetry_Int_Tables_number       1
_space_group_crystal_system       triclinic
_cell_length_a                    18.272569
_cell_length_b                    18.272576
_cell_length_c                    32.142129
_cell_angle_alpha                 89.975797
_cell_angle_beta                  90.030723
_cell_angle_gamma                 89.999761
_cell_volume                      10731.8334961

loop_
_atom_site_label
_atom_site_type_symbol
_atom_type_description
_atom_site_fract_x
_atom_site_fract_y
_atom_site_fract_z
_atom_type_partial_charge
C1    C     C_R   0.000000 0.358780 0.499993 0.932533
C2    C     C_R   0.499972 0.000024 0.419415 0.900612
C3    C     C_R   0.000026 0.499967 0.580585 0.899471
C4    C     C_R   0.500035 0.999984 0.580583 0.898390
C5    C     C_R   0.499970 0.999999 0.919417 0.898678
C6    C     C_R   0.999977 0.500025 0.919416 0.901653
C7    C     C_R   0.500027 0.999973 0.080585 0.900576
C8    C     C_R   0.000048 0.499982 0.080582 0.896460
C9    C     C_R   0.042912 0.447905 0.228099 0.113070
C10   C     C_R   0.549707 0.044344 0.228100 0.113094
C11   C     C_R   0.955982 0.550169 0.228071 0.112980
C12   C     C_R   0.641220 1.000000 0.499998 0.934462
C13   C     C_R   0.452188 0.952165 0.228086 0.113803
C14   C     C_R   0.942837 0.463955 0.771902 0.113875
C15   C     C_R   0.455600 0.049924 0.771927 0.115002
C16   C     C_R   0.054759 0.537989 0.771912 0.113213
C17   C     C_R   0.540029 0.945555 0.771927 0.114688
C18   C     C_R   0.542139 0.947334 0.728095 0.114793
C19   C     C_R   0.056799 0.534896 0.728101 0.113160
C20   C     C_R   0.456509 0.050669 0.728063 0.114012
C21   C     C_R   0.944884 0.460853 0.728086 0.113654
C22   C     C_R   0.449636 0.954859 0.271903 0.113683
C23   C     C_R   1.000000 0.641220 0.500004 0.935851
C24   C     C_R   0.954922 0.549244 0.271930 0.115651
C25   C     C_R   0.547165 0.047028 0.271911 0.113172
C26   C     C_R   0.040922 0.446200 0.271935 0.116296
C27   C     C_R   0.999928 0.499450 0.206613 0.000659
C28   C     C_R   0.501573 0.997598 0.206615 0.009188
C29   C     C_R   0.998285 0.501755 0.793384 0.009620
C30   C     C_R   0.497629 0.997525 0.793401 0.000843
C31   C     C_R   0.499847 0.999456 0.706617 0.003147
C32   C     C_R   0.001335 0.497129 0.706615 0.008827
C33   C     C_R   0.497772 0.001610 0.293385 0.009316
C34   C     C_R   0.358780 0.000000 0.500004 0.933078
C35   C     C_R   0.997751 0.497545 0.293397 0.003549
C36   C     C_1   0.000131 0.499742 0.162010 0.069171
C37   C     C_1   0.500666 0.998618 0.162016 0.060345
C38   C     C_1   0.999008 0.500732 0.837983 0.060604
C39   C     C_1   0.499058 0.998636 0.837995 0.068354
C40   C     C_1   0.500033 0.999760 0.662014 0.060822
C41   C     C_1   0.000570 0.498346 0.662016 0.060140
C42   C     C_1   0.498714 0.000669 0.337984 0.060331
C43   C     C_1   0.999078 0.498685 0.337990 0.059294
C44   C     C_1   0.999763 0.499438 0.375237 -0.180878
C45   C     C_R   0.500000 0.858780 0.999994 0.933481
C46   C     C_1   0.499403 0.000172 0.375234 -0.181338
C47   C     C_1   0.000160 0.499234 0.624767 -0.181215
C48   C     C_1   0.500058 0.999920 0.624763 -0.181025
C49   C     C_1   0.499770 0.999395 0.875241 -0.183096
C50   C     C_1   0.999538 0.500188 0.875234 -0.181414
C51   C     C_1   0.500181 0.999362 0.124766 -0.181359
C52   C     C_1   0.000125 0.499909 0.124760 -0.182814
C53   C     C_1   0.000000 0.282368 0.499982 -0.191256
C54   C     C_1   0.717633 0.999999 0.499984 -0.189353
C55   C     C_1   0.999999 0.717633 0.500015 -0.188127
C56   C     C_R   0.141220 0.500000 0.999997 0.934922
C57   C     C_1   0.282367 0.000001 0.500019 -0.190701
C58   C     C_1   0.500000 0.782368 0.999982 -0.191238
C59   C     C_1   0.217633 0.500000 0.999983 -0.189470
C60   C     C_1   0.499999 0.217633 0.000015 -0.188622
C61   C     C_1   0.782368 0.500002 0.000020 -0.191294
C62   C     C_1   0.000001 0.217626 0.499979 -0.189900
C63   C     C_1   0.782375 1.000000 0.499978 -0.188403
C64   C     C_1   0.999999 0.782375 0.500019 -0.187494
C65   C     C_1   0.217625 0.000002 0.500024 -0.189487
C66   C     C_1   0.500000 0.717626 0.999980 -0.189925
C67   C     C_R   0.500000 0.141220 0.000004 0.935569
C68   C     C_1   0.282375 0.500000 0.999977 -0.188489
C69   C     C_1   0.499999 0.282375 0.000019 -0.187687
C70   C     C_1   0.717626 0.500003 0.000024 -0.189744
C71   C     C_R   0.141212 0.000002 0.500009 0.934681
C72   C     C_R   0.000000 0.141212 0.499992 0.934510
C73   C     C_R   0.858788 0.000001 0.499991 0.934763
C74   C     C_R   0.000000 0.858789 0.500007 0.934906
C75   C     C_R   0.641212 0.500003 0.000009 0.934846
C76   C     C_R   0.500000 0.641212 0.999992 0.934582
C77   C     C_R   0.358788 0.500001 0.999991 0.934831
C78   C     C_R   0.858780 0.500000 0.000006 0.932941
C79   C     C_R   0.500000 0.358789 0.000007 0.935053
C80   C     C_3   0.044527 0.330411 0.308247 -0.786374
C81   C     C_3   0.564057 0.162018 0.307789 -0.783015
C82   C     C_3   0.839670 0.570743 0.306700 -0.753014
C83   C     C_3   0.333894 0.944523 0.307795 -0.785603
C84   C     C_3   0.908581 0.350475 0.692173 -0.784096
C85   C     C_3   0.341634 0.075422 0.693533 -0.754889
C86   C     C_3   0.172600 0.525170 0.692226 -0.781905
C87   C     C_3   0.655571 0.921987 0.692220 -0.784088
C88   C     C_3   0.541910 0.829685 0.808191 -0.787302
C89   C     C_R   0.999968 0.500011 0.419417 0.900501
C90   C     C_3   0.091194 0.648378 0.807778 -0.784162
C91   C     C_3   0.345696 0.073900 0.813181 -0.754557
C92   C     C_3   0.827024 0.473633 0.807781 -0.787131
C93   C     C_3   0.435360 0.837193 0.192178 -0.785777
C94   C     C_3   0.845303 0.574054 0.187514 -0.756722
C95   C     C_3   0.665464 0.054709 0.192229 -0.782406
C96   C     C_3   0.156642 0.424040 0.192193 -0.784332
H1    H     H_    0.134151 0.382844 0.281942 0.233294
H2    H     H_    0.805968 0.559967 0.278615 0.238842
H3    H     H_    0.810932 0.611400 0.326483 0.235068
H4    H     H_    0.845716 0.519300 0.324807 0.247326
H5    H     H_    0.392092 0.857996 0.282056 0.233517
H6    H     H_    0.300825 0.960666 0.280265 0.229114
H7    H     H_    0.346105 0.993873 0.326725 0.250977
H8    H     H_    0.301304 0.906193 0.327165 0.242803
H9    H     H_    0.837496 0.426764 0.717914 0.233248
H10   H     H_    0.916771 0.314596 0.719700 0.228839
H11   H     H_    0.959431 0.351183 0.673266 0.250743
H12   H     H_    0.026094 0.298096 0.280909 0.228868
H13   H     H_    0.863878 0.327436 0.672779 0.242538
H14   H     H_    0.413284 0.154447 0.716207 0.219058
H15   H     H_    0.307803 0.066294 0.721739 0.240400
H16   H     H_    0.345898 0.023475 0.675754 0.245677
H17   H     H_    0.314102 0.116632 0.673531 0.234961
H18   H     H_    0.130139 0.620426 0.717947 0.233070
H19   H     H_    0.202413 0.503619 0.719762 0.227320
H20   H     H_    0.211284 0.557312 0.672847 0.241858
H21   H     H_    0.152086 0.478634 0.673310 0.253924
H22   H     H_    0.586550 0.843837 0.717994 0.233054
H23   H     H_    0.996222 0.345846 0.327276 0.251269
H24   H     H_    0.690474 0.933601 0.719748 0.228617
H25   H     H_    0.649959 0.972546 0.673300 0.251693
H26   H     H_    0.682854 0.879749 0.672845 0.242760
H27   H     H_    0.632321 0.880836 0.781939 0.233431
H28   H     H_    0.522996 0.797700 0.780833 0.228980
H29   H     H_    0.493839 0.845808 0.827228 0.251221
H30   H     H_    0.577840 0.794436 0.827562 0.242526
H31   H     H_    0.162185 0.571948 0.782090 0.233028
H32   H     H_    0.083031 0.684218 0.780232 0.228388
H33   H     H_    0.135934 0.671396 0.827154 0.241732
H34   H     H_    0.080979 0.295736 0.327637 0.242416
H35   H     H_    0.040349 0.647766 0.826690 0.254688
H36   H     H_    0.409835 0.154085 0.783796 0.220168
H37   H     H_    0.297703 0.097805 0.796897 0.224681
H38   H     H_    0.343638 0.090275 0.846400 0.247852
H39   H     H_    0.341981 0.013212 0.811388 0.240926
H40   H     H_    0.869541 0.378395 0.782065 0.233683
H41   H     H_    0.797179 0.495136 0.780244 0.229238
H42   H     H_    0.847510 0.520203 0.826679 0.251438
H43   H     H_    0.788374 0.441482 0.827178 0.242765
H44   H     H_    0.352241 0.900165 0.217914 0.233467
H45   H     H_    0.647144 0.098969 0.282084 0.232991
H46   H     H_    0.449573 0.803248 0.219706 0.228991
H47   H     H_    0.485342 0.846608 0.173273 0.250879
H48   H     H_    0.395274 0.806833 0.172782 0.242649
H49   H     H_    0.910693 0.654331 0.215943 0.219377
H50   H     H_    0.797923 0.597648 0.204469 0.225981
H51   H     H_    0.841877 0.513328 0.189110 0.240854
H52   H     H_    0.841876 0.590829 0.154386 0.245269
H53   H     H_    0.607226 0.141224 0.217948 0.233024
H54   H     H_    0.698521 0.038582 0.219767 0.227714
H55   H     H_    0.698053 0.093047 0.172866 0.241954
H56   H     H_    0.549870 0.195946 0.280251 0.227910
H57   H     H_    0.653278 0.005352 0.173301 0.254344
H58   H     H_    0.088719 0.345009 0.218037 0.233185
H59   H     H_    0.191422 0.436157 0.219700 0.228583
H60   H     H_    0.150332 0.474494 0.173253 0.251573
H61   H     H_    0.184468 0.382147 0.172826 0.242756
H62   H     H_    0.604161 0.192370 0.327177 0.241645
H63   H     H_    0.514065 0.152652 0.326693 0.254558
H64   H     H_    0.908460 0.651767 0.283555 0.220078
N1    N     N_2   0.083935 0.394897 0.294803 -0.296822
N2    N     N_2   0.110490 0.575085 0.794763 -0.298949
N3    N     N_2   0.412741 0.101281 0.794840 -0.297844
N4    N     N_2   0.886901 0.427189 0.794748 -0.297108
N5    N     N_2   0.403692 0.906028 0.205230 -0.296677
N6    N     N_2   0.912991 0.601373 0.205109 -0.295776
N7    N     N_2   0.598501 0.090181 0.205260 -0.298447
N8    N     N_2   0.085985 0.396677 0.205266 -0.296956
N9    N     N_2   0.595683 0.093151 0.294762 -0.298608
N10   N     N_2   0.910583 0.599141 0.294921 -0.294898
N11   N     N_2   0.400839 0.909034 0.294748 -0.296874
N12   N     N_2   0.889188 0.423719 0.705229 -0.296565
N13   N     N_2   0.413527 0.101683 0.705002 -0.294054
N14   N     N_2   0.112751 0.571646 0.705260 -0.297857
N15   N     N_2   0.584537 0.895561 0.705253 -0.296822
N16   N     N_2   0.582271 0.893601 0.794785 -0.296884
O1    O     O_R   0.939350 0.392650 0.500050 -0.619634
O2    O     O_R   0.107350 0.439350 0.000050 -0.618662
O3    O     O_R   0.560650 0.107350 0.000050 -0.618356
O4    O     O_R   0.892650 0.560650 0.000050 -0.620375
O5    O     O_R   0.560650 0.892650 0.999950 -0.619388
O6    O     O_R   0.892650 0.439350 0.999950 -0.618263
O7    O     O_R   0.439350 0.107350 0.999950 -0.619571
O8    O     O_R   0.107350 0.560650 0.999950 -0.619104
O9    O     O_R   0.939350 0.500000 0.439070 -0.618782
O10   O     O_R   0.500000 0.939350 0.439070 -0.613174
O11   O     O_R   0.060650 0.500000 0.439070 -0.613316
O12   O     O_R   0.607350 0.939350 0.500050 -0.618721
O13   O     O_R   0.500000 0.060650 0.439070 -0.618585
O14   O     O_R   0.060650 0.500000 0.560930 -0.617365
O15   O     O_R   0.500000 0.939350 0.560930 -0.614317
O16   O     O_R   0.939350 0.500000 0.560930 -0.612951
O17   O     O_R   0.500000 0.060650 0.560930 -0.615096
O18   O     O_R   0.439350 0.000000 0.939070 -0.620529
O19   O     O_R   0.000000 0.439350 0.939070 -0.613275
O20   O     O_R   0.560650 0.000000 0.939070 -0.612673
O21   O     O_R   0.000000 0.560650 0.939070 -0.619248
O22   O     O_R   0.560650 0.000000 0.060930 -0.618310
O23   O     O_R   0.060650 0.607350 0.500050 -0.618583
O24   O     O_R   0.000000 0.439350 0.060930 -0.613553
O25   O     O_R   0.439350 0.000000 0.060930 -0.612833
O26   O     O_R   0.000000 0.560650 0.060930 -0.616606
O27   O     O_R   0.107270 0.999880 0.465630 -0.621541
O28   O     O_R   0.000120 0.107270 0.465630 -0.621481
O29   O     O_R   0.892730 0.000120 0.465630 -0.620428
O30   O     O_R   0.999880 0.892730 0.465630 -0.620757
O31   O     O_R   0.892730 0.999880 0.534370 -0.621480
O32   O     O_R   0.999880 0.107270 0.534370 -0.621592
O33   O     O_R   0.107270 0.000120 0.534370 -0.621296
O34   O     O_R   0.392650 0.060650 0.500050 -0.619727
O35   O     O_R   0.000120 0.892730 0.534370 -0.620644
O36   O     O_R   0.607270 0.499880 0.965630 -0.621501
O37   O     O_R   0.500120 0.607270 0.965630 -0.621556
O38   O     O_R   0.392730 0.500120 0.965630 -0.620477
O39   O     O_R   0.499880 0.392730 0.965630 -0.620869
O40   O     O_R   0.392730 0.499880 0.034370 -0.621532
O41   O     O_R   0.499880 0.607270 0.034370 -0.621615
O42   O     O_R   0.607270 0.500120 0.034370 -0.621548
O43   O     O_R   0.500120 0.392730 0.034370 -0.620649
O44   O     O_R   0.060650 0.392650 0.499950 -0.619457
O45   O     O_R   0.392650 0.939350 0.499950 -0.618691
O46   O     O_R   0.939350 0.607350 0.499950 -0.618753
O47   O     O_R   0.607350 0.060650 0.499950 -0.619207
O48   O     O_R   0.439350 0.892650 0.000050 -0.619166
Zn1   Zn    Zn3+2 0.919020 0.500000 0.500000 0.970893
Zn2   Zn    Zn3+2 0.000000 0.000000 0.545920 0.964524
Zn3   Zn    Zn3+2 0.500000 0.500000 0.954080 0.964194
Zn4   Zn    Zn3+2 0.500000 0.500000 0.045920 0.963893
Zn5   Zn    Zn3+2 0.500000 0.919020 0.500000 0.974278
Zn6   Zn    Zn3+2 0.080980 0.500000 0.500000 0.971711
Zn7   Zn    Zn3+2 0.500000 0.080980 0.500000 0.969473
Zn8   Zn    Zn3+2 0.419020 0.000000 0.000000 0.969210
Zn9   Zn    Zn3+2 0.000000 0.419020 0.000000 0.974428
Zn10  Zn    Zn3+2 0.580980 0.000000 0.000000 0.971408
Zn11  Zn    Zn3+2 1.000000 0.580980 0.000000 0.967847
Zn12  Zn    Zn3+2 0.000000 0.000000 0.454080 0.964735

loop_
_geom_bond_atom_site_label_1
_geom_bond_atom_site_label_2
_ccdc_geom_bond_type
C61   C70   T    
C94   H50   S    
C82   N10   S    
C81   H63   S    
C83   H6    S    
C82   H2    S    
C82   H3    S    
H53   N7    S    
C2    O13   A    
C88   H28   S    
C85   H16   S    
C5    C49   S    
C94   N6    S    
H27   N16   S    
O21   Zn11  S    
C45   O5    A    
C72   O32   A    
O10   Zn5   S    
C56   O2    A    
C2    C46   S    
C71   O27   A    
O40   Zn4   S    
C83   H7    S    
C90   N2    S    
C78   O4    A    
C33   C42   S    
C28   C37   S    
C14   C21   A    
C15   N3    S    
O13   Zn7   S    
O23   Zn6   S    
O48   Zn8   S    
C4    C48   S    
C79   O43   A    
C37   C51   T    
C96   H59   S    
C54   C63   T    
C92   H41   S    
C25   N9    S    
C12   O12   A    
C23   O23   A    
C11   C24   A    
C68   C77   S    
C84   H11   S    
C31   C40   S    
C86   H20   S    
C42   C46   T    
C1    C53   S    
C88   H30   S    
C34   O34   A    
O6    Zn9   S    
O32   Zn2   S    
O26   Zn11  S    
C90   H33   S    
C1    O1    A    
O5    Zn10  S    
C58   C66   T    
O25   Zn8   S    
O4    Zn11  S    
C10   N7    S    
C71   O33   A    
O35   Zn2   S    
C83   N11   S    
C29   C38   S    
C77   O38   A    
C34   C57   S    
C85   N13   S    
C32   C41   S    
C96   N8    S    
C13   C28   A    
C90   H32   S    
C81   N9    S    
O43   Zn4   S    
C86   H21   S    
C35   C43   S    
C8    C52   S    
C56   O8    A    
C22   N11   S    
C36   C52   T    
C17   N16   S    
C72   O28   A    
C18   N15   S    
C92   N4    S    
C79   O39   A    
C96   H61   S    
C73   O31   A    
C80   H23   S    
C93   N5    S    
C17   C30   A    
C89   O11   A    
C4    O15   A    
H58   N8    S    
C15   C20   A    
C89   O9    A    
O3    Zn10  S    
C19   C32   A    
C76   O37   A    
O42   Zn4   S    
C6    O19   A    
O47   Zn7   S    
C9    C26   A    
H18   N14   S    
H49   N6    S    
C9    N8    S    
C94   H52   S    
C4    O17   A    
C45   C58   S    
C21   C32   A    
C75   O36   A    
C24   C35   A    
C80   H34   S    
C83   H8    S    
O18   Zn8   S    
O24   Zn9   S    
C60   C67   S    
O22   Zn10  S    
C3    O14   A    
C87   H25   S    
C91   N3    S    
C75   O42   A    
C16   N2    S    
C16   C29   A    
C65   C71   S    
C95   N7    S    
C86   H19   S    
C86   N14   S    
C43   C44   T    
C2    O10   A    
C12   O47   A    
C88   H29   S    
O37   Zn3   S    
C59   C68   T    
C6    O21   A    
C53   C62   T    
O31   Zn2   S    
C84   H10   S    
C20   N13   S    
O11   Zn6   S    
C23   O46   A    
C11   C27   A    
C76   O41   A    
O15   Zn5   S    
C66   C76   S    
C55   C64   T    
C25   C33   A    
H45   N9    S    
C17   C18   A    
C41   C47   T    
C62   C72   S    
C95   H54   S    
C13   N5    S    
C6    C50   S    
O38   Zn3   S    
C93   H48   S    
C67   O7    A    
C91   H37   S    
C5    O20   A    
C90   H35   S    
C10   C25   A    
O16   Zn1   S    
C39   C49   T    
H22   N15   S    
O34   Zn7   S    
H1    N1    S    
C85   H17   S    
O9    Zn1   S    
C69   C79   S    
C95   H55   S    
O33   Zn2   S    
O17   Zn7   S    
C14   C29   A    
O12   Zn5   S    
C21   N12   S    
C87   N15   S    
C9    C27   A    
C15   C30   A    
C74   O30   A    
H14   N13   S    
C10   C28   A    
H44   N5    S    
C40   C48   T    
C22   C33   A    
C73   O29   A    
H64   N10   S    
C81   H62   S    
H40   N4    S    
C45   O48   A    
C82   H4    S    
O29   Zn12  S    
C94   H51   S    
O30   Zn12  S    
C57   C65   T    
C84   N12   S    
C93   H47   S    
O46   Zn1   S    
O2    Zn9   S    
C34   O45   A    
C23   C55   S    
C11   N6    S    
C38   C50   T    
C87   H26   S    
C27   C36   S    
H31   N2    S    
C81   H56   S    
C63   C73   S    
C92   H42   S    
C80   H12   S    
C26   N1    S    
C84   H13   S    
C88   N16   S    
C56   C59   S    
O44   Zn6   S    
C74   O35   A    
C24   N10   S    
C7    O22   A    
C8    O26   A    
H36   N3    S    
C7    C51   S    
O27   Zn12  S    
C7    O25   A    
C67   O3    A    
C3    O16   A    
C96   H60   S    
C91   H38   S    
O20   Zn10  S    
C60   C69   T    
C16   C19   A    
C3    C47   S    
C13   C22   A    
H5    N11   S    
C1    O44   A    
O39   Zn3   S    
C14   N4    S    
O8    Zn11  S    
C80   N1    S    
C19   N14   S    
C61   C78   S    
C8    O24   A    
C93   H46   S    
O41   Zn4   S    
O1    Zn1   S    
C85   H15   S    
C26   C35   A    
C87   H24   S    
C91   H39   S    
C77   O40   A    
O28   Zn12  S    
H9    N12   S    
O45   Zn5   S    
C70   C75   S    
C64   C74   S    
O19   Zn9   S    
C18   C31   A    
C95   H57   S    
C92   H43   S    
O14   Zn6   S    
O7    Zn8   S    
O36   Zn3   S    
C12   C54   S    
C44   C89   S    
C78   O6    A    
C30   C39   S    
C5    O18   A    
C20   C31   A    
