data_mof_unit_38655.cif
_audit_creation_date              2012-12-10T19:00:47-0500
_audit_creation_method            fapswitch 2.2
_symmetry_space_group_name_H-M    P1
_symmetry_Int_Tables_number       1
_space_group_crystal_system       triclinic
_cell_length_a                    14.999194
_cell_length_b                    10.884117
_cell_length_c                    9.628901
_cell_angle_alpha                 91.605743
_cell_angle_beta                  89.470291
_cell_angle_gamma                 92.547137
_cell_volume                      1569.72667412

loop_
_atom_site_label
_atom_site_type_symbol
_atom_type_description
_atom_site_fract_x
_atom_site_fract_y
_atom_site_fract_z
_atom_type_partial_charge
C1    C     C_R   0.498986 0.263121 0.498301 0.795905
C2    C     C_R   0.909893 0.575943 0.413460 0.027620
C3    C     C_R   0.945569 0.321373 0.658901 0.144491
C4    C     C_R   0.039315 0.322957 0.662550 0.087770
C5    C     C_R   0.090147 0.407897 0.581994 0.048941
C6    C     C_R   0.046354 0.490291 0.497086 0.030107
C7    C     C_R   0.096302 0.575290 0.416167 0.078271
C8    C     C_R   0.053628 0.661414 0.338415 -0.322653
C9    C     C_R   0.959856 0.664358 0.336927 0.453238
C10   C     C_R   0.183820 0.413343 0.584414 -0.250657
C11   C     C_R   0.232395 0.495911 0.501170 -0.053614
C12   C     C_R   0.329033 0.498274 0.500518 0.801045
C13   C     C_R   0.189056 0.575718 0.416783 -0.224010
C14   C     C_R   0.512069 0.069037 0.616186 -0.025031
C15   C     C_R   0.497667 0.130730 0.495644 -0.078271
C16   C     C_R   0.482157 0.059683 0.373470 -0.209879
C17   C     C_R   0.482536 0.930808 0.377065 -0.227725
C18   C     C_R   0.500184 0.870843 0.502240 -0.107158
C19   C     C_R   0.516143 0.945363 0.620957 0.084304
C20   C     C_3   0.536921 0.952649 0.774626 0.560124
C21   C     C_3   0.534993 0.094331 0.763812 -0.095121
C22   C     C_R   0.577015 0.487677 0.071337 0.196796
C23   C     C_R   0.500921 0.737478 0.501618 0.796448
C24   C     C_R   0.422718 0.504857 0.075019 -0.082596
C25   C     C_R   0.422699 0.504680 0.927329 -0.099846
C26   C     C_R   0.577860 0.488427 0.924116 0.121876
C27   C     C_3   0.658719 0.576101 0.923140 0.225114
C28   C     C_3   0.661562 0.564924 0.081270 0.157602
C29   C     C_R   0.670783 0.497486 0.498990 0.806114
C30   C     C_R   0.816755 0.575070 0.414372 -0.235364
C31   C     C_R   0.767050 0.492105 0.495117 -0.079924
C32   C     C_R   0.809093 0.407140 0.574807 -0.148909
C33   C     C_R   0.902326 0.404803 0.575922 0.061053
C34   C     C_R   0.952925 0.489445 0.494428 -0.069916
Cu1   Cu    Cu3+1 0.500000 0.499980 0.640670 0.945308
Cu2   Cu    Cu3+1 0.500000 0.500020 0.359330 0.942300
H1    H     H_    0.782330 0.643183 0.358382 0.185626
H2    H     H_    0.469552 0.878774 0.281288 0.170630
H3    H     H_    0.481379 0.138500 0.825310 0.142494
H4    H     H_    0.359743 0.510523 0.129433 0.148696
H5    H     H_    0.359788 0.510015 0.874731 0.152478
H6    H     H_    0.638289 0.665302 0.884375 0.114673
H7    H     H_    0.768464 0.344148 0.636620 0.180609
H8    H     H_    0.220029 0.352456 0.648179 0.137729
H9    H     H_    0.227952 0.640163 0.354040 0.134314
H10   H     H_    0.094587 0.728069 0.282777 0.136217
H11   H     H_    0.469683 0.102829 0.275942 0.162730
N1    N     N_R   0.500570 0.500930 0.147930 -0.184096
N2    N     N_R   0.500570 0.500890 0.852020 -0.208574
O1    O     O_R   0.500000 0.319640 0.618810 -0.590473
O2    O     O_R   0.500010 0.319680 0.381230 -0.580124
O3    O     O_R   0.370250 0.499950 0.618800 -0.590481
O4    O     O_R   0.370260 0.499990 0.381220 -0.592605
O5    O     O_R   0.499990 0.680320 0.618770 -0.573899
O6    O     O_R   0.500000 0.680360 0.381190 -0.595006
O7    O     O_R   0.629740 0.500010 0.618780 -0.551264
O8    O     O_R   0.629750 0.500050 0.381200 -0.572603
N3    N     N_3   0.461766 0.897885 0.853892 -0.644954
H12   H     H_    0.460270 0.937591 0.953983 0.184242
H13   H     H_    0.469489 0.803260 0.860883 0.235042
O9    O     O_3   0.622792 0.909434 0.804273 -0.609918
C35   C     C_3   0.640479 0.901970 0.948688 0.045548
H14   H     H_    0.701227 0.848951 0.956165 0.169497
H15   H     H_    0.587446 0.849017 0.004877 0.153007
C36   C     C_3   0.661640 0.025799 0.024007 -0.343526
H16   H     H_    0.716316 0.076604 0.968320 0.252456
H17   H     H_    0.601190 0.081040 0.029368 0.227948
C37   C     C_3   0.692291 0.007130 0.172362 -0.936805
H18   H     H_    0.640132 0.955086 0.231434 0.278809
H19   H     H_    0.705838 0.097826 0.225496 0.267465
H20   H     H_    0.754143 0.954973 0.171712 0.262776
N4    N     N_3   0.622909 0.158339 0.777396 -0.583883
H21   H     H_    0.665335 0.135020 0.694715 0.250326
H22   H     H_    0.615334 0.253149 0.776738 0.253900
O10   O     O_3   0.734853 0.532123 0.852927 -0.589395
C38   C     C_3   0.807139 0.621473 0.865966 0.036510
H23   H     H_    0.870292 0.571871 0.867021 0.157893
H24   H     H_    0.805607 0.676128 0.964704 0.119452
C39   C     C_3   0.811548 0.710822 0.745636 -0.340360
H25   H     H_    0.841914 0.664204 0.656173 0.234984
H26   H     H_    0.743935 0.738601 0.717226 0.250411
C40   C     C_3   0.871216 0.825345 0.777742 -0.916734
H27   H     H_    0.842346 0.882152 0.862723 0.251491
H28   H     H_    0.877481 0.882162 0.683829 0.272063
H29   H     H_    0.938895 0.798714 0.807785 0.244871
N5    N     N_3   0.733772 0.492981 0.135356 -0.550614
H30   H     H_    0.794737 0.542523 0.129851 0.217753
H31   H     H_    0.739868 0.411478 0.076393 0.234957
N6    N     N_3   0.653792 0.684852 0.152029 -0.635770
H32   H     H_    0.639832 0.675238 0.256620 0.282944
H33   H     H_    0.716138 0.731286 0.148828 0.199006
N7    N     N_3   0.893892 0.235539 0.740919 -0.600649
H34   H     H_    0.911039 0.146450 0.711222 0.240692
H35   H     H_    0.910763 0.250809 0.845300 0.239266
N8    N     N_3   0.081108 0.237450 0.749222 -0.612441
H36   H     H_    0.120535 0.286789 0.822401 0.216720
H37   H     H_    0.121702 0.182358 0.687172 0.221244
O11   O     O_3   0.914613 0.759139 0.277388 -0.614010
C41   C     C_3   0.954990 0.804946 0.154592 0.046717
H38   H     H_    0.900996 0.820130 0.080208 0.154575
H39   H     H_    0.998629 0.738455 0.100150 0.088364
C42   C     C_3   0.005412 0.928924 0.183504 -0.349122
H40   H     H_    0.051167 0.922499 0.272617 0.215125
H41   H     H_    0.046288 0.953258 0.090589 0.177063
C43   C     C_3   0.942136 0.032303 0.215304 -0.781052
H42   H     H_    0.898586 0.009439 0.305730 0.277718
H43   H     H_    0.900407 0.047906 0.123297 0.235254
H44   H     H_    0.981476 0.118755 0.240586 0.232320

loop_
_geom_bond_atom_site_label_1
_geom_bond_atom_site_label_2
_ccdc_geom_bond_type
C8    C9    A    
C22   N1    A    
C9    O11   S    
N8    H36   S    
Cu1   Cu2   S    
C38   C39   S    
C7    C8    A    
C43   H43   S    
C26   C27   S    
C14   C21   S    
C38   H24   S    
C5    C6    A    
N5    H31   S    
C3    C33   A    
N3    H13   S    
C15   C16   A    
C42   C43   S    
C18   C19   A    
C20   O9    S    
C35   H15   S    
Cu2   O4    S    
C19   C20   S    
C16   C17   A    
C36   H17   S    
Cu1   N2    S    
C28   N6    S    
C1    C15   S    
N6    H33   S    
C1    O1    A    
C12   O4    A    
C2    C34   A    
C22   C28   S    
Cu1   O5    S    
O9    C35   S    
C27   O10   S    
C16   H11   S    
C12   O3    A    
C33   C34   A    
C8    H10   S    
C43   H44   S    
C21   N4    S    
C10   H8    S    
C18   C23   S    
C24   N1    A    
C24   C25   A    
N4    H22   S    
Cu2   O8    S    
C26   N2    A    
C25   H5    S    
C39   H26   S    
N5    H30   S    
C37   H18   S    
N3    H12   S    
C40   H27   S    
C6    C34   A    
C30   H1    S    
C3    N7    S    
O10   C38   S    
C35   H14   S    
C4    N8    S    
C41   H38   S    
C21   H3    S    
C7    C13   A    
C36   C37   S    
Cu1   O1    S    
N7    H35   S    
C17   C18   A    
C38   H23   S    
C42   H41   S    
C1    O2    A    
Cu2   O2    S    
C41   H39   S    
C29   O8    A    
C36   H16   S    
C40   H28   S    
C28   N5    S    
C20   N3    S    
C3    C4    A    
Cu1   O3    S    
C23   O5    A    
C35   C36   S    
Cu1   O7    S    
C14   C19   A    
C31   C32   A    
N4    H21   S    
C39   C40   S    
C11   C12   S    
N8    H37   S    
C23   O6    A    
C6    C7    A    
C29   O7    A    
C40   H29   S    
C43   H42   S    
C2    C30   A    
C32   C33   A    
C5    C10   A    
C29   C31   S    
Cu2   O6    S    
C13   H9    S    
C11   C13   A    
C27   H6    S    
C30   C31   A    
C37   H20   S    
N7    H34   S    
C24   H4    S    
C32   H7    S    
Cu2   N1    S    
C17   H2    S    
C42   H40   S    
C25   N2    A    
C10   C11   A    
C39   H25   S    
C4    C5    A    
C41   C42   S    
C20   C21   S    
C37   H19   S    
O11   C41   S    
C22   C26   A    
C27   C28   S    
C14   C15   A    
N6    H32   S    
C2    C9    A    
