data_mof_unit_23472.cif
_audit_creation_date              2013-03-05T16:06:47-0500
_audit_creation_method            fapswitch 2.2
_symmetry_space_group_name_H-M    P1
_symmetry_Int_Tables_number       1
_space_group_crystal_system       triclinic
_cell_length_a                    6.957822
_cell_length_b                    14.546039
_cell_length_c                    16.205283
_cell_angle_alpha                 90.470092
_cell_angle_beta                  89.896508
_cell_angle_gamma                 90.290537
_cell_volume                      1640.03759606

loop_
_atom_site_label
_atom_site_type_symbol
_atom_site_description
_atom_site_fract_x
_atom_site_fract_y
_atom_site_fract_z
_atom_type_partial_charge
O1    O     O_R   0.505830 0.583360 0.413880 -0.576097
O2    O     O_R   0.175830 0.595460 0.585520 -0.578690
O3    O     O_R   0.005520 0.416640 0.586120 -0.595885
C1    C     C_R   0.344899 0.617166 0.614390 0.971317
O4    O     O_R   0.176120 0.594390 0.414490 -0.534179
O5    O     O_R   0.005810 0.415570 0.413870 -0.607258
C2    C     C_R   0.345869 0.617625 0.386744 0.968981
O6    O     O_R   0.505540 0.584430 0.586130 -0.606381
O7    O     O_3   0.339200 0.441330 0.500000 -0.299302
V1    V     V_3+5 0.064350 0.510880 0.500000 1.251932
O8    O     O_R   0.676100 0.404540 0.414480 -0.592925
C3    C     C_R   0.845085 0.382331 0.385895 1.011490
O9    O     O_R   0.675810 0.405610 0.585510 -0.612211
C4    C     C_R   0.844775 0.383361 0.613373 1.045600
V2    V     V_3+5 0.564340 0.489120 0.500000 1.217219
O10   O     O_3   0.839360 0.558670 0.500000 -0.222457
C5    C     C_2   0.721363 0.209163 0.786629 -0.060215
C6    C     C_2   0.886260 0.181862 0.822607 -0.449613
H1    H     H_    0.585745 0.180762 0.808123 0.136352
H2    H     H_    0.023612 0.209611 0.803268 0.159379
C7    C     C_2   0.708481 0.277554 0.718668 -0.041347
C8    C     C_2   0.861122 0.315071 0.680106 -0.383404
H3    H     H_    0.564820 0.296993 0.699634 0.134703
H4    H     H_    0.005817 0.296326 0.697424 0.151578
C9    C     C_R   0.727451 0.181204 0.242803 0.180511
C10   C     C_R   0.882597 0.180571 0.187505 -0.218907
C11   C     C_R   0.034286 0.242733 0.203172 -0.152570
H5    H     H_    0.157162 0.244800 0.162381 0.148451
C12   C     C_R   0.022721 0.307363 0.268230 -0.085500
H6    H     H_    0.137699 0.357004 0.275766 0.151753
C13   C     C_R   0.858860 0.311958 0.319441 -0.201764
C14   C     C_R   0.715602 0.245395 0.306968 0.133036
C15   C     C_3   0.505167 0.257649 0.294770 -0.456979
C16   C     C_3   0.517880 0.187290 0.225213 -0.450892
H7    H     H_    0.470131 0.327907 0.273157 0.222623
H8    H     H_    0.419930 0.233242 0.348446 0.185780
H9    H     H_    0.489304 0.216495 0.163285 0.204356
H10   H     H_    0.440791 0.122009 0.238837 0.185767
C17   C     C_R   0.480514 0.673315 0.749821 0.117320
C18   C     C_R   0.353313 0.683928 0.683819 -0.242546
C19   C     C_R   0.224191 0.757831 0.688085 -0.176609
H11   H     H_    0.121253 0.766673 0.638635 0.143445
C20   C     C_R   0.233890 0.824267 0.752355 -0.046002
C21   C     C_R   0.372714 0.815195 0.816975 -0.297504
C22   C     C_R   0.488941 0.736746 0.814661 0.174414
C23   C     C_3   0.701912 0.728404 0.822314 -0.547470
C24   C     C_3   0.693783 0.660095 0.750670 0.155960
H12   H     H_    0.744899 0.698068 0.882219 0.250538
H13   H     H_    0.777812 0.792981 0.806358 0.213766
H14   H     H_    0.767557 0.684306 0.693768 0.086697
C25   C     C_R   0.494490 0.676750 0.254717 0.105385
C26   C     C_R   0.356710 0.684961 0.317795 -0.211477
C27   C     C_R   0.227704 0.758692 0.312279 -0.068241
H15   H     H_    0.132111 0.773225 0.362897 0.139001
C28   C     C_R   0.232473 0.819503 0.245033 -0.109660
H16   H     H_    0.132803 0.876452 0.244317 0.119805
C29   C     C_R   0.374070 0.811307 0.183076 -0.146144
C30   C     C_R   0.500013 0.736823 0.187491 0.138348
C31   C     C_3   0.714905 0.739357 0.183975 -0.547717
C32   C     C_3   0.709709 0.680374 0.262101 0.096817
H17   H     H_    0.774258 0.809871 0.192840 0.175621
O11   O     O_R   0.229930 0.912420 0.917160 -0.555538
O12   O     O_R   0.559420 0.902500 0.088780 -0.608895
O13   O     O_R   0.729660 0.081330 0.089380 -0.598376
C33   C     C_R   0.389652 0.880438 0.116893 0.945949
O14   O     O_R   0.559650 0.901420 0.917750 -0.576877
O15   O     O_R   0.729880 0.080250 0.917130 -0.598097
C34   C     C_R   0.390084 0.882254 0.886701 0.971824
O16   O     O_R   0.229700 0.913500 0.089410 -0.589713
O17   O     O_3   0.396250 0.055540 0.003280 -0.291726
V3    V     V_3+5 0.671130 0.986010 0.003260 1.194912
O18   O     O_R   0.059600 0.091310 0.917720 -0.593902
C35   C     C_R   0.891149 0.113474 0.889724 1.088133
O19   O     O_R   0.059370 0.092380 0.088750 -0.609426
C36   C     C_R   0.890680 0.114607 0.117327 0.933263
V4    V     V_3+5 0.171120 0.007820 0.003230 1.193572
O20   O     O_3   0.896130 0.938240 0.003240 -0.256037
C37   C     C_2   0.113461 0.907099 0.742249 0.941456
O21   O     O_2   0.999219 0.930259 0.795657 -0.646300
O22   O     O_R   0.123836 0.956028 0.668478 -0.807937
H18   H     H_    0.033421 0.010476 0.667767 0.319216
N1    N     N_R   0.749757 0.567435 0.775073 0.256809
O23   O     O_R   0.913560 0.534753 0.749980 -0.401317
O24   O     O_R   0.648728 0.521289 0.828497 -0.359046
C38   C     C_2   0.796255 0.693745 0.107435 1.193500
O25   O     O_2   0.690158 0.660583 0.054765 -0.627624
O26   O     O_R   0.995453 0.691565 0.096584 -0.766790
H19   H     H_    0.034501 0.660408 0.042978 0.331782
C39   C     C_2   0.768610 0.732908 0.339212 0.909116
O27   O     O_2   0.838745 0.692463 0.397199 -0.592585
O28   O     O_R   0.733222 0.827334 0.345892 -0.835731
H20   H     H_    0.776194 0.854133 0.400820 0.321015
N2    N     N_R   0.799724 0.589528 0.253318 0.250155
O29   O     O_R   0.695326 0.515393 0.245748 -0.413717
O30   O     O_R   0.985823 0.582765 0.249538 -0.379066

loop_
_geom_bond_atom_site_label_1
_geom_bond_atom_site_label_2
_geom_bond_distance
_ccdc_geom_bond_type
O14   C34   1.311240 A    
O26   H19   1.013786 S    
O12   C33   1.304764 A    
N2    O29   1.302212 A    
C11   C12   1.409258 A    
C16   H9    1.111620 S    
C19   H11   1.084608 S    
C1    O6    1.298352 A    
C27   H15   1.075436 S    
C21   C22   1.402168 A    
C20   C37   1.481427 S    
C23   H13   1.107505 S    
C10   C11   1.408368 A    
O19   V4    2.003991 S    
C2    C26   1.493455 S    
O5    C3    1.297154 A    
C37   O22   1.397884 S    
O13   V3    2.000142 S    
V2    O10   2.159975 S    
C15   H8    1.111516 S    
O16   V4    2.009489 S    
C24   N1    1.462656 S    
C15   H7    1.111412 S    
O8    V2    2.004196 S    
O14   V3    2.000521 S    
O17   V3    2.168045 S    
O15   C35   1.298499 A    
C39   O28   1.399932 S    
O7    V1    2.168000 S    
O15   V3    2.004506 S    
O28   H20   1.013786 S    
O18   V4    2.009533 S    
C9    C16   1.489482 S    
C17   C22   1.393763 A    
C32   N2    1.470965 S    
C9    C14   1.394416 A    
C27   C28   1.409413 A    
C31   C32   1.535458 S    
N2    O30   1.300368 A    
O1    C2    1.300578 A    
O9    C4    1.303412 A    
C19   C20   1.416436 A    
O11   V4    2.002625 S    
C5    C6    1.350861 D    
C24   H14   1.113358 S    
C38   O26   1.397269 S    
C23   H12   1.111767 S    
C31   H17   1.112086 S    
O19   C36   1.302320 A    
C25   C26   1.404918 A    
C1    C18   1.481263 S    
V4    O20   2.159993 S    
C17   C18   1.399519 A    
O4    C2    1.306855 A    
C37   O21   1.220581 D    
O22   H18   1.014090 S    
C30   C31   1.496439 S    
C32   C39   1.515397 S    
C5    C7    1.493271 S    
O2    C1    1.303142 A    
C20   C21   1.433260 A    
C31   C38   1.512228 S    
C28   C29   1.410172 A    
C12   H6    1.081368 S    
C13   C14   1.399852 A    
C28   H16   1.083175 S    
C15   C16   1.519029 S    
C25   C30   1.402488 A    
C38   O25   1.223950 D    
O3    C4    1.294799 A    
O1    V2    2.007904 S    
C18   C19   1.405658 A    
O12   V3    2.003630 S    
C6    C35   1.480518 S    
N1    O24   1.302615 A    
O9    V2    2.009574 S    
C3    C13   1.483011 S    
O17   V4    1.710102 S    
C8    H4    1.082469 S    
C21   C34   1.491326 S    
O2    V1    2.000541 S    
V3    O20   1.716009 S    
C26   C27   1.405548 A    
C17   C24   1.497365 S    
C23   C24   1.522883 S    
C16   H10   1.111749 S    
C29   C33   1.479662 S    
O18   C35   1.300626 A    
O5    V1    2.000171 S    
O8    C3    1.304148 A    
O6    V2    2.002377 S    
O11   C34   1.295105 A    
C14   C15   1.489601 S    
C4    C8    1.479328 S    
C7    H3    1.086115 S    
C9    C10   1.401728 A    
O4    V1    2.003677 S    
C12   C13   1.410494 A    
O3    V1    2.004502 S    
V1    O10   1.716065 S    
C29   C30   1.399290 A    
C33   O16   1.295746 A    
C5    H1    1.086105 S    
O13   C36   1.298972 A    
C6    H2    1.082366 S    
O7    V2    1.710577 S    
C22   C23   1.492854 S    
C10   C36   1.483094 S    
N1    O23   1.300363 A    
C11   H5    1.080196 S    
C25   C32   1.503063 S    
C39   O27   1.216930 D    
C7    C8    1.346696 D    
