data_mof_unit_54935.cif
_audit_creation_date              2013-03-05T16:19:43-0500
_audit_creation_method            fapswitch 2.2
_symmetry_space_group_name_H-M    P1
_symmetry_Int_Tables_number       1
_space_group_crystal_system       triclinic
_cell_length_a                    10.623463
_cell_length_b                    9.682062
_cell_length_c                    27.731565
_cell_angle_alpha                 90.08542
_cell_angle_beta                  90.12321
_cell_angle_gamma                 89.997407
_cell_volume                      2852.37657401

loop_
_atom_site_label
_atom_site_type_symbol
_atom_site_description
_atom_site_fract_x
_atom_site_fract_y
_atom_site_fract_z
_atom_type_partial_charge
O1    O     O_R   0.314910 0.616040 0.499990 -0.636094
O2    O     O_R   0.314910 0.383960 0.499990 -0.634412
C1    C     C_R   0.257578 0.500294 0.500174 0.843653
O3    O     O_R   0.500140 0.616020 0.428740 -0.628536
O4    O     O_R   0.500140 0.383980 0.428740 -0.628539
C2    C     C_R   0.500251 0.499853 0.405928 0.879155
Zn1   Zn    Zn3+2 0.500150 0.654960 0.499980 0.905090
Zn2   Zn    Zn3+2 0.500150 0.345040 0.499980 0.905936
O5    O     O_R   0.685320 0.616040 0.499970 -0.634789
O6    O     O_R   0.685320 0.383960 0.499970 -0.634768
O7    O     O_R   0.500090 0.616050 0.571230 -0.617877
O8    O     O_R   0.500090 0.383950 0.571230 -0.628594
C3    C     C_R   0.742663 0.500286 0.500163 0.844460
C4    C     C_R   0.498488 0.500132 0.593966 0.888952
C5    C     C_R   0.391679 0.479438 0.177578 0.503101
O9    O     O_2   0.282923 0.470261 0.202467 -0.553624
N1    N     N_R   0.503054 0.494498 0.201617 -0.359250
C6    C     C_R   0.615143 0.504666 0.177951 0.503329
C7    C     C_R   0.493525 0.372132 0.278151 -0.104758
C8    C     C_R   0.492880 0.373221 0.328197 -0.223970
C9    C     C_R   0.509709 0.623660 0.327626 -0.226640
C10   C     C_R   0.510729 0.622114 0.277511 -0.101454
C11   C     C_R   0.502499 0.496401 0.252902 0.328696
C12   C     C_R   0.504591 0.483523 0.101790 -0.052029
C13   C     C_R   0.390288 0.473514 0.127196 -0.021042
C14   C     C_R   0.277408 0.458600 0.101968 -0.137176
C15   C     C_R   0.618093 0.499409 0.127560 -0.021156
C16   C     C_R   0.500831 0.499065 0.353280 -0.044973
H1    H     H_    0.516213 0.721923 0.346183 0.147875
H2    H     H_    0.517617 0.718201 0.257748 0.134393
H3    H     H_    0.188170 0.452971 0.120718 0.190046
C17   C     C_R   0.498558 0.498824 0.646605 -0.059177
C18   C     C_R   0.392148 0.446267 0.974493 0.046145
C19   C     C_R   0.620368 0.496177 0.974557 0.046179
C20   C     C_R   0.506293 0.470299 0.949297 0.071299
C21   C     C_R   0.283182 0.411584 0.947659 -0.216812
C22   C     C_R   0.284559 0.409130 0.897693 -0.137589
C23   C     C_R   0.394596 0.440209 0.872614 -0.022243
C24   C     C_R   0.506104 0.469502 0.898210 -0.051821
C25   C     C_R   0.617162 0.499080 0.872593 -0.022589
C26   C     C_R   0.613997 0.501709 0.822178 0.509021
N2    N     N_R   0.504227 0.474589 0.798257 -0.351993
C27   C     C_R   0.395876 0.442753 0.822201 0.507018
C28   C     C_R   0.436422 0.589725 0.724416 -0.099239
C29   C     C_R   0.433380 0.599281 0.674142 0.163815
C30   C     C_R   0.563330 0.391302 0.669802 -0.278975
C31   C     C_R   0.565224 0.383399 0.719686 -0.097921
C32   C     C_R   0.502023 0.482531 0.746951 0.268964
O10   O     O_2   0.289903 0.413823 0.797195 -0.557783
C33   C     C_R   0.390493 0.457399 0.025418 0.046689
C34   C     C_R   0.505366 0.477808 0.050743 0.070478
C35   C     C_R   0.620948 0.492973 0.025640 0.046533
C36   C     C_R   0.277181 0.451053 0.052060 -0.215755
H4    H     H_    0.387765 0.665270 0.746417 0.143790
H5    H     H_    0.198332 0.383351 0.878775 0.190944
H6    H     H_    0.195196 0.383337 0.964122 0.141298
H7    H     H_    0.185724 0.443549 0.035463 0.138409
O11   O     O_2   0.723145 0.518985 0.203211 -0.553806
C37   C     C_R   0.731780 0.508082 0.102701 -0.136671
H8    H     H_    0.485954 0.275792 0.347137 0.147915
H9    H     H_    0.487281 0.274962 0.258893 0.133575
H10   H     H_    0.820463 0.517648 0.121795 0.190558
C38   C     C_R   0.729920 0.526587 0.947636 -0.216171
C39   C     C_R   0.728083 0.527785 0.897658 -0.137519
O12   O     O_2   0.719150 0.532772 0.797183 -0.557854
C40   C     C_R   0.733518 0.504459 0.052735 -0.215636
H11   H     H_    0.818534 0.553730 0.963980 0.140933
H12   H     H_    0.613455 0.313615 0.649233 0.157371
H13   H     H_    0.814326 0.552346 0.878722 0.191129
H14   H     H_    0.615609 0.300194 0.737254 0.151372
H15   H     H_    0.825461 0.508342 0.036554 0.138322
C41   C     C_3   0.071574 0.652302 0.500837 -0.399298
C42   C     C_3   0.072656 0.425331 0.545697 -0.397677
H16   H     H_    0.105529 0.709377 0.468523 0.171272
H17   H     H_    0.107447 0.316853 0.546326 0.171749
H18   H     H_    0.106416 0.707931 0.533443 0.169196
H19   H     H_    0.108009 0.477416 0.578894 0.162362
C43   C     C_3   0.928691 0.652292 0.500947 -0.395664
C44   C     C_3   0.928152 0.425067 0.545643 -0.400156
H20   H     H_    0.894613 0.707462 0.533702 0.169851
H21   H     H_    0.892870 0.476664 0.578883 0.164132
H22   H     H_    0.893971 0.709842 0.468794 0.172044
H23   H     H_    0.893697 0.316463 0.546118 0.169201
H24   H     H_    0.107335 0.480911 0.421506 0.166137
H25   H     H_    0.106577 0.318982 0.453061 0.170654
H26   H     H_    0.892342 0.481571 0.421498 0.165825
H27   H     H_    0.892899 0.319335 0.452861 0.172084
C45   C     C_3   0.072097 0.427535 0.454354 -0.396846
C46   C     C_3   0.121333 0.501318 0.500275 0.178648
C47   C     C_3   0.878931 0.501303 0.500270 0.179492
C48   C     C_3   0.927667 0.427765 0.454305 -0.398257
C49   C     C_3   0.375452 0.081367 0.513247 -0.231228
C50   C     C_3   0.375417 0.918792 0.513189 -0.236235
H28   H     H_    0.301344 0.118993 0.488097 0.144301
H29   H     H_    0.301480 0.881232 0.487932 0.145072
H30   H     H_    0.349594 0.120281 0.549676 0.149185
H31   H     H_    0.349230 0.879954 0.549532 0.147804
H32   H     H_    0.459392 0.118629 0.423765 0.145340
H33   H     H_    0.459538 0.880670 0.423733 0.147230
C51   C     C_3   0.529549 0.081141 0.450537 -0.230495
C52   C     C_3   0.529596 0.918442 0.450538 -0.231164
C53   C     C_3   0.594388 0.081461 0.533103 -0.235159
C54   C     C_3   0.594446 0.918854 0.533073 -0.231838
N3    N     N_3   0.499750 0.138610 0.498940 -0.032977
N4    N     N_3   0.499750 0.861390 0.498940 -0.032746
H34   H     H_    0.689829 0.119605 0.523505 0.143291
H35   H     H_    0.689882 0.880803 0.523399 0.143674
H36   H     H_    0.575069 0.119851 0.570173 0.150057
H37   H     H_    0.575390 0.880629 0.570121 0.150344
H38   H     H_    0.622854 0.119976 0.438448 0.144971
H39   H     H_    0.622952 0.879572 0.438475 0.143689
C55   C     C_3   0.357413 0.713309 0.651187 -0.901525
H40   H     H_    0.289824 0.669265 0.624693 0.233307
H41   H     H_    0.302390 0.772079 0.678360 0.238497
H42   H     H_    0.421087 0.787340 0.632937 0.244651

loop_
_geom_bond_atom_site_label_1
_geom_bond_atom_site_label_2
_geom_bond_distance
_ccdc_geom_bond_type
C51   H38   1.112702 S    
H27   C48   1.113559 S    
C3    C47   1.447670 S    
C17   C29   1.417256 A    
C20   C24   1.416735 A    
C7    C8    1.387890 A    
C12   C15   1.408637 A    
C49   H30   1.112673 S    
C41   H18   1.114389 S    
C55   H41   1.110806 S    
C29   C55   1.508383 S    
C43   C47   1.554625 S    
Zn1   O7    2.012024 S    
N1    C11   1.422341 S    
C21   C22   1.385907 A    
H26   C48   1.113504 S    
C37   C40   1.386176 A    
C23   C24   1.408323 A    
O7    C4    1.288253 A    
C43   H20   1.114198 S    
C5    C13   1.398298 A    
C5    O9    1.350098 S    
C51   N3    1.487000 S    
C18   C21   1.414970 A    
C5    N1    1.364524 A    
C19   C20   1.420540 A    
C26   N2    1.365666 A    
O5    C3    1.275592 A    
C49   C50   1.574067 S    
C44   C47   1.549630 S    
C41   C43   1.517920 S    
C50   N4    1.487004 S    
C6    O11   1.350033 S    
C2    C16   1.460063 S    
C31   C32   1.394152 A    
Zn1   N4    1.998924 S    
C53   H36   1.112121 S    
C8    H8    1.082946 S    
C12   C34   1.416665 A    
C14   H3    1.083644 S    
C50   H29   1.112088 S    
C9    C10   1.389908 A    
C42   H17   1.113559 S    
O3    Zn1   2.010697 S    
C55   H40   1.110884 S    
N1    C6    1.364529 A    
C52   N4    1.487084 S    
C38   H11   1.076354 S    
C33   C36   1.415153 A    
C34   C35   1.420506 A    
C12   C13   1.408618 A    
O3    C2    1.289611 A    
C24   C25   1.408150 A    
C44   H21   1.113483 S    
C36   H7    1.076604 S    
C27   O10   1.350132 S    
C26   O12   1.350099 S    
C8    C16   1.404555 A    
C18   C33   1.416323 A    
C9    H1    1.083103 S    
O1    C1    1.275517 A    
C7    C11   1.396361 A    
C31   H14   1.082990 S    
C30   H12   1.083817 S    
C22   C23   1.394585 A    
C21   H6    1.076637 S    
C43   H22   1.114289 S    
C40   H15   1.076464 S    
C45   C48   1.534349 S    
Zn2   O8    2.010920 S    
C49   H28   1.112348 S    
C33   C34   1.420368 A    
C42   C44   1.535135 S    
C54   N4    1.487263 S    
N2    C32   1.425134 S    
C39   H13   1.083613 S    
C53   N3    1.487257 S    
Zn2   N3    1.998839 S    
C41   H16   1.114180 S    
C25   C26   1.398705 A    
H33   C52   1.112234 S    
C9    C16   1.404674 A    
O8    C4    1.288845 A    
H32   C51   1.112127 S    
N2    C27   1.365571 A    
C14   C36   1.385854 A    
C50   H31   1.112152 S    
C35   C40   1.415266 A    
C28   C29   1.397674 A    
H25   C45   1.113555 S    
Zn1   O5    2.002897 S    
C30   C31   1.385698 A    
C37   H10   1.083640 S    
C10   H2    1.082993 S    
O1    Zn1   2.003661 S    
C17   C30   1.403948 A    
O2    Zn2   2.003628 S    
C6    C15   1.398687 A    
H24   C45   1.113496 S    
C4    C17   1.459843 S    
O6    C3    1.280491 A    
O4    Zn2   2.011802 S    
C54   H35   1.111959 S    
C52   H39   1.112717 S    
C19   C35   1.417014 A    
C25   C39   1.394588 A    
C54   H37   1.111537 S    
C1    C46   1.447434 S    
O2    C1    1.280466 A    
C13   C14   1.394430 A    
C42   C46   1.549494 S    
C23   C27   1.398378 A    
C15   C37   1.394529 A    
C44   H23   1.113517 S    
C41   C46   1.554519 S    
C47   C48   1.549167 S    
O4    C2    1.288778 A    
C7    H9    1.083085 S    
C19   C38   1.415252 A    
C18   C20   1.420188 A    
C53   H34   1.112093 S    
C53   C54   1.574373 S    
C49   N3    1.487014 S    
C38   C39   1.386113 A    
C22   H5    1.083602 S    
C28   H4    1.083720 S    
C45   C46   1.549211 S    
Zn2   O6    2.002931 S    
C42   H19   1.113575 S    
C10   C11   1.397181 A    
C51   C52   1.575262 S    
C55   H42   1.109083 S    
C28   C32   1.397633 A    
