data_mof_unit_40459.cif
_audit_creation_date              2012-12-11T15:27:37-0500
_audit_creation_method            fapswitch 2.2
_symmetry_space_group_name_H-M    P1
_symmetry_Int_Tables_number       1
_space_group_crystal_system       triclinic
_cell_length_a                    23.175143
_cell_length_b                    7.299356
_cell_length_c                    15.159822
_cell_angle_alpha                 90.03903
_cell_angle_beta                  108.105322
_cell_angle_gamma                 89.930875
_cell_volume                      2437.5125095

loop_
_atom_site_label
_atom_site_type_symbol
_atom_type_description
_atom_site_fract_x
_atom_site_fract_y
_atom_site_fract_z
_atom_type_partial_charge
O1    O     O_R   0.711000 0.648610 0.341170 -0.536249
O2    O     O_R   0.289000 0.351390 0.658830 -0.531062
O3    O     O_R   0.789000 0.148610 0.158830 -0.531135
O4    O     O_R   0.211000 0.851390 0.841170 -0.531157
O5    O     O_R   0.829650 0.322030 0.336650 -0.535813
O6    O     O_R   0.170350 0.677970 0.663350 -0.534627
O7    O     O_R   0.670350 0.822030 0.163350 -0.538593
O8    O     O_R   0.329650 0.177970 0.836650 -0.534135
C1    C     C_R   0.854250 0.485780 0.356860 0.717813
C2    C     C_R   0.145748 0.514216 0.643149 0.719271
C3    C     C_R   0.645749 0.985874 0.143147 0.717203
C4    C     C_R   0.354245 0.014129 0.856868 0.718055
O9    O     O_R   0.713950 0.319280 0.352070 -0.534963
O10   O     O_R   0.286050 0.680720 0.647930 -0.542649
O11   O     O_R   0.786050 0.819280 0.147930 -0.539939
O12   O     O_R   0.213950 0.180720 0.852070 -0.540765
O13   O     O_R   0.672470 0.142870 0.174360 -0.530763
O14   O     O_R   0.327530 0.857130 0.825640 -0.534632
O15   O     O_R   0.827530 0.642870 0.325640 -0.534211
O16   O     O_R   0.172470 0.357130 0.674360 -0.535065
C5    C     C_R   0.701750 0.487501 0.375951 0.726413
C6    C     C_R   0.298375 0.512219 0.624239 0.731148
C7    C     C_R   0.797804 0.987478 0.123711 0.723692
C8    C     C_R   0.202079 0.012531 0.876101 0.728101
O17   O     O_3   0.736530 0.478650 0.191680 -0.380833
O18   O     O_3   0.263470 0.521350 0.808320 -0.380371
O19   O     O_3   0.763470 0.978650 0.308320 -0.381472
O20   O     O_3   0.236530 0.021350 0.691680 -0.384991
V1    V     V_3+5 0.752500 0.206170 0.260820 1.475852
V2    V     V_3+5 0.247500 0.793830 0.739180 1.456307
V3    V     V_3+5 0.747500 0.706170 0.239180 1.451089
V4    V     V_3+5 0.252500 0.293830 0.760820 1.453268
C9    C     C_R   0.826286 0.995455 0.050442 -0.222022
C10   C     C_R   0.173397 0.004769 0.949037 -0.222063
C11   C     C_R   0.673401 0.493708 0.449703 -0.220750
C12   C     C_R   0.326787 0.499551 0.550787 -0.224461
C13   C     C_R   0.821659 0.981261 0.889153 0.676508
C14   C     C_R   0.178032 0.020250 0.110225 0.683125
C15   C     C_R   0.679021 0.491127 0.611766 0.675581
C16   C     C_R   0.323151 0.416337 0.394779 0.673240
C17   C     C_R   0.791685 0.988884 0.956175 0.182499
C18   C     C_R   0.207944 0.009030 0.043260 0.174433
C19   C     C_R   0.708424 0.494563 0.543911 0.181165
C20   C     C_R   0.292966 0.447254 0.460233 0.180875
C21   C     C_R   0.889541 0.999798 0.076630 -0.156246
C22   C     C_R   0.110147 0.004063 0.922713 -0.155583
C23   C     C_R   0.610097 0.489445 0.424454 -0.156281
C24   C     C_R   0.389834 0.517240 0.575281 -0.160857
C25   C     C_R   0.920654 0.003898 0.010103 0.024105
C26   C     C_R   0.078990 0.000796 0.989171 0.023848
C27   C     C_R   0.579713 0.471650 0.491591 0.025888
C28   C     C_R   0.421695 0.469485 0.512834 0.025076
C29   C     C_R   0.885536 0.982745 0.915643 -0.153553
C30   C     C_R   0.114126 0.021338 0.083666 -0.160279
C31   C     C_R   0.615257 0.480617 0.586349 -0.157240
C32   C     C_R   0.386914 0.425979 0.420414 -0.157094
C33   C     C_R   0.985417 0.017926 0.034527 -0.082779
C34   C     C_R   0.014217 0.987798 0.964650 -0.082270
C35   C     C_R   0.515272 0.449215 0.467724 -0.083591
C36   C     C_R   0.486667 0.466475 0.538571 -0.085638
C37   C     C_R   0.977114 0.942885 0.873417 0.601089
C38   C     C_R   0.022536 0.063165 0.125712 0.601125
C39   C     C_R   0.524239 0.468709 0.632573 0.599616
C40   C     C_R   0.478691 0.399359 0.377034 0.600718
C41   C     C_R   0.914374 0.951885 0.849056 -0.155983
C42   C     C_R   0.085294 0.053550 0.150148 -0.154074
C43   C     C_R   0.587008 0.475305 0.655097 -0.159758
C44   C     C_R   0.416030 0.388580 0.354696 -0.158066
H1    H     H_    0.888110 0.922669 0.777762 0.195949
H2    H     H_    0.111591 0.082641 0.221438 0.198695
H3    H     H_    0.613725 0.475230 0.727841 0.203367
H4    H     H_    0.390156 0.348244 0.284792 0.195616
H5    H     H_    0.086821 0.017573 0.849615 0.207080
H6    H     H_    0.912971 0.988021 0.149769 0.207016
H7    H     H_    0.412493 0.570538 0.643511 0.207415
H8    H     H_    0.585885 0.505200 0.351697 0.205505
C45   C     C_1   0.416724 0.006827 0.918850 -0.155615
C46   C     C_1   0.583266 0.993200 0.081181 -0.153663
C47   C     C_1   0.083263 0.507010 0.581185 -0.156283
C48   C     C_1   0.916728 0.492969 0.418849 -0.155184
C49   C     C_1   0.469121 0.002348 0.970033 0.044304
C50   C     C_1   0.530866 0.997703 0.030008 0.045337
C51   C     C_1   0.030865 0.502402 0.530013 0.043518
C52   C     C_1   0.969122 0.497562 0.470035 0.043372
N1    N     N_2   0.272578 0.004127 0.071579 -0.478776
H9    H     H_    0.290425 0.925538 0.029764 0.238483
C53   C     C_3   0.301306 0.181684 0.091592 -0.417623
H10   H     H_    0.290596 0.265451 0.027343 0.166626
H11   H     H_    0.351291 0.163854 0.119522 0.194773
H12   H     H_    0.285733 0.255056 0.144176 0.279515
N2    N     N_2   0.726996 0.987973 0.927878 -0.478106
H13   H     H_    0.708220 0.057256 0.971636 0.237437
C54   C     C_3   0.699785 0.809794 0.901562 -0.409356
H14   H     H_    0.712646 0.715776 0.962214 0.170287
H15   H     H_    0.714477 0.750116 0.844607 0.270621
H16   H     H_    0.649581 0.823624 0.876584 0.190367
N3    N     N_2   0.228508 0.431352 0.433150 -0.476701
H17   H     H_    0.207629 0.514480 0.469175 0.234674
C55   C     C_3   0.206216 0.245069 0.424964 -0.409983
H18   H     H_    0.155828 0.246007 0.398780 0.192152
H19   H     H_    0.220994 0.176475 0.493785 0.170899
H20   H     H_    0.223077 0.166122 0.375336 0.272987
N4    N     N_2   0.773080 0.497164 0.571601 -0.478752
H21   H     H_    0.791938 0.430109 0.527302 0.237798
C56   C     C_3   0.799615 0.675876 0.598501 -0.412801
H22   H     H_    0.849869 0.663766 0.623445 0.195849
H23   H     H_    0.784640 0.733376 0.655643 0.272254
H24   H     H_    0.786356 0.770629 0.538137 0.169526
F1    F     F_    0.788293 0.971707 0.797991 -0.666670
F2    F     F_    0.211492 0.030632 0.201301 -0.651222
F3    F     F_    0.713009 0.492618 0.702788 -0.662625
F4    F     F_    0.289983 0.375810 0.306029 -0.659309
F5    F     F_    0.999699 0.875928 0.807473 -0.704291
F6    F     F_    0.999939 0.130662 0.191533 -0.703264
F7    F     F_    0.502152 0.444295 0.704674 -0.702318
F8    F     F_    0.502458 0.340134 0.310906 -0.703975

loop_
_geom_bond_atom_site_label_1
_geom_bond_atom_site_label_2
_ccdc_geom_bond_type
O17   V3    S    
C53   H10   S    
O1    C5    A    
C54   H14   S    
C40   F8    S    
O19   V1    S    
C9    C21   A    
O3    C7    A    
C10   C18   A    
C48   C52   T    
O15   V3    S    
N3    H17   S    
C25   C33   A    
C33   C38   A    
C16   F4    S    
N1    H9    S    
O7    C3    A    
C56   H23   S    
C35   C40   A    
C26   C30   A    
C36   C39   A    
C40   C44   A    
O9    V1    S    
C23   H8    S    
C14   C18   A    
O4    C8    A    
C25   C29   A    
C43   H3    S    
O1    V3    S    
O13   V1    S    
O2    V4    S    
O3    V1    S    
C28   C36   A    
C1    O15   A    
C15   C31   A    
C55   H18   S    
C2    O16   A    
C7    C9    S    
O2    C6    A    
C17   N2    S    
C10   C22   A    
C45   C49   T    
C14   F2    S    
C11   C19   A    
C16   C20   A    
C13   F1    S    
C44   H4    S    
C13   C29   A    
C34   C37   A    
O11   C7    A    
C11   C23   A    
C35   C36   A    
C54   H15   S    
C24   H7    S    
O10   V2    S    
N3    C55   S    
C49   C50   S    
O5    V1    S    
N1    C53   S    
C56   H24   S    
C39   C43   A    
O7    V3    S    
C38   C42   A    
O8    V4    S    
N2    H13   S    
O18   V4    S    
C23   C27   A    
C16   C32   A    
C32   C44   A    
C8    C10   S    
C21   H6    S    
C1    C48   S    
C26   C34   A    
O5    C1    A    
C3    C46   S    
N2    C54   S    
C20   N3    S    
C46   C50   T    
C31   C43   A    
C51   C52   S    
C14   C30   A    
C21   C25   A    
O8    C4    A    
C4    C45   S    
O9    C5    A    
N4    C56   S    
C18   N1    S    
O11   V3    S    
O14   V2    S    
O6    V2    S    
C54   H16   S    
C53   H11   S    
C37   F5    S    
C12   C20   A    
C27   C35   A    
C29   C41   A    
O16   V4    S    
C3    O13   A    
C55   H19   S    
O6    C2    A    
C15   C19   A    
C2    C47   S    
C38   F6    S    
C30   C42   A    
O12   V4    S    
C6    C12   S    
C56   H22   S    
C22   C26   A    
C9    C17   A    
O10   C6    A    
O20   V2    S    
C5    C11   S    
C39   F7    S    
C47   C51   T    
C33   C34   A    
C42   H2    S    
C41   H1    S    
C15   F3    S    
C12   C24   A    
C27   C31   A    
C13   C17   A    
C19   N4    S    
C37   C41   A    
C24   C28   A    
C55   H20   S    
O12   C8    A    
C53   H12   S    
C4    O14   A    
N4    H21   S    
C22   H5    S    
O4    V2    S    
C28   C32   A    
