data_mof_unit_47630.cif
_audit_creation_date              2012-10-26T19:28:56-0400
_audit_creation_method            fapswitch 2.2
_symmetry_space_group_name_H-M    P1
_symmetry_Int_Tables_number       1
_space_group_crystal_system       triclinic
_cell_length_a                    9.413205
_cell_length_b                    10.728003
_cell_length_c                    17.342379
_cell_angle_alpha                 90.206425
_cell_angle_beta                  85.243069
_cell_angle_gamma                 89.96413
_cell_volume                      1745.27372847

loop_
_atom_site_label
_atom_site_type_symbol
_atom_type_description
_atom_site_fract_x
_atom_site_fract_y
_atom_site_fract_z
_atom_type_partial_charge
C1    C     C_R   0.500210 0.740228 0.500079 0.553225
C2    C     C_R   0.531759 0.497549 0.265923 0.013810
C3    C     C_3   0.434231 0.927683 0.427347 -0.233528
C4    C     C_R   0.480435 0.496166 0.649718 0.542244
C5    C     C_3   0.433698 0.071563 0.427510 -0.232811
C6    C     C_3   0.413548 0.928523 0.573404 -0.231111
C7    C     C_3   0.655766 0.928588 0.499620 -0.233039
C8    C     C_3   0.500926 0.878184 0.500113 0.053930
C9    C     C_3   0.500871 0.121831 0.500130 0.056396
C10   C     C_3   0.414070 0.072426 0.573593 -0.237253
C11   C     C_3   0.655791 0.071267 0.499272 -0.230813
C12   C     C_R   0.372490 0.414397 0.777620 0.012506
C13   C     C_3   0.924176 0.406456 0.442810 -0.104219
C14   C     C_3   0.091968 0.405064 0.442894 -0.104785
C15   C     C_3   0.921098 0.622401 0.476389 -0.106083
C16   C     C_R   0.500163 0.259777 0.500101 0.546115
C17   C     C_3   0.904518 0.468140 0.575612 -0.100433
C18   C     C_3   0.088305 0.620794 0.477194 -0.101395
C19   C     C_3   0.071706 0.465667 0.575746 -0.108198
C20   C     C_R   0.519522 0.499425 0.350178 0.548467
C21   C     C_R   0.467866 0.494871 0.734057 0.022048
C22   C     C_R   0.554272 0.577626 0.771934 -0.153550
C23   C     C_R   0.428279 0.449311 0.146702 -0.109208
C24   C     C_R   0.545591 0.583185 0.852113 -0.121665
C25   C     C_R   0.450211 0.505727 0.895416 0.021214
C26   C     C_R   0.364190 0.422556 0.858395 -0.095332
C27   C     C_3   0.286323 0.313312 0.741715 -0.278386
C28   C     C_3   0.126194 0.335410 0.758003 -0.445105
C29   C     C_R   0.420106 0.448604 0.226859 -0.138303
C30   C     C_R   0.653591 0.544819 0.223993 -0.138485
C31   C     C_R   0.660804 0.547540 0.143460 -0.120904
C32   C     C_R   0.546892 0.502465 0.104316 0.043955
C33   C     C_2   0.439234 0.508121 0.979839 -0.142055
C34   C     C_2   0.555482 0.510699 0.019425 -0.136861
Cu1   Cu    Cu3+1 0.357600 0.500140 0.499960 0.866373
Cu2   Cu    Cu3+1 0.642400 0.499860 0.500040 0.866398
H1    H     H_    0.627460 0.639453 0.739207 0.106383
H2    H     H_    0.721437 0.893783 0.447591 0.112250
H3    H     H_    0.720658 0.104702 0.446793 0.112185
H4    H     H_    0.326911 0.408588 0.258304 0.104991
H5    H     H_    0.707177 0.106000 0.550789 0.115326
H6    H     H_    0.459659 0.893619 0.626322 0.106368
H7    H     H_    0.461382 0.107122 0.626341 0.099142
H8    H     H_    0.894734 0.426463 0.383332 0.114809
H9    H     H_    0.882799 0.311729 0.457418 0.109978
H10   H     H_    0.127531 0.309569 0.456937 0.107805
H11   H     H_    0.139682 0.425433 0.383530 0.113140
H12   H     H_    0.754130 0.586849 0.111757 0.094966
H13   H     H_    0.891206 0.649689 0.418039 0.106832
H14   H     H_    0.138137 0.648459 0.419375 0.114631
H15   H     H_    0.862126 0.537855 0.619249 0.116927
H16   H     H_    0.741383 0.582214 0.253446 0.108619
H17   H     H_    0.860265 0.376091 0.594700 0.114946
H18   H     H_    0.106966 0.372042 0.593736 0.113376
H19   H     H_    0.103797 0.533689 0.619541 0.120876
H20   H     H_    0.877710 0.695572 0.517386 0.109451
H21   H     H_    0.118997 0.692876 0.518936 0.111176
H22   H     H_    0.660349 0.519233 0.988566 0.114868
H23   H     H_    0.322956 0.893129 0.426068 0.113732
H24   H     H_    0.293738 0.360732 0.892914 0.101728
H25   H     H_    0.341827 0.406977 0.118767 0.094538
H26   H     H_    0.333234 0.499997 0.008926 0.111459
H27   H     H_    0.611822 0.648976 0.880224 0.106314
H28   H     H_    0.092949 0.321537 0.820289 0.142228
H29   H     H_    0.097757 0.431615 0.741765 0.147508
H30   H     H_    0.066561 0.268104 0.724161 0.118456
H31   H     H_    0.311974 0.304573 0.678491 0.159066
H32   H     H_    0.313772 0.221797 0.766442 0.125395
H33   H     H_    0.495946 0.892780 0.374086 0.107901
H34   H     H_    0.494532 0.106373 0.374133 0.106985
H35   H     H_    0.322106 0.105636 0.426708 0.112960
H36   H     H_    0.301602 0.894588 0.575139 0.114821
H37   H     H_    0.302343 0.107220 0.575967 0.112731
H38   H     H_    0.706217 0.895110 0.551601 0.112045
N1    N     N_3   0.856560 0.499750 0.498270 -0.222136
N2    N     N_3   0.143860 0.496700 0.498910 -0.222594
O1    O     O_R   0.379740 0.682430 0.499960 -0.516099
O2    O     O_R   0.620260 0.682190 0.500020 -0.515909
O3    O     O_R   0.365800 0.500150 0.613560 -0.509659
O4    O     O_R   0.606310 0.499910 0.613620 -0.516474
O5    O     O_R   0.379740 0.317810 0.499980 -0.518394
O6    O     O_R   0.620260 0.317570 0.500040 -0.515672
O7    O     O_R   0.393690 0.500090 0.386380 -0.512191
O8    O     O_R   0.634200 0.499850 0.386440 -0.510945

loop_
_geom_bond_atom_site_label_1
_geom_bond_atom_site_label_2
_ccdc_geom_bond_type
C15   C18   S    
C15   N1    S    
C1    C8    S    
C1    O1    A    
Cu1   Cu2   S    
C17   H15   S    
Cu1   O5    S    
C7    C8    S    
C14   H10   S    
C7    C11   S    
C2    C29   A    
C23   C29   A    
C19   N2    S    
C3    H33   S    
C9    C16   S    
C4    O4    A    
C30   C31   A    
C10   H37   S    
C27   H32   S    
C13   N1    S    
Cu2   O6    S    
C33   H26   S    
C9    C10   S    
C13   C14   S    
C1    O2    A    
C7    H38   S    
Cu1   N2    S    
C12   C27   S    
C2    C20   S    
C24   C25   A    
C4    O3    A    
C3    C8    S    
Cu2   O4    S    
Cu1   O7    S    
C6    C8    S    
C25   C26   A    
C6    H36   S    
C22   H1    S    
C12   C21   A    
Cu1   O1    S    
C12   C26   A    
C14   N2    S    
C28   H30   S    
C5    C9    S    
C5    H34   S    
Cu2   N1    S    
C18   H21   S    
C31   C32   A    
C16   O6    A    
C33   C34   D    
C11   H3    S    
C9    C11   S    
C28   H28   S    
C19   H18   S    
C24   H27   S    
C31   H12   S    
C20   O8    A    
C22   C24   A    
C17   H17   S    
C18   H14   S    
C34   H22   S    
C19   H19   S    
C30   H16   S    
C18   N2    S    
C10   H7    S    
C3    C5    S    
C6    C10   S    
C14   H11   S    
C2    C30   A    
C15   H20   S    
C28   H29   S    
C5    H35   S    
Cu2   O2    S    
C23   C32   A    
C13   H9    S    
C4    C21   S    
Cu2   O8    S    
C29   H4    S    
Cu1   O3    S    
C16   O5    A    
C17   C19   S    
C7    H2    S    
C11   H5    S    
C15   H13   S    
C27   H31   S    
C23   H25   S    
C6    H6    S    
C20   O7    A    
C25   C33   S    
C27   C28   S    
C17   N1    S    
C21   C22   A    
C26   H24   S    
C13   H8    S    
C32   C34   S    
C3    H23   S    
