data_mof_unit_34104.cif
_audit_creation_date              2012-10-26T19:29:00-0400
_audit_creation_method            fapswitch 2.2
_symmetry_space_group_name_H-M    P1
_symmetry_Int_Tables_number       1
_space_group_crystal_system       triclinic
_cell_length_a                    9.415053
_cell_length_b                    10.731669
_cell_length_c                    17.307895
_cell_angle_alpha                 90.147605
_cell_angle_beta                  86.597436
_cell_angle_gamma                 89.859901
_cell_volume                      1745.68192961

loop_
_atom_site_label
_atom_site_type_symbol
_atom_type_description
_atom_site_fract_x
_atom_site_fract_y
_atom_site_fract_z
_atom_type_partial_charge
C1    C     C_R   0.500100 0.740060 0.500192 0.635798
C2    C     C_R   0.523594 0.509062 0.265652 0.025295
C3    C     C_3   0.429392 0.928046 0.427082 -0.049070
C4    C     C_R   0.482451 0.495473 0.649817 0.548563
C5    C     C_3   0.432193 0.072706 0.426824 -0.228739
C6    C     C_3   0.412384 0.928734 0.573135 -0.039853
C7    C     C_3   0.655613 0.928637 0.500606 -0.225198
C8    C     C_3   0.500558 0.878044 0.500271 0.112953
C9    C     C_3   0.500606 0.122026 0.500286 0.025024
C10   C     C_3   0.415024 0.073431 0.573404 -0.235375
C11   C     C_3   0.655226 0.071137 0.500722 -0.244862
C12   C     C_R   0.378116 0.410552 0.777210 0.004085
C13   C     C_3   0.917738 0.373371 0.481857 -0.115893
C14   C     C_3   0.085166 0.371188 0.483011 -0.132209
C15   C     C_3   0.923895 0.585433 0.439401 -0.110781
C16   C     C_R   0.500213 0.259857 0.500179 0.544628
C17   C     C_3   0.906833 0.539207 0.574295 -0.093282
C18   C     C_3   0.091418 0.579914 0.437657 -0.091205
C19   C     C_3   0.074605 0.537895 0.574961 0.110753
C20   C     C_R   0.517612 0.501686 0.350052 0.561289
C21   C     C_R   0.479211 0.484116 0.734142 -0.031673
C22   C     C_R   0.591913 0.539267 0.771197 -0.119684
C23   C     C_R   0.400633 0.503939 0.146867 -0.074551
C24   C     C_R   0.608326 0.520706 0.849558 0.102930
C25   C     C_R   0.506779 0.450282 0.893032 0.003902
C26   C     C_R   0.391769 0.397339 0.857013 -0.126543
C27   C     C_2   0.265279 0.339101 0.740221 0.200588
C28   C     C_2   0.516038 0.301269 0.006294 0.232893
C29   C     C_R   0.398015 0.493558 0.226726 -0.117134
C30   C     C_R   0.651774 0.536113 0.223484 -0.121102
C31   C     C_R   0.653989 0.546986 0.143223 -0.079678
C32   C     C_R   0.528661 0.529407 0.105175 0.073970
C33   C     C_2   0.518845 0.431770 0.976542 0.031443
C34   C     C_2   0.530937 0.533997 0.021195 -0.089498
Cu1   Cu    Cu3+1 0.357600 0.500140 0.499960 0.920633
Cu2   Cu    Cu3+1 0.642400 0.499860 0.500040 0.887443
H1    H     H_    0.670985 0.594351 0.738569 0.122248
H2    H     H_    0.719521 0.105019 0.448934 0.117618
H3    H     H_    0.297656 0.472899 0.257824 0.110341
H4    H     H_    0.706945 0.105218 0.552975 0.119025
H5    H     H_    0.462530 0.110189 0.626236 0.117812
H6    H     H_    0.885165 0.339888 0.424660 0.119015
H7    H     H_    0.874112 0.306034 0.525775 0.117815
H8    H     H_    0.116300 0.304115 0.527950 0.103287
H9    H     H_    0.131895 0.335238 0.426702 0.114087
H10   H     H_    0.889294 0.561242 0.381011 0.118893
H11   H     H_    0.131899 0.546455 0.379597 0.104360
H12   H     H_    0.753177 0.567028 0.110746 0.119992
H13   H     H_    0.862445 0.632775 0.589802 0.116448
H14   H     H_    0.749456 0.549683 0.252410 0.108056
H15   H     H_    0.864096 0.475001 0.620288 0.115425
H16   H     H_    0.102715 0.469474 0.619886 0.141087
H17   H     H_    0.887821 0.682727 0.451263 0.105629
H18   H     H_    0.134867 0.675327 0.443067 0.123071
H19   H     H_    0.534301 0.626182 0.995303 0.124598
H20   H     H_    0.314875 0.342429 0.891238 0.151984
H21   H     H_    0.303459 0.490573 0.117345 0.109575
H22   H     H_    0.432235 0.897435 0.309840 0.232088
H23   H     H_    0.315820 0.898174 0.430658 0.125815
H24   H     H_    0.594953 0.917580 0.342439 0.232328
H25   H     H_    0.387981 0.899281 0.690324 0.236044
H26   H     H_    0.558201 0.919060 0.658405 0.226647
H27   H     H_    0.081169 0.730967 0.568235 0.190207
H28   H     H_    0.099563 0.673313 0.656996 0.203280
H29   H     H_    0.274061 0.317531 0.678974 0.114725
H30   H     H_    0.494511 0.225274 0.967219 0.101407
H31   H     H_    0.821682 0.533095 0.854700 0.245705
H32   H     H_    0.731832 0.666412 0.876342 0.221844
H33   H     H_    0.492123 0.108913 0.374256 0.128542
H34   H     H_    0.321298 0.108394 0.425044 0.102892
H35   H     H_    0.299722 0.898864 0.569084 0.143668
H36   H     H_    0.303765 0.109096 0.574650 0.102671
H37   H     H_    0.709336 0.894296 0.551972 0.119412
H38   H     H_    0.721125 0.894162 0.449375 0.117569
N1    N     N_3   0.856560 0.499750 0.498270 -0.237076
N2    N     N_3   0.143860 0.496700 0.498910 -0.202506
N3    N     N_3   0.496319 0.875655 0.355292 -0.647282
N4    N     N_3   0.462584 0.877016 0.645176 -0.635316
N5    N     N_3   0.129077 0.659472 0.598375 -0.563310
N6    N     N_3   0.730913 0.569853 0.884287 -0.634449
O1    O     O_R   0.379740 0.682430 0.499960 -0.476540
O2    O     O_2   0.541308 0.276193 0.072854 -0.499323
O3    O     O_R   0.620260 0.682190 0.500020 -0.514893
O4    O     O_R   0.365800 0.500150 0.613560 -0.487295
O5    O     O_R   0.606310 0.499910 0.613620 -0.517402
O6    O     O_R   0.379740 0.317810 0.499980 -0.528097
O7    O     O_R   0.620260 0.317570 0.500040 -0.518059
O8    O     O_R   0.393690 0.500090 0.386380 -0.517015
O9    O     O_R   0.634200 0.499850 0.386440 -0.512132
O10   O     O_2   0.161353 0.300752 0.778471 -0.530373

loop_
_geom_bond_atom_site_label_1
_geom_bond_atom_site_label_2
_ccdc_geom_bond_type
Cu2   O9    S    
H32   N6    S    
C15   C18   S    
C15   N1    S    
C1    C8    S    
Cu1   Cu2   S    
C18   H11   S    
C17   H15   S    
Cu1   O1    S    
C7    C8    S    
C7    H37   S    
H27   N5    S    
C7    C11   S    
C2    C29   A    
C23   C29   A    
C19   N2    S    
C9    C16   S    
C30   C31   A    
Cu1   O6    S    
C6    N4    S    
Cu2   O3    S    
C1    O1    A    
C27   O10   D    
C5    H33   S    
H22   N3    S    
C19   H16   S    
C24   N6    S    
C13   N1    S    
C16   O7    A    
C7    H38   S    
C9    C10   S    
C30   H14   S    
C34   H19   S    
C13   C14   S    
C10   H5    S    
C16   O6    A    
C13   H6    S    
C14   H9    S    
Cu2   O7    S    
C6    H35   S    
Cu1   N2    S    
H24   N3    S    
C12   C27   S    
C2    C20   S    
C24   C25   A    
C3    C8    S    
C17   H13   S    
C6    C8    S    
C4    O5    A    
C25   C26   A    
C22   H1    S    
C28   O2    D    
C12   C21   A    
C12   C26   A    
C14   N2    S    
C11   H2    S    
C28   H30   S    
C5    C9    S    
C5    H34   S    
C27   H29   S    
Cu2   N1    S    
Cu1   O8    S    
C31   C32   A    
C4    O4    A    
H25   N4    S    
C29   H3    S    
C33   C34   D    
C19   N5    S    
C9    C11   S    
C28   C33   S    
C31   H12   S    
C10   H36   S    
H28   N5    S    
C22   C24   A    
C3    N3    S    
C15   H17   S    
C13   H7    S    
C14   H8    S    
C23   H21   S    
C18   N2    S    
H26   N4    S    
H31   N6    S    
C3    C5    S    
C26   H20   S    
C6    C10   S    
Cu1   O4    S    
Cu2   O5    S    
C1    O3    A    
C20   O9    A    
C2    C30   A    
C23   C32   A    
C4    C21   S    
C20   O8    A    
C17   C19   S    
C11   H4    S    
C18   H18   S    
C25   C33   S    
C17   N1    S    
C15   H10   S    
C21   C22   A    
C32   C34   S    
C3    H23   S    
