data_mof_unit_67452.cif
_audit_creation_date              2013-03-05T15:40:58-0500
_audit_creation_method            fapswitch 2.2
_symmetry_space_group_name_H-M    P1
_symmetry_Int_Tables_number       1
_space_group_crystal_system       triclinic
_cell_length_a                    10.828905
_cell_length_b                    8.88999
_cell_length_c                    7.767429
_cell_angle_alpha                 103.180354
_cell_angle_beta                  96.713381
_cell_angle_gamma                 95.67564
_cell_volume                      716.950487776

loop_
_atom_site_label
_atom_site_type_symbol
_atom_site_description
_atom_site_fract_x
_atom_site_fract_y
_atom_site_fract_z
_atom_type_partial_charge
O1    O     O_R   0.509140 0.286130 0.619770 -0.513359
O2    O     O_R   0.485380 0.256770 0.308360 -0.634967
C1    C     C_R   0.498033 0.201605 0.453762 0.807470
O3    O     O_R   0.329570 0.514650 0.655700 -0.529887
O4    O     O_R   0.305810 0.485300 0.344290 -0.531265
C2    C     C_R   0.260417 0.496816 0.498521 0.952554
Cu1   Cu    Cu3+1 0.514070 0.517380 0.684380 1.024698
Cu2   Cu    Cu3+1 0.485930 0.482620 0.315620 1.060250
O5    O     O_R   0.514620 0.743230 0.691640 -0.646342
O6    O     O_R   0.490860 0.713870 0.380230 -0.531651
O7    O     O_R   0.694190 0.514700 0.655710 -0.622917
O8    O     O_R   0.670430 0.485350 0.344300 -0.550146
C3    C     C_R   0.506095 0.799376 0.546042 0.737102
C4    C     C_R   0.739679 0.507918 0.503771 0.856847
C5    C     C_3   0.079006 0.446387 0.671259 0.839522
C6    C     C_3   0.940984 0.482005 0.683222 -0.543402
H1    H     H_    0.880266 0.385781 0.709526 0.240369
H2    H     H_    0.936313 0.582951 0.787490 0.172716
C7    C     C_3   0.093505 0.676924 0.500204 0.631262
C8    C     C_3   0.041724 0.388946 0.326442 0.718226
C9    C     C_3   0.121858 0.503900 0.500813 -0.248902
C10   C     C_3   0.879565 0.515729 0.511647 -0.222760
C11   C     C_3   0.946999 0.687952 0.512746 0.711453
C12   C     C_3   0.900667 0.371864 0.360004 0.065520
H3    H     H_    0.831953 0.355464 0.238575 0.129582
C13   C     C_2   0.492259 0.032948 0.427877 0.257754
C14   C     C_2   0.523938 0.969460 0.568544 0.110598
N1    N     N_2   0.464720 0.456420 0.038520 0.167975
N2    N     N_2   0.535280 0.543580 0.961480 0.104579
O9    O     O_3   0.160679 0.499755 0.839259 -0.539145
C15   C     C_3   0.190342 0.659396 0.923782 -0.129093
H4    H     H_    0.112682 0.729409 0.909037 0.149977
H5    H     H_    0.278393 0.709972 0.888516 0.218518
H6    H     H_    0.216578 0.667356 0.067112 0.250867
O10   O     O_3   0.126756 0.715833 0.341222 -0.557008
C16   C     C_3   0.145864 0.877967 0.350167 -0.154265
H7    H     H_    0.240627 0.929229 0.421002 0.186435
H8    H     H_    0.075424 0.943018 0.415843 0.196048
H9    H     H_    0.139287 0.895977 0.213165 0.154879
O11   O     O_3   0.895018 0.730819 0.356346 -0.618277
C17   C     C_3   0.825399 0.857032 0.376596 -0.249999
H10   H     H_    0.872539 0.960753 0.479295 0.226410
H11   H     H_    0.729720 0.820817 0.399319 0.170643
H12   H     H_    0.815255 0.889871 0.247065 0.143123
O12   O     O_3   0.435157 0.941807 0.262714 -0.606347
C18   C     C_3   0.522074 0.933274 0.140099 -0.318778
H13   H     H_    0.594297 0.861915 0.172496 0.199648
H14   H     H_    0.570552 0.047839 0.135657 0.152019
H15   H     H_    0.471636 0.877231 0.004908 0.207245
O13   O     O_3   0.581838 0.065192 0.730583 -0.759572
H16   H     H_    0.610007 0.001271 0.812760 0.310298
O14   O     O_3   0.365522 0.371683 0.925797 -0.434595
C19   C     C_3   0.349905 0.224234 0.961795 -0.020529
H17   H     H_    0.440568 0.177480 0.978525 0.165292
H18   H     H_    0.292988 0.141894 0.844228 0.107000
H19   H     H_    0.298894 0.227163 0.078113 0.171310
O15   O     O_3   0.645394 0.606326 0.060518 -0.645299
H20   H     H_    0.692883 0.652363 0.980119 0.316416
O16   O     O_3   0.080213 0.281368 0.625327 -0.517503
C20   C     C_3   0.046616 0.202996 0.755553 -0.192309
H21   H     H_    0.943914 0.177985 0.747529 0.151056
H22   H     H_    0.093041 0.259396 0.892478 0.222099
H23   H     H_    0.077958 0.088493 0.723664 0.151701
O17   O     O_3   0.175436 0.774941 0.645221 -0.813272
H24   H     H_    0.156825 0.882784 0.669051 0.327103
O18   O     O_3   0.948561 0.808211 0.674200 -0.647253
C21   C     C_3   0.838082 0.830012 0.752066 -0.399114
H25   H     H_    0.841097 0.783408 0.872441 0.169383
H26   H     H_    0.750685 0.785489 0.661781 0.172719
H27   H     H_    0.836210 0.956727 0.800843 0.174932
O19   O     O_3   0.065307 0.446552 0.176158 -0.557954
C22   C     C_3   0.961678 0.483339 0.075195 -0.282341
H28   H     H_    0.885040 0.529109 0.137526 0.202528
H29   H     H_    0.918138 0.379211 0.973790 0.132091
H30   H     H_    0.994409 0.588489 0.038795 0.227555
O20   O     O_3   0.085034 0.241905 0.298799 -0.712954
H31   H     H_    0.043237 0.178946 0.179950 0.299231
O21   O     O_3   0.869029 0.231764 0.410260 -0.717991
H32   H     H_    0.853356 0.146398 0.299868 0.304198

loop_
_geom_bond_atom_site_label_1
_geom_bond_atom_site_label_2
_geom_bond_distance
_ccdc_geom_bond_type
Cu1   N2    2.094003 S    
C17   H10   1.106075 S    
O10   C16   1.420270 S    
Cu1   Cu2   2.786811 S    
C19   H17   1.108619 S    
Cu1   O7    1.990716 S    
C18   H15   1.105767 S    
C13   C14   1.364534 D    
C20   H23   1.088917 S    
C11   O18   1.447770 S    
C16   H7    1.106614 S    
C7    C9    1.598964 S    
O3    Cu1   1.981372 S    
O9    C15   1.408533 S    
O7    C4    1.322286 A    
C11   O11   1.425323 S    
C8    O20   1.411243 S    
C20   H22   1.103280 S    
O5    C3    1.333709 A    
C13   O12   1.387825 S    
C8    C12   1.577824 S    
C6    H1    1.098037 S    
C15   H5    1.103981 S    
C8    O19   1.416534 S    
C14   O13   1.386732 S    
O18   C21   1.412885 S    
O16   C20   1.413597 S    
C17   H11   1.100458 S    
C22   H30   1.076018 S    
C19   H18   1.106327 S    
C18   H14   1.108419 S    
C21   H25   1.104151 S    
O20   H31   0.993438 S    
C22   H29   1.092684 S    
O21   H32   0.991829 S    
O12   C18   1.410485 S    
C2    C9    1.509985 S    
C16   H9    1.106964 S    
C20   H21   1.103975 S    
O1    C1    1.321286 A    
C7    C11   1.612029 S    
C15   H4    1.105114 S    
C7    O17   1.407503 S    
Cu2   O8    1.981370 S    
O13   H16   0.988714 S    
C15   H6    1.100593 S    
C12   H3    1.102859 S    
Cu2   O6    1.995643 S    
O11   C17   1.402354 S    
O8    C4    1.332913 A    
Cu2   N1    2.094003 S    
C17   H12   1.106357 S    
C10   C12   1.584012 S    
O3    C2    1.323232 A    
O14   C19   1.399784 S    
C5    O9    1.440487 S    
C19   H19   1.109471 S    
C12   O21   1.410527 S    
Cu1   O5    1.995098 S    
C18   H13   1.096521 S    
N1    N2    1.320440 D    
C6    C10   1.524053 S    
O1    Cu1   1.995643 S    
C5    O16   1.430316 S    
C1    C13   1.460636 S    
O2    Cu2   1.995099 S    
N2    O15   1.335314 S    
C22   H28   1.076844 S    
O6    C3    1.320171 A    
O4    Cu2   1.990716 S    
C21   H27   1.106627 S    
O17   H24   0.979821 S    
C4    C10   1.502931 S    
C16   H8    1.104633 S    
O2    C1    1.328350 A    
O19   C22   1.401803 S    
C7    O10   1.431207 S    
N1    O14   1.344344 S    
O15   H20   0.985879 S    
O4    C2    1.333773 A    
C5    C9    1.623247 S    
C8    C9    1.596998 S    
C6    H2    1.072823 S    
C10   C11   1.627544 S    
C3    C14   1.472402 S    
C21   H26   1.090095 S    
C5    C6    1.566986 S    
