data_mof_unit_43207.cif
_audit_creation_date              2012-12-10T20:36:34-0500
_audit_creation_method            fapswitch 2.2
_symmetry_space_group_name_H-M    P1
_symmetry_Int_Tables_number       1
_space_group_crystal_system       triclinic
_cell_length_a                    10.549694
_cell_length_b                    10.674515
_cell_length_c                    9.919127
_cell_angle_alpha                 90.429149
_cell_angle_beta                  89.682671
_cell_angle_gamma                 92.025848
_cell_volume                      1116.27631215

loop_
_atom_site_label
_atom_site_type_symbol
_atom_type_description
_atom_site_fract_x
_atom_site_fract_y
_atom_site_fract_z
_atom_type_partial_charge
C1    C     C_R   0.496493 0.260317 0.499811 0.878344
C2    C     C_3   0.963294 0.502700 0.372830 0.070440
C3    C     C_3   0.039157 0.394777 0.430138 -0.259486
C4    C     C_3   0.123610 0.494303 0.501559 -0.031786
C5    C     C_R   0.520398 0.065503 0.615158 0.127510
C6    C     C_R   0.480512 0.128391 0.502120 -0.106706
C7    C     C_R   0.417066 0.063541 0.397995 -0.269827
C8    C     C_R   0.413015 0.933200 0.397861 -0.018504
C9    C     C_R   0.474870 0.870838 0.502887 -0.143513
C10   C     C_R   0.517707 0.937817 0.615479 0.120916
C11   C     C_3   0.643312 0.934181 0.683699 -0.438258
C12   C     C_R   0.257839 0.496451 0.500513 0.889396
C13   C     C_3   0.646011 0.075862 0.683764 -0.487789
C14   C     C_R   0.412457 0.428738 0.070696 0.198398
C15   C     C_R   0.576362 0.581238 0.073374 -0.041805
C16   C     C_R   0.578623 0.580420 0.930109 0.407054
C17   C     C_R   0.411944 0.429221 0.928753 0.214203
C18   C     C_3   0.392346 0.290366 0.921990 -0.467257
C19   C     C_3   0.393332 0.289920 0.075160 -0.510581
C20   C     C_R   0.493832 0.739467 0.500299 0.873386
C21   C     C_R   0.742533 0.500479 0.499484 0.887600
C22   C     C_3   0.038688 0.489112 0.625747 0.494972
C23   C     C_3   0.951831 0.389830 0.556963 -0.272976
C24   C     C_3   0.877512 0.498437 0.498308 -0.118378
C25   C     C_3   0.964127 0.596194 0.569150 -0.073700
C26   C     C_3   0.050137 0.602367 0.442784 -0.302430
H1    H     H_    0.909299 0.304521 0.604979 0.153479
H2    H     H_    0.716504 0.894141 0.616851 0.207078
H3    H     H_    0.639534 0.117183 0.786556 0.206266
H4    H     H_    0.722069 0.118142 0.618649 0.198160
H5    H     H_    0.298570 0.262201 0.878659 0.224487
H6    H     H_    0.474353 0.243024 0.876391 0.208405
H7    H     H_    0.300102 0.261397 0.120186 0.203934
H8    H     H_    0.476259 0.242589 0.117593 0.219499
H9    H     H_    0.092959 0.688234 0.396055 0.168722
H10   H     H_    0.074247 0.313208 0.372643 0.153374
H11   H     H_    0.375388 0.113731 0.315630 0.161303
H12   H     H_    0.635703 0.894171 0.786561 0.249094
N1    N     N_R   0.499140 0.499140 0.142800 -0.169947
N2    N     N_R   0.499140 0.499180 0.857150 -0.176317
O1    O     O_R   0.500020 0.316790 0.614690 -0.623247
O2    O     O_R   0.500000 0.316760 0.385350 -0.624350
O3    O     O_R   0.313960 0.499990 0.614650 -0.569856
O4    O     O_R   0.313940 0.499950 0.385310 -0.622800
O5    O     O_R   0.500000 0.683240 0.614650 -0.636027
O6    O     O_R   0.499980 0.683210 0.385310 -0.618983
O7    O     O_R   0.686060 0.500050 0.614690 -0.640715
O8    O     O_R   0.686040 0.500010 0.385350 -0.621470
Zn1   Zn    Zn3+2 0.500010 0.500020 0.653130 0.967689
Zn2   Zn    Zn3+2 0.499990 0.499980 0.346870 0.956684
C27   C     C_1   0.657026 0.669708 0.146094 0.378125
N3    N     N_1   0.721822 0.741340 0.203779 -0.212948
O9    O     O_3   0.664838 0.661451 0.868798 -0.787430
H13   H     H_    0.655152 0.654029 0.771234 0.388749
O10   O     O_3   0.082887 0.482106 0.758111 -0.748176
H14   H     H_    0.005737 0.475648 0.815482 0.341746
C28   C     C_1   0.930398 0.704146 0.652314 0.202130
N4    N     N_1   0.906314 0.788992 0.719693 -0.179309
C29   C     C_1   0.926662 0.506081 0.230461 0.222473
N5    N     N_1   0.899003 0.507803 0.117794 -0.198279
C30   C     C_1   0.349490 0.867495 0.288104 0.193171
N6    N     N_1   0.298629 0.814865 0.200238 -0.193935

loop_
_geom_bond_atom_site_label_1
_geom_bond_atom_site_label_2
_ccdc_geom_bond_type
C11   H12   S    
C4    C26   S    
O10   H14   S    
C22   O10   S    
C15   C27   S    
C4    C12   S    
C4    C22   S    
C9    C10   A    
O6    Zn2   S    
C9    C20   S    
C5    C13   S    
C20   O5    A    
O5    Zn1   S    
C8    C30   S    
C23   C24   S    
C21   O8    A    
N1    Zn2   S    
O8    Zn2   S    
C17   C18   S    
C7    H11   S    
C29   N5    T    
O7    Zn1   S    
O9    H13   S    
C11   C13   S    
C14   C17   A    
C15   N1    A    
C28   N4    T    
C30   N6    T    
C25   C28   S    
C11   H2    S    
O2    Zn2   S    
C15   C16   A    
C3    H10   S    
C1    O1    A    
C16   N2    A    
C2    C3    S    
C12   O3    A    
C23   H1    S    
C5    C10   A    
C2    C24   S    
C5    C6    A    
C14   N1    A    
C20   O6    A    
C18   H6    S    
C10   C11   S    
C13   H3    S    
O4    Zn2   S    
C3    C4    S    
C13   H4    S    
C7    C8    A    
C1    O2    A    
C27   N3    T    
C24   C25   S    
C22   C25   S    
C2    C26   S    
C18   C19   S    
C19   H7    S    
C21   C24   S    
O1    Zn1   S    
C26   H9    S    
C16   O9    S    
C12   O4    A    
C18   H5    S    
C1    C6    S    
C25   C26   S    
C2    C29   S    
C3    C23   S    
C14   C19   S    
C17   N2    A    
C22   C23   S    
O3    Zn1   S    
C6    C7    A    
N2    Zn1   S    
C8    C9    A    
C21   O7    A    
C19   H8    S    
