data_mof_unit_57499.cif
_audit_creation_date              2012-12-10T19:59:29-0500
_audit_creation_method            fapswitch 2.2
_symmetry_space_group_name_H-M    P1
_symmetry_Int_Tables_number       1
_space_group_crystal_system       triclinic
_cell_length_a                    14.985528
_cell_length_b                    14.272879
_cell_length_c                    10.598807
_cell_angle_alpha                 90.232939
_cell_angle_beta                  91.186062
_cell_angle_gamma                 89.79252
_cell_volume                      2266.4244783

loop_
_atom_site_label
_atom_site_type_symbol
_atom_type_description
_atom_site_fract_x
_atom_site_fract_y
_atom_site_fract_z
_atom_type_partial_charge
C1    C     C_R   0.327771 0.500159 0.497790 0.998195
C2    C     C_R   0.536921 0.104612 0.600099 -0.255299
C3    C     C_R   0.459653 0.203266 0.402405 0.490524
C4    C     C_R   0.540368 0.203045 0.596965 0.474035
C5    C     C_R   0.500098 0.052658 0.498612 0.028260
C6    C     C_R   0.558402 0.894348 0.577678 -0.387302
C7    C     C_R   0.442676 0.893666 0.418078 -0.379440
C8    C     C_R   0.553810 0.795181 0.583450 0.603140
C9    C     C_R   0.446562 0.794576 0.415595 0.597092
C10   C     C_R   0.500388 0.945954 0.497858 0.071830
C11   C     C_R   0.499316 0.499965 0.260602 0.960786
C12   C     C_R   0.672112 0.499835 0.501231 0.990774
C13   C     C_R   0.499645 0.500030 0.739387 1.003725
C14   C     C_R   0.561160 0.549198 0.066457 -0.054449
C15   C     C_R   0.562246 0.547536 0.937894 -0.116470
C16   C     C_R   0.495073 0.501198 0.128708 -0.285032
C17   C     C_R   0.495646 0.500485 0.871070 -0.188019
C18   C     C_R   0.421641 0.462195 0.063361 0.429969
C19   C     C_R   0.423441 0.458737 0.931612 0.374542
C20   C     C_3   0.661441 0.532686 0.935991 0.308217
C21   C     C_3   0.660097 0.538397 0.079870 0.305925
C22   C     C_R   0.091788 0.565834 0.414022 0.440797
C23   C     C_R   0.186695 0.423046 0.539452 -0.378777
C24   C     C_R   0.911144 0.567523 0.548463 0.401797
C25   C     C_R   0.184762 0.572347 0.427096 0.297356
C26   C     C_R   0.817966 0.571088 0.554702 0.316691
C27   C     C_R   0.231515 0.499674 0.489305 -0.227838
C28   C     C_R   0.768081 0.498959 0.497274 -0.211954
C29   C     C_3   0.283127 0.487955 0.137702 -0.308145
C30   C     C_3   0.360474 0.321681 0.865158 -0.199002
C31   C     C_3   0.602245 0.782601 0.790672 -0.272259
C32   C     C_3   0.413768 0.762558 0.208518 -0.262450
C33   C     C_3   0.774275 0.433290 0.873981 -0.333664
C34   C     C_R   0.809151 0.425879 0.431914 -0.445603
C35   C     C_3   0.789273 0.609483 0.152245 -0.324012
C36   C     C_3   0.034065 0.606909 0.222897 -0.381323
C37   C     C_3   0.988192 0.615230 0.724808 -0.359206
C38   C     C_3   0.039284 0.355648 0.713105 -0.325209
C39   C     C_3   0.905901 0.341101 0.231018 -0.306753
C40   C     C_R   0.094516 0.419844 0.534807 0.529619
C41   C     C_R   0.901175 0.425090 0.417904 0.552713
C42   C     C_R   0.047486 0.491887 0.472871 -0.076836
C43   C     C_R   0.951427 0.494728 0.479478 -0.078364
C44   C     C_R   0.462996 0.104799 0.398071 -0.248238
H1    H     H_    0.607867 0.929971 0.635241 0.165569
H2    H     H_    0.306166 0.552020 0.188633 0.190529
H3    H     H_    0.228731 0.456650 0.192870 0.191324
H4    H     H_    0.342721 0.294218 0.959236 0.211655
H5    H     H_    0.428193 0.296609 0.839407 0.196678
H6    H     H_    0.312317 0.291969 0.795026 0.163441
H7    H     H_    0.533583 0.805841 0.815024 0.135882
H8    H     H_    0.650595 0.840887 0.802523 0.161876
H9    H     H_    0.621914 0.728339 0.859886 0.194101
H10   H     H_    0.380758 0.709682 0.146582 0.179096
H11   H     H_    0.486966 0.756851 0.193215 0.169346
H12   H     H_    0.393742 0.928252 0.358216 0.168215
H13   H     H_    0.388561 0.832501 0.178734 0.143301
H14   H     H_    0.811992 0.441976 0.964607 0.134021
H15   H     H_    0.797629 0.484036 0.802699 0.163744
H16   H     H_    0.788645 0.361943 0.837653 0.214505
H17   H     H_    0.825323 0.593614 0.064044 0.133735
H18   H     H_    0.801482 0.553901 0.223620 0.161643
H19   H     H_    0.817005 0.675578 0.191704 0.223318
H20   H     H_    0.995605 0.540708 0.213129 0.163921
H21   H     H_    0.100116 0.599319 0.177686 0.159617
H22   H     H_    0.996365 0.662174 0.171129 0.198898
H23   H     H_    0.696642 0.590839 0.888259 0.124252
H24   H     H_    0.043851 0.563758 0.724403 0.164148
H25   H     H_    0.931631 0.588397 0.780728 0.133089
H26   H     H_    0.013371 0.679176 0.773282 0.209694
H27   H     H_    0.189449 0.694337 0.343463 0.379368
H28   H     H_    0.817391 0.688843 0.650590 0.375135
H29   H     H_    0.986252 0.408445 0.730335 0.138634
H30   H     H_    0.102455 0.375344 0.763649 0.160532
H31   H     H_    0.016610 0.288506 0.753639 0.204047
H32   H     H_    0.888226 0.408450 0.183953 0.113090
H33   H     H_    0.846594 0.294938 0.235655 0.181190
H34   H     H_    0.679791 0.473240 0.131535 0.090201
H35   H     H_    0.955307 0.305154 0.170992 0.196003
H36   H     H_    0.388798 0.305513 0.340631 0.392968
H37   H     H_    0.611228 0.305036 0.659497 0.387807
H38   H     H_    0.223070 0.366366 0.585155 0.213602
H39   H     H_    0.769158 0.370632 0.389564 0.203904
H40   H     H_    0.434565 0.070408 0.315728 0.171963
H41   H     H_    0.565116 0.070165 0.682318 0.172559
H42   H     H_    0.254777 0.506671 0.043236 0.181133
N1    N     N_R   0.500000 0.252470 0.500000 -0.209022
N2    N     N_R   0.500000 0.747550 0.500000 -0.176731
O1    O     O_R   0.369060 0.579480 0.500010 -0.540311
O2    O     O_3   0.353509 0.420257 0.861616 -0.630823
O3    O     O_3   0.606385 0.744035 0.667800 -0.536131
O4    O     O_3   0.391677 0.743636 0.334704 -0.536003
O5    O     O_3   0.681692 0.441557 0.891714 -0.590927
O6    O     O_3   0.697327 0.622398 0.127914 -0.602067
O7    O     O_3   0.043409 0.634356 0.350433 -0.563414
O8    O     O_3   0.962299 0.639214 0.600373 -0.561007
O9    O     O_3   0.231383 0.646607 0.377587 -0.712405
O10   O     O_3   0.774175 0.641583 0.619017 -0.713097
O11   O     O_3   0.050958 0.342772 0.582546 -0.542288
O12   O     O_R   0.630940 0.579480 0.499990 -0.528836
O13   O     O_3   0.944679 0.354343 0.352353 -0.550839
O14   O     O_3   0.414321 0.247544 0.305740 -0.728263
O15   O     O_3   0.586094 0.247028 0.693775 -0.749167
O16   O     O_R   0.369050 0.420520 0.500010 -0.665451
O17   O     O_R   0.630950 0.420520 0.499990 -0.675929
O18   O     O_R   0.499990 0.579490 0.316780 -0.595487
O19   O     O_R   0.500010 0.579490 0.683220 -0.612046
O20   O     O_R   0.499980 0.420540 0.316780 -0.605073
O21   O     O_R   0.500020 0.420540 0.683220 -0.608683
O22   O     O_3   0.352544 0.421670 0.127942 -0.584117
Zn1   Zn    Zn3+2 0.500000 0.606140 0.500000 1.068285
Zn2   Zn    Zn3+2 0.500000 0.393860 0.500000 0.961756

loop_
_geom_bond_atom_site_label_1
_geom_bond_atom_site_label_2
_ccdc_geom_bond_type
C7    C10   A    
C20   O5    S    
C37   H24   S    
C33   H14   S    
C23   H38   S    
C37   H25   S    
C22   O7    S    
C20   H23   S    
C31   H8    S    
C13   O19   A    
C40   O11   S    
C4    N1    A    
H28   O10   S    
H27   O9    S    
C29   H3    S    
C39   H33   S    
C14   C21   S    
C30   H4    S    
C6    H1    S    
C24   C26   A    
C24   O8    S    
C9    N2    A    
H37   O15   S    
C12   O17   A    
C36   H22   S    
C21   O6    S    
C23   C40   A    
C4    O15   S    
C2    H41   S    
C15   C17   A    
C18   C19   A    
C13   O21   A    
N2    Zn1   S    
C22   C25   A    
C21   H34   S    
C22   C42   A    
C23   C27   A    
C32   H11   S    
C30   O2    S    
O18   Zn1   S    
C40   C42   A    
C30   H6    S    
C28   C34   A    
C33   H15   S    
C37   H26   S    
C41   C43   A    
C34   C41   A    
C32   H13   S    
C9    O4    S    
C32   H10   S    
C39   O13   S    
C38   H31   S    
C15   C20   S    
C3    C44   A    
C3    N1    A    
C29   O22   S    
O21   Zn2   S    
O16   Zn2   S    
C36   H21   S    
C6    C8    A    
N1    Zn2   S    
O20   Zn2   S    
C37   O8    S    
H36   O14   S    
C8    N2    A    
C39   H35   S    
C2    C4    A    
C11   C16   S    
C11   O18   A    
C35   H17   S    
C8    O3    S    
C39   H32   S    
C31   H9    S    
C1    O16   A    
C29   H42   S    
C26   O10   S    
C3    O14   S    
C25   O9    S    
C5    C44   A    
C12   C28   S    
C33   H16   S    
C31   O3    S    
C14   C16   A    
C2    C5    A    
C34   H39   S    
C30   H5    S    
C38   H30   S    
C35   O6    S    
C7    C9    A    
C1    O1    A    
O19   Zn1   S    
O17   Zn2   S    
C18   O22   S    
C31   H7    S    
C38   O11   S    
C44   H40   S    
C33   O5    S    
C6    C10   A    
C25   C27   A    
O1    Zn1   S    
C26   C28   A    
C13   C17   S    
C29   H2    S    
C5    C10   S    
C19   O2    S    
C36   O7    S    
C32   O4    S    
C17   C19   A    
C41   O13   S    
C35   H18   S    
C7    H12   S    
C12   O12   A    
C20   C21   S    
O12   Zn1   S    
C16   C18   A    
C42   C43   S    
C11   O20   A    
C1    C27   S    
C24   C43   A    
C14   C15   A    
C35   H19   S    
C36   H20   S    
C38   H29   S    
