data_mof_unit_23631.cif
_audit_creation_date              2012-12-10T16:59:16-0500
_audit_creation_method            fapswitch 2.2
_symmetry_space_group_name_H-M    P1
_symmetry_Int_Tables_number       1
_space_group_crystal_system       triclinic
_cell_length_a                    7.804949
_cell_length_b                    8.548916
_cell_length_c                    27.772312
_cell_angle_alpha                 92.347754
_cell_angle_beta                  85.503648
_cell_angle_gamma                 93.618537
_cell_volume                      1842.48109434

loop_
_atom_site_label
_atom_site_type_symbol
_atom_type_description
_atom_site_fract_x
_atom_site_fract_y
_atom_site_fract_z
_atom_type_partial_charge
C1    C     C_R   0.545538 0.794539 0.498834 0.929978
C2    C     C_R   0.454461 0.205461 0.501166 0.929978
C3    C     C_R   0.502284 0.486693 0.898105 -0.049924
C4    C     C_R   0.497707 0.513310 0.101895 -0.049925
C5    C     C_R   0.541334 0.623308 0.871765 -0.032558
C6    C     C_R   0.458656 0.376694 0.128235 -0.032558
C7    C     C_R   0.579763 0.765581 0.895990 -0.140262
C8    C     C_R   0.420226 0.234422 0.104010 -0.140262
C9    C     C_R   0.464143 0.343474 0.873154 -0.030842
C10   C     C_R   0.535849 0.656529 0.126846 -0.030842
C11   C     C_R   0.500983 0.481721 0.646510 -0.311451
C12   C     C_R   0.499016 0.518279 0.353490 -0.311450
C13   C     C_R   0.539111 0.645814 0.024824 0.047225
C14   C     C_R   0.460878 0.354189 0.975176 0.047225
C15   C     C_R   0.459637 0.360898 0.026303 0.047030
C16   C     C_R   0.540353 0.639104 0.973698 0.047030
C17   C     C_R   0.498798 0.506655 0.050770 0.074760
C18   C     C_R   0.501192 0.493348 0.949230 0.074760
C19   C     C_R   0.576978 0.787501 0.051212 -0.224750
C20   C     C_R   0.423012 0.212501 0.948789 -0.224750
C21   C     C_R   0.575092 0.792350 0.101149 -0.141440
C22   C     C_R   0.424900 0.207652 0.898851 -0.141441
C23   C     C_R   0.500674 0.495772 0.593894 0.912944
C24   C     C_R   0.499326 0.504228 0.406106 0.912942
C25   C     C_R   0.579645 0.773689 0.945873 -0.224513
C26   C     C_R   0.420344 0.226313 0.054127 -0.224514
C27   C     C_2   0.569569 0.958065 0.498350 -0.379126
C28   C     C_2   0.430430 0.041935 0.501650 -0.379126
C29   C     C_R   0.540673 0.614448 0.821424 0.530751
C30   C     C_R   0.459319 0.385555 0.178576 0.530750
C31   C     C_R   0.466151 0.339568 0.822711 0.528035
C32   C     C_R   0.533842 0.660434 0.177289 0.528035
C33   C     C_R   0.348169 0.444933 0.725240 -0.191763
C34   C     C_R   0.651828 0.555064 0.274760 -0.191764
C35   C     C_R   0.345682 0.447598 0.675147 0.418482
C36   C     C_R   0.654317 0.552398 0.324852 0.418482
C37   C     C_R   0.657318 0.499431 0.668868 0.552476
C38   C     C_R   0.342680 0.500574 0.331132 0.552473
C39   C     C_R   0.657975 0.492802 0.718660 -0.180895
C40   C     C_R   0.342021 0.507204 0.281341 -0.180896
C41   C     C_R   0.503547 0.468513 0.746836 0.152823
C42   C     C_R   0.496449 0.531489 0.253164 0.152825
H1    H     H_    0.778492 0.509528 0.735605 0.183975
H2    H     H_    0.221503 0.490481 0.264395 0.183975
H3    H     H_    0.610767 0.872065 0.876435 0.193501
H4    H     H_    0.389223 0.127937 0.123565 0.193501
H5    H     H_    0.771197 0.574275 0.252565 0.175783
H6    H     H_    0.228800 0.425719 0.747434 0.175784
H7    H     H_    0.605269 0.903731 0.119561 0.193325
H8    H     H_    0.394723 0.096271 0.880439 0.193325
H9    H     H_    0.609264 0.898092 0.034700 0.140538
H10   H     H_    0.390726 0.101910 0.965300 0.140538
H11   H     H_    0.611500 0.888359 0.961170 0.140671
H12   H     H_    0.388488 0.111644 0.038830 0.140671
H13   H     H_    0.701152 0.008832 0.495428 0.190904
H14   H     H_    0.298847 0.991168 0.504572 0.190904
N1    N     N_R   0.503842 0.473981 0.798147 -0.331744
N2    N     N_R   0.496152 0.526021 0.201853 -0.331744
N3    N     N_2   0.950320 0.457960 0.486880 0.197077
N4    N     N_2   0.049680 0.542040 0.513120 0.197077
O1    O     O_R   0.389250 0.738570 0.503220 -0.643277
O2    O     O_R   0.610750 0.261430 0.496780 -0.643277
O3    O     O_R   0.678390 0.711630 0.494810 -0.579009
O4    O     O_R   0.321610 0.288370 0.505190 -0.579008
O5    O     O_R   0.355440 0.513440 0.575450 -0.626171
O6    O     O_R   0.644560 0.486560 0.424550 -0.626172
O7    O     O_R   0.644590 0.486500 0.567040 -0.541474
O8    O     O_R   0.355410 0.513500 0.432960 -0.541474
O9    O     O_2   0.575157 0.745187 0.795838 -0.533894
O10   O     O_2   0.424835 0.254815 0.204162 -0.533894
O11   O     O_2   0.568248 0.797206 0.201701 -0.540318
O12   O     O_2   0.431747 0.202796 0.798299 -0.540318
Zn1   Zn    Zn3+2 0.306940 0.517990 0.505620 1.057039
Zn2   Zn    Zn3+2 0.693060 0.482010 0.494380 1.057039
F1    F     F_    0.809780 0.525887 0.642970 -0.657582
F2    F     F_    0.190218 0.474122 0.357031 -0.657583
O13   O     O_3   0.026790 0.331514 0.466786 -0.533994
C43   C     C_3   0.944975 0.282389 0.425116 -0.033618
H15   H     H_    0.924207 0.382090 0.402491 0.249194
H16   H     H_    0.823755 0.212541 0.434003 0.128331
H17   H     H_    0.030623 0.204186 0.402964 0.150134
O14   O     O_3   0.973210 0.668486 0.533214 -0.533994
C44   C     C_3   0.055025 0.717611 0.574884 -0.033617
H18   H     H_    0.176245 0.787458 0.565997 0.128330
H19   H     H_    0.075793 0.617909 0.597509 0.249192
H20   H     H_    0.969377 0.795813 0.597036 0.150136
O15   O     O_3   0.810445 0.575740 0.345089 -0.570862
C45   C     C_3   0.845002 0.738259 0.352918 -0.192833
H21   H     H_    0.743048 0.790282 0.377771 0.129417
H22   H     H_    0.860147 0.800097 0.318202 0.160074
H23   H     H_    0.968208 0.756901 0.370320 0.207842
O16   O     O_3   0.189555 0.424252 0.654910 -0.570860
C46   C     C_3   0.155003 0.261731 0.647082 -0.192834
H24   H     H_    0.139851 0.199896 0.681797 0.160077
H25   H     H_    0.256964 0.209708 0.622231 0.129414
H26   H     H_    0.031802 0.243085 0.629678 0.207836

loop_
_geom_bond_atom_site_label_1
_geom_bond_atom_site_label_2
_ccdc_geom_bond_type
O15   C45   S    
C46   H24   S    
C8    C26   A    
C14   C18   A    
C34   C42   A    
C32   N2    A    
C42   N2    S    
C21   H7    S    
C28   H14   S    
C39   C41   A    
C38   F2    S    
O13   C43   S    
C36   O15   S    
C7    H3    S    
C19   C21   A    
C25   H11   S    
C43   H16   S    
C9    C22   A    
O6    Zn2   S    
C26   H12   S    
N4    Zn1   S    
O5    Zn1   S    
C3    C18   A    
C23   O7    A    
C11   C37   A    
N4    O14   S    
O4    Zn1   S    
C12   C36   A    
C5    C29   A    
C24   O6    A    
C22   H8    S    
C35   O16   S    
C40   C42   A    
C37   F1    S    
N3    N4    D    
C46   H25   S    
N3    O13   S    
C1    O3    A    
C30   O10   S    
C2    O4    A    
C32   O11   S    
C29   O9    S    
C10   C21   A    
C13   C19   A    
C14   C20   A    
C4    C6    A    
C5    C7    A    
C9    C31   A    
C43   H15   S    
C15   C26   A    
C39   H1    S    
O1    Zn1   S    
O8    Zn1   S    
C3    C9    A    
C19   H9    S    
C44   H18   S    
C45   H23   S    
O7    Zn2   S    
N3    Zn2   S    
C4    C17   A    
C16   C18   A    
C31   O12   S    
C44   H19   S    
C20   C22   A    
C46   H26   S    
C4    C10   A    
C29   N1    A    
C16   C25   A    
C15   C17   A    
C6    C30   A    
C45   H22   S    
C3    C5    A    
C1    O1    A    
C6    C8    A    
O3    Zn2   S    
C12   C24   S    
C27   H13   S    
C7    C25   A    
C13   C17   A    
C33   C41   A    
C23   O5    A    
C11   C35   A    
C41   N1    S    
C20   H10   S    
C38   C40   A    
C43   H17   S    
C31   N1    A    
C30   N2    A    
C11   C23   S    
O16   C46   S    
C33   C35   A    
C34   C36   A    
C12   C38   A    
C8    H4    S    
C24   O8    A    
C10   C32   A    
C40   H2    S    
C44   H20   S    
C45   H21   S    
C37   C39   A    
O14   C44   S    
C13   C16   A    
C27   C28   D    
C1    C27   S    
C33   H6    S    
C14   C15   A    
O2    Zn2   S    
C2    C28   S    
C34   H5    S    
C2    O2    A    
