data_mof_unit_23110.cif
_audit_creation_date              2012-12-11T15:56:44-0500
_audit_creation_method            fapswitch 2.2
_symmetry_space_group_name_H-M    P1
_symmetry_Int_Tables_number       1
_space_group_crystal_system       triclinic
_cell_length_a                    14.749054
_cell_length_b                    7.232779
_cell_length_c                    13.609965
_cell_angle_alpha                 90.001106
_cell_angle_beta                  100.423494
_cell_angle_gamma                 89.999826
_cell_volume                      1427.90584279

loop_
_atom_site_label
_atom_site_type_symbol
_atom_type_description
_atom_site_fract_x
_atom_site_fract_y
_atom_site_fract_z
_atom_type_partial_charge
O1    O     O_R   0.336930 0.638190 0.166330 -0.528785
O2    O     O_R   0.663070 0.361810 0.833670 -0.525182
O3    O     O_R   0.163070 0.138190 0.333670 -0.528790
O4    O     O_R   0.836930 0.861810 0.666330 -0.525173
O5    O     O_R   0.147900 0.305430 0.139630 -0.538285
O6    O     O_R   0.852100 0.694570 0.860370 -0.533612
O7    O     O_R   0.352100 0.805430 0.360370 -0.538275
O8    O     O_R   0.647900 0.194570 0.639630 -0.533610
C1    C     C_R   0.115286 0.477502 0.113280 0.737789
C2    C     C_R   0.884759 0.522505 0.886663 0.708926
C3    C     C_R   0.384714 0.977504 0.386720 0.737875
C4    C     C_R   0.615242 0.022504 0.613337 0.708913
O9    O     O_R   0.335280 0.308290 0.154310 -0.544191
O10   O     O_R   0.664720 0.691710 0.845690 -0.538321
O11   O     O_R   0.164720 0.808290 0.345690 -0.544209
O12   O     O_R   0.835280 0.191710 0.654310 -0.538314
O13   O     O_R   0.351790 0.140890 0.348460 -0.526487
O14   O     O_R   0.648210 0.859110 0.651540 -0.535320
O15   O     O_R   0.148210 0.640890 0.151540 -0.526503
O16   O     O_R   0.851790 0.359110 0.848460 -0.535314
C5    C     C_R   0.362243 0.478326 0.131143 0.693158
C6    C     C_R   0.636855 0.521489 0.867806 0.682256
C7    C     C_R   0.137763 0.978329 0.368864 0.693163
C8    C     C_R   0.863146 0.021486 0.632195 0.682254
O17   O     O_3   0.255200 0.472570 0.313680 -0.381705
O18   O     O_3   0.744800 0.527430 0.686320 -0.355952
O19   O     O_3   0.244800 0.972570 0.186320 -0.381689
O20   O     O_3   0.755200 0.027430 0.813680 -0.355957
V1    V     V_3+5 0.249040 0.196590 0.238190 1.498978
V2    V     V_3+5 0.750960 0.803410 0.761810 1.530940
V3    V     V_3+5 0.250960 0.696590 0.261810 1.498964
V4    V     V_3+5 0.749040 0.303410 0.738190 1.530946
C9    C     C_R   0.043254 0.834097 0.484866 -0.163641
C10   C     C_R   0.959373 0.165208 0.518103 -0.209555
C11   C     C_R   0.456802 0.334075 0.015197 -0.163778
C12   C     C_R   0.540605 0.665224 0.981875 -0.209549
H1    H     H_    0.075737 0.706080 0.474172 0.162828
H2    H     H_    0.927995 0.294501 0.529881 0.183282
H3    H     H_    0.424361 0.206034 0.025937 0.162871
H4    H     H_    0.571958 0.794525 0.970072 0.183212
C13   C     C_R   0.975782 0.837107 0.545262 0.029247
C14   C     C_R   0.029596 0.162114 0.461118 0.028690
C15   C     C_R   0.524262 0.337099 0.954788 0.029246
C16   C     C_R   0.470389 0.662119 0.038869 0.028752
C17   C     C_R   0.932026 0.005940 0.563189 -0.129686
C18   C     C_R   0.069996 0.992821 0.439326 -0.127974
C19   C     C_R   0.567980 0.505949 0.936818 -0.129646
C20   C     C_R   0.430021 0.492813 0.060694 -0.127973
C21   C     C_1   0.533920 0.008303 0.533237 -0.145760
C22   C     C_1   0.465995 0.991710 0.466875 -0.146428
C23   C     C_1   0.966081 0.508305 0.966763 -0.145770
C24   C     C_1   0.034005 0.491709 0.033125 -0.146416
C25   C     C_2   0.952770 0.658785 0.586038 0.751870
O21   O     O_2   0.876347 0.592177 0.557868 -0.545273
O22   O     O_R   0.018499 0.566761 0.655895 -0.664169
H5    H     H_    0.993487 0.449858 0.682184 0.281390
C26   C     C_2   0.067995 0.339671 0.437822 0.768740
O23   O     O_2   0.025829 0.437742 0.371870 -0.567512
O24   O     O_R   0.155734 0.388276 0.489103 -0.650980
H6    H     H_    0.181315 0.504006 0.462819 0.300738
C27   C     C_2   0.547286 0.158782 0.914015 0.751832
O25   O     O_2   0.623711 0.092177 0.942196 -0.545284
O26   O     O_R   0.481569 0.066784 0.844120 -0.664131
H7    H     H_    0.506583 0.949894 0.817805 0.281379
C28   C     C_2   0.431979 0.839664 0.062167 0.768728
O27   O     O_2   0.474074 0.937614 0.128218 -0.567505
O28   O     O_R   0.344288 0.888356 0.010800 -0.650996
H8    H     H_    0.318675 0.004033 0.037109 0.300731

loop_
_geom_bond_atom_site_label_1
_geom_bond_atom_site_label_2
_ccdc_geom_bond_type
O2    C6    A    
C11   H3    S    
O22   H5    S    
C23   C24   T    
O1    C5    A    
O14   V2    S    
O19   V1    S    
C11   C15   A    
O3    C7    A    
C10   C14   A    
O1    V3    S    
O8    C4    A    
C5    C20   S    
C9    C13   A    
O10   C6    A    
O11   V3    S    
O20   V2    S    
C4    C21   S    
C16   C28   S    
O15   V3    S    
O24   H6    S    
O12   C8    A    
C10   C17   A    
C25   O21   D    
O18   V4    S    
C9    C18   A    
C13   C25   S    
C26   O23   D    
C1    C24   S    
C2    O16   A    
O10   V2    S    
C11   C20   A    
C14   C26   S    
O11   C7    A    
O6    V2    S    
C8    C17   S    
C6    C19   S    
O5    V1    S    
C25   O22   S    
O16   V4    S    
C27   O25   D    
O4    C8    A    
C21   C22   T    
O4    V2    S    
C12   C16   A    
C26   O24   S    
O6    C2    A    
C2    C23   S    
O9    C5    A    
O28   H8    S    
O8    V4    S    
O13   V1    S    
C12   H4    S    
O3    V1    S    
O7    V3    S    
C15   C27   S    
C12   C19   A    
O2    V4    S    
C28   O27   D    
C14   C18   A    
C4    O14   A    
C7    C18   S    
C3    C22   S    
O12   V4    S    
C3    O13   A    
O7    C3    A    
C13   C17   A    
C10   H2    S    
C15   C19   A    
O17   V3    S    
C1    O15   A    
C27   O26   S    
C9    H1    S    
C16   C20   A    
O9    V1    S    
O5    C1    A    
O26   H7    S    
C28   O28   S    
