data_mof_unit_59931.cif
_audit_creation_date              2012-12-11T14:43:35-0500
_audit_creation_method            fapswitch 2.2
_symmetry_space_group_name_H-M    P1
_symmetry_Int_Tables_number       1
_space_group_crystal_system       triclinic
_cell_length_a                    20.921708
_cell_length_b                    7.097783
_cell_length_c                    16.385123
_cell_angle_alpha                 90.003619
_cell_angle_beta                  92.494398
_cell_angle_gamma                 89.991941
_cell_volume                      2430.84830445

loop_
_atom_site_label
_atom_site_type_symbol
_atom_type_description
_atom_site_fract_x
_atom_site_fract_y
_atom_site_fract_z
_atom_type_partial_charge
O1    O     O_R   0.564840 0.505290 0.579830 -0.536998
O2    O     O_R   0.435160 0.005290 0.420170 -0.536983
O3    O     O_R   0.556720 0.179930 0.409350 -0.546284
O4    O     O_R   0.443280 0.679930 0.590650 -0.546280
C1    C     C_R   0.570234 0.344625 0.380960 0.739177
C2    C     C_R   0.429772 0.844657 0.619041 0.739387
O5    O     O_R   0.572280 0.175810 0.578530 -0.545165
O6    O     O_R   0.427720 0.675810 0.421470 -0.545138
O7    O     O_R   0.450830 0.001920 0.590540 -0.526972
O8    O     O_R   0.549170 0.501920 0.409460 -0.526853
C3    C     C_R   0.589926 0.342930 0.604996 0.699702
C4    C     C_R   0.410075 0.842944 0.395004 0.699889
O9    O     O_3   0.460130 0.338030 0.503750 -0.371766
O10   O     O_3   0.539870 0.838030 0.496250 -0.371727
V1    V     V_3+5 0.507400 0.064560 0.499310 1.434162
V2    V     V_3+5 0.492600 0.564560 0.500690 1.434165
C5    C     C_R   0.146311 0.922823 0.164767 -0.111843
C6    C     C_R   0.853677 0.422865 0.835241 -0.111913
C7    C     C_R   0.356642 0.839870 0.332007 -0.061055
C8    C     C_R   0.643371 0.339809 0.667976 -0.061014
C9    C     C_R   0.295700 0.659340 0.228280 -0.168757
C10   C     C_R   0.704422 0.159072 0.771539 -0.168942
C11   C     C_R   0.348806 0.679469 0.281990 -0.191953
C12   C     C_R   0.651296 0.179234 0.717868 -0.191895
C13   C     C_R   0.310434 0.983293 0.325528 -0.226961
C14   C     C_R   0.689505 0.483384 0.674561 -0.227135
C15   C     C_R   0.256113 0.963020 0.271842 0.103764
C16   C     C_R   0.743842 0.463095 0.728220 0.103800
C17   C     C_R   0.248183 0.799127 0.222849 0.161554
C18   C     C_R   0.751868 0.299015 0.777070 0.161628
C19   C     C_R   0.193293 0.778107 0.169467 0.109547
C20   C     C_R   0.806780 0.277956 0.830408 0.109531
C21   C     C_R   0.155297 0.083206 0.214822 -0.185041
C22   C     C_R   0.844597 0.583434 0.785322 -0.184863
C23   C     C_R   0.209162 0.103087 0.267356 -0.191882
C24   C     C_R   0.790717 0.603329 0.732815 -0.191969
H1    H     H_    0.120392 0.196066 0.212972 0.133374
H2    H     H_    0.879441 0.696429 0.787252 0.133406
H3    H     H_    0.291835 0.532167 0.191883 0.162753
H4    H     H_    0.708358 0.031759 0.807831 0.162751
H5    H     H_    0.214179 0.229241 0.304362 0.129307
H6    H     H_    0.785629 0.729626 0.695917 0.129350
H7    H     H_    0.383743 0.566712 0.285099 0.129601
H8    H     H_    0.616416 0.066356 0.714687 0.129636
H9    H     H_    0.315499 0.106839 0.364185 0.129367
H10   H     H_    0.684371 0.607076 0.636008 0.129332
C25   C     C_R   0.376792 0.817802 0.834431 -0.157782
C26   C     C_R   0.623295 0.315669 0.165653 -0.157853
H11   H     H_    0.464699 0.776728 0.774937 0.116222
H12   H     H_    0.535423 0.274571 0.225212 0.116296
H13   H     H_    0.298625 0.851290 0.955790 0.129298
H14   H     H_    0.701468 0.348095 0.044254 0.129302
H15   H     H_    0.399331 0.793657 0.894345 0.122246
H16   H     H_    0.600805 0.290483 0.105794 0.122254
C27   C     C_R   0.387864 0.851322 0.689148 -0.029261
C28   C     C_R   0.612133 0.351117 0.310839 -0.029305
C29   C     C_R   0.076439 0.896246 0.732191 -0.161625
C30   C     C_R   0.923533 0.397796 0.267849 -0.161670
C31   C     C_R   0.110011 0.868479 0.661939 -0.120577
C32   C     C_R   0.889965 0.370731 0.338153 -0.120538
C33   C     C_R   0.176562 0.858018 0.666099 -0.173985
C34   C     C_R   0.823424 0.359717 0.333985 -0.174000
C35   C     C_R   0.212055 0.883665 0.740669 0.077699
C36   C     C_R   0.787930 0.384056 0.259331 0.077685
C37   C     C_R   0.176803 0.898189 0.813500 0.074797
C38   C     C_R   0.823194 0.397807 0.186484 0.074807
C39   C     C_R   0.280949 0.877947 0.746448 0.026064
C40   C     C_R   0.719041 0.377794 0.253529 0.026020
C41   C     C_R   0.310967 0.853181 0.825457 0.112175
C42   C     C_R   0.689078 0.351701 0.174570 0.112195
C43   C     C_R   0.275377 0.864244 0.895606 -0.182042
C44   C     C_R   0.724682 0.362051 0.104415 -0.182088
C45   C     C_R   0.209780 0.893398 0.889868 -0.190461
C46   C     C_R   0.790249 0.391757 0.110114 -0.190355
C47   C     C_R   0.322098 0.894987 0.678491 0.135994
C48   C     C_R   0.677847 0.395489 0.321414 0.135921
C49   C     C_R   0.414236 0.809428 0.766618 -0.234171
C50   C     C_R   0.585840 0.307896 0.233467 -0.234022
C51   C     C_R   0.108820 0.907961 0.808380 -0.077699
C52   C     C_R   0.891166 0.408181 0.191615 -0.077692
H17   H     H_    0.024629 0.901331 0.727505 0.098757
H18   H     H_    0.975336 0.403435 0.272554 0.098774
H19   H     H_    0.198653 0.818993 0.610668 0.121442
H20   H     H_    0.801352 0.321331 0.389505 0.121402
H21   H     H_    0.084125 0.850112 0.603819 0.118158
H22   H     H_    0.915849 0.353403 0.396335 0.118155
H23   H     H_    0.184669 0.903615 0.946092 0.104195
H24   H     H_    0.815370 0.401395 0.053881 0.104086
O11   O     O_R   0.950790 0.256670 0.090520 -0.533867
O12   O     O_R   0.049210 0.756670 0.909480 -0.533843
O13   O     O_R   0.927720 0.590370 0.921470 -0.539486
O14   O     O_R   0.072280 0.090370 0.078530 -0.539493
C53   C     C_R   0.909326 0.422251 0.895834 0.691912
C54   C     C_R   0.090673 0.922240 0.104163 0.691886
O15   O     O_R   0.943270 0.586180 0.090640 -0.535452
O16   O     O_R   0.056730 0.086180 0.909360 -0.535482
O17   O     O_R   0.064850 0.759970 0.079840 -0.541213
O18   O     O_R   0.935150 0.259970 0.920160 -0.541238
C55   C     C_R   0.930404 0.417680 0.118953 0.679429
C56   C     C_R   0.069590 0.917647 0.881045 0.679382
O19   O     O_3   0.039850 0.428050 0.996240 -0.370337
O20   O     O_3   0.960150 0.928050 0.003760 -0.370345
V3    V     V_3+5 0.992610 0.701540 0.000700 1.411489
V4    V     V_3+5 0.007390 0.201540 0.999300 1.411396
N1    N     N_3   0.187297 0.612682 0.119292 -0.684536
H25   H     H_    0.146878 0.537434 0.135617 0.248179
H26   H     H_    0.182131 0.653288 0.058050 0.235037
N2    N     N_3   0.812897 0.112232 0.880373 -0.684556
H27   H     H_    0.853365 0.037310 0.863941 0.248051
H28   H     H_    0.818038 0.152442 0.941669 0.235121
N3    N     N_3   0.301928 0.981116 0.602309 -0.691805
H29   H     H_    0.265096 0.078139 0.609846 0.241805
H30   H     H_    0.289632 0.877130 0.559304 0.211556
N4    N     N_3   0.697900 0.482819 0.397379 -0.691470
H31   H     H_    0.734640 0.579987 0.389607 0.241823
H32   H     H_    0.710288 0.379518 0.440658 0.211448

loop_
_geom_bond_atom_site_label_1
_geom_bond_atom_site_label_2
_ccdc_geom_bond_type
C35   C37   A    
C28   C48   A    
C15   C17   A    
C29   C51   A    
C1    C28   S    
C24   H6    S    
N3    H29   S    
O1    C3    A    
C2    C27   S    
O2    C4    A    
C2    O7    A    
N4    H31   S    
C37   C45   A    
C26   H16   S    
N1    H26   S    
H13   C43   S    
O11   C55   A    
C37   C51   A    
C36   C40   A    
C30   H18   S    
C27   C49   A    
O15   C55   A    
C29   C31   A    
C30   C32   A    
C38   C46   A    
C28   C50   A    
N2    H27   S    
C32   C34   A    
O6    V2    S    
C26   C50   A    
C41   C43   A    
C25   C41   A    
C34   C36   A    
C45   H23   S    
C8    C12   A    
N2    H28   S    
C48   N4    S    
C30   C52   A    
C25   H15   S    
C27   C47   A    
O5    V1    S    
O19   V3    S    
C17   C19   A    
C19   N1    S    
C5    C21   A    
C7    C13   A    
H12   C50   S    
O12   C56   A    
O15   V3    S    
C35   C39   A    
C3    C8    S    
C31   C33   A    
C51   C56   S    
C44   C46   A    
C33   H19   S    
O13   V3    S    
C43   C45   A    
C32   H22   S    
C7    C11   A    
C54   O17   A    
C15   C23   A    
C9    C17   A    
C21   H1    S    
C39   C41   A    
C36   C38   A    
O4    V2    S    
O5    C3    A    
C31   H21   S    
H14   C44   S    
O13   C53   A    
C9    H3    S    
O6    C4    A    
C10   H4    S    
O14   C54   A    
N3    H30   S    
O1    V2    S    
C40   C48   A    
O20   V4    S    
O2    V1    S    
C6    C22   A    
O17   V3    S    
O4    C2    A    
O19   V4    S    
C9    C11   A    
O11   V4    S    
C12   H8    S    
C10   C12   A    
C6    C20   A    
C25   C49   A    
C13   H9    S    
O3    V1    S    
C34   H20   S    
C10   C18   A    
C22   H2    S    
C11   H7    S    
C14   C16   A    
C33   C35   A    
C26   C42   A    
O3    C1    A    
N4    H32   S    
C13   C15   A    
C38   C52   A    
N1    H25   S    
C47   N3    S    
O16   V4    S    
O7    V1    S    
C1    O8    A    
C52   C55   S    
O8    V2    S    
C18   C20   A    
C8    C14   A    
C5    C19   A    
O16   C56   A    
C4    C7    S    
C16   C18   A    
C21   C23   A    
H11   C49   S    
C22   C24   A    
O20   V3    S    
C23   H5    S    
C29   H17   S    
O12   V3    S    
O14   V4    S    
C39   C47   A    
C16   C24   A    
C40   C42   A    
C20   N2    S    
O9    V2    S    
C6    C53   S    
O10   V1    S    
C42   C44   A    
C5    C54   S    
C46   H24   S    
C14   H10   S    
C53   O18   A    
O18   V4    S    
