data_mof_unit_18858.cif
_audit_creation_date              2012-12-10T18:28:00-0500
_audit_creation_method            fapswitch 2.2
_symmetry_space_group_name_H-M    P1
_symmetry_Int_Tables_number       1
_space_group_crystal_system       triclinic
_cell_length_a                    18.45129
_cell_length_b                    18.584079
_cell_length_c                    18.150754
_cell_angle_alpha                 90.405405
_cell_angle_beta                  119.510271
_cell_angle_gamma                 120.217872
_cell_volume                      4403.18989312

loop_
_atom_site_label
_atom_site_type_symbol
_atom_type_description
_atom_site_fract_x
_atom_site_fract_y
_atom_site_fract_z
_atom_type_partial_charge
C1    C     C_R   0.783052 0.641250 0.641511 0.840097
C2    C     C_3   0.059847 0.197185 0.292027 0.356092
C3    C     C_2   0.333475 0.676188 0.288864 0.930556
C4    C     C_2   0.508109 0.807058 0.401018 1.033245
C5    C     C_3   0.393359 0.880455 0.290717 -0.036858
C6    C     C_2   0.309174 0.741731 0.141473 0.927048
C7    C     C_2   0.336294 0.563834 0.153360 1.028398
C8    C     C_2   0.384867 0.675273 0.042128 1.057982
C9    C     C_3   0.124363 0.475735 0.407933 -0.085312
C10   C     C_3   0.099918 0.298172 0.296234 -0.204344
C11   C     C_R   0.217375 0.358391 0.356332 0.763058
C12   C     C_3   0.896185 0.196502 0.202272 -0.207094
C13   C     C_3   0.931463 0.251328 0.146953 0.322441
C14   C     C_3   0.938824 0.137629 0.223708 -0.430736
C15   C     C_3   0.611357 0.334704 0.775856 0.861018
C16   C     C_3   0.607795 0.269530 0.830560 -0.545449
C17   C     C_3   0.441617 0.303838 0.745131 0.796241
C18   C     C_3   0.438239 0.202857 0.641023 0.192469
C19   C     C_3   0.596161 0.824193 0.810218 -0.397859
C20   C     C_3   0.497148 0.301457 0.700363 -0.172689
C21   C     C_3   0.497517 0.197827 0.800425 -0.236664
C22   C     C_3   0.444901 0.241823 0.805036 0.243952
C23   C     C_R   0.500981 0.642019 0.359056 0.920378
C24   C     C_3   0.434746 0.141820 0.699039 -0.336953
C25   C     C_3   0.940683 0.782931 0.770560 0.144250
C26   C     C_3   0.061912 0.838194 0.841990 0.844945
C27   C     C_3   0.944661 0.645199 0.746360 0.325928
C28   C     C_3   0.940131 0.733644 0.637939 0.312451
C29   C     C_3   0.899506 0.699340 0.698901 -0.241661
C30   C     C_3   0.536895 0.795848 0.706306 -0.166725
C31   C     C_3   0.102782 0.805337 0.799334 -0.299338
C32   C     C_3   0.063898 0.709090 0.800020 -0.505147
C33   C     C_3   0.059942 0.807357 0.698364 0.239676
C34   C     C_3   0.606288 0.364059 0.301304 0.239167
C35   C     C_R   0.500177 0.359143 0.641741 0.854560
C36   C     C_3   0.605793 0.298476 0.245126 0.264876
C37   C     C_3   0.512049 0.234583 0.346188 0.321622
C38   C     C_3   0.398713 0.251326 0.201305 0.224552
C39   C     C_3   0.504549 0.305141 0.300474 -0.314441
C40   C     C_3   0.505814 0.199483 0.204662 -0.251167
C41   C     C_3   0.439300 0.772488 0.697256 0.539512
C42   C     C_3   0.506877 0.166795 0.286906 -0.311311
C43   C     C_3   0.409528 0.198694 0.142871 0.207428
C44   C     C_3   0.617702 0.784879 0.337657 0.385008
C45   C     C_3   0.604215 0.848262 0.283711 -0.400764
C46   C     C_3   0.446422 0.644272 0.196663 -0.297809
C47   C     C_R   0.501145 0.359697 0.358542 0.986061
C48   C     C_3   0.438966 0.741689 0.302559 -0.313852
C49   C     C_3   0.500348 0.700514 0.299966 -0.265288
C50   C     C_3   0.493622 0.802088 0.197378 -0.153784
C51   C     C_3   0.461834 0.712905 0.144597 -0.391860
C52   C     C_3   0.405492 0.676897 0.692353 -0.211041
C53   C     C_3   0.421301 0.790119 0.227766 0.280132
C54   C     C_R   0.498678 0.140570 0.858437 0.897279
C55   C     C_R   0.500293 0.861174 0.142277 0.904216
C56   C     C_R   0.781168 0.140324 0.144262 0.810959
C57   C     C_R   0.217806 0.860440 0.858394 0.933329
C58   C     C_R   0.503904 0.141057 0.145461 0.911985
C59   C     C_R   0.501227 0.641919 0.642157 0.912709
C60   C     C_R   0.498648 0.857973 0.858000 0.857345
C61   C     C_3   0.560834 0.727610 0.803813 0.583241
C62   C     C_3   0.464087 0.704791 0.795552 -0.214191
C63   C     C_3   0.502868 0.699599 0.700762 -0.219472
C64   C     C_3   0.497294 0.800242 0.800162 -0.151576
C65   C     C_2   0.415692 0.650496 0.839077 0.978285
C66   C     C_2   0.888651 0.296148 0.297634 0.992150
C67   C     C_2   0.091939 0.388365 0.178429 0.977758
C68   C     C_3   0.841937 0.301239 0.044442 -0.221108
C69   C     C_3   0.065408 0.082185 0.237489 -0.191630
C70   C     C_2   0.098647 0.189541 0.387318 0.815668
C71   C     C_2   0.884842 0.057883 0.248463 0.970634
C72   C     C_3   0.143580 0.280647 0.148425 -0.158246
C73   C     C_3   0.747180 0.490890 0.847953 -0.081525
C74   C     C_3   0.060798 0.330784 0.339982 0.172736
C75   C     C_3   0.690805 0.755242 0.946018 -0.185016
C76   C     C_3   0.747695 0.340481 0.780290 -0.317754
C77   C     C_3   0.440131 0.404307 0.827304 -0.098632
C78   C     C_3   0.569008 0.343884 0.958869 -0.148697
C79   C     C_3   0.304257 0.107836 0.492841 -0.114609
C80   C     C_2   0.464421 0.083768 0.681567 0.920560
C81   C     C_3   0.317160 0.321524 0.628893 -0.191343
C82   C     C_3   0.830049 0.827870 0.721371 -0.230491
C83   C     C_3   0.079307 0.975120 0.878783 -0.244677
C84   C     C_3   0.078036 0.853204 0.983078 -0.215615
C85   C     C_3   0.944545 0.259384 0.295209 -0.221725
C86   C     C_2   0.926054 0.612201 0.816620 0.877566
C87   C     C_3   0.892823 0.759329 0.501536 -0.208153
C88   C     C_2   0.089917 0.902305 0.701244 1.074974
C89   C     C_2   0.587803 0.853403 0.666124 0.977554
C90   C     C_3   0.107679 0.721735 0.652725 -0.183699
C91   C     C_3   0.810992 0.498516 0.634912 -0.195661
C92   C     C_3   0.790574 0.449663 0.414230 -0.189416
C93   C     C_2   0.618407 0.445144 0.269337 0.900137
C94   C     C_3   0.715400 0.376470 0.197643 -0.192681
C95   C     C_3   0.578034 0.240779 0.497286 -0.223659
C96   C     C_3   0.049390 0.298059 0.192884 0.321881
C97   C     C_2   0.596664 0.158348 0.337961 0.924147
C98   C     C_3   0.220797 0.130928 0.131388 -0.340133
C99   C     C_3   0.339269 0.770317 0.553759 -0.179715
C100  C     C_2   0.369737 0.312671 0.161149 0.851301
C101  C     C_3   0.332293 0.173204 0.987158 -0.134819
C102  C     C_2   0.411633 0.075362 0.262171 0.933166
C103  C     C_2   0.683871 0.764801 0.324541 0.841555
C104  C     C_3   0.715140 0.804290 0.496387 -0.191215
C105  C     C_2   0.490322 0.595849 0.187873 0.964472
C106  C     C_2   0.299885 0.592792 0.633391 0.936704
H1    H     H_    0.919683 0.107082 0.158158 0.209597
H2    H     H_    0.102870 0.711132 0.871215 0.227065
H3    H     H_    0.720887 0.681400 0.316038 0.367454
H4    H     H_    0.728178 0.757848 0.477650 0.227906
H5    H     H_    0.663149 0.772429 0.517889 0.153491
H6    H     H_    0.790340 0.860464 0.555536 0.234053
H7    H     H_    0.496739 0.493103 0.202440 0.388805
H8    H     H_    0.212037 0.459309 0.592750 0.328306
H9    H     H_    0.244682 0.646043 0.334903 0.356789
H10   H     H_    0.613739 0.931587 0.491699 0.352431
H11   H     H_    0.337695 0.816939 0.290215 0.079462
H12   H     H_    0.349765 0.902465 0.243357 0.222906
H13   H     H_    0.921197 0.674038 0.597932 0.140470
H14   H     H_    0.443239 0.930070 0.358602 0.217460
H15   H     H_    0.193891 0.749869 0.052056 0.362402
H16   H     H_    0.244545 0.454436 0.165550 0.329462
H17   H     H_    0.281875 0.677803 0.928571 0.343146
H18   H     H_    0.081256 0.450385 0.438892 0.143517
H19   H     H_    0.126083 0.533961 0.392384 0.182594
H20   H     H_    0.204708 0.498168 0.455634 0.169176
H21   H     H_    0.093038 0.681619 0.777409 0.206578
H22   H     H_    0.669680 0.294065 0.290371 0.112785
H23   H     H_    0.343263 0.128915 0.111402 0.165514
H24   H     H_    0.442458 0.198059 0.346880 0.162283
H25   H     H_    0.625484 0.907698 0.326501 0.282097
H26   H     H_    0.660381 0.879856 0.266386 0.207128
H27   H     H_    0.532636 0.735179 0.148883 0.184378
H28   H     H_    0.103290 0.338873 0.412909 0.097159
H29   H     H_    0.888828 0.201705 0.079946 0.091842
H30   H     H_    0.938442 0.218617 0.338312 0.207885
H31   H     H_    0.286621 0.581220 0.834929 0.375830
H32   H     H_    0.812377 0.299846 0.345669 0.324948
H33   H     H_    0.087677 0.451925 0.087913 0.390050
H34   H     H_    0.831782 0.355369 0.040853 0.180063
H35   H     H_    0.765133 0.237548 0.009927 0.152702
H36   H     H_    0.874794 0.303080 0.006656 0.183077
H37   H     H_    0.005870 0.046660 0.164159 0.158906
H38   H     H_    0.034835 0.047517 0.275344 0.170079
H39   H     H_    0.129582 0.078043 0.255103 0.177433
H40   H     H_    0.640922 0.235647 0.825763 0.199107
H41   H     H_    0.093331 0.190549 0.495884 0.372047
H42   H     H_    0.805677 0.925193 0.217745 0.376251
H43   H     H_    0.211381 0.332698 0.214331 0.161361
H44   H     H_    0.137181 0.306030 0.091998 0.173485
H45   H     H_    0.154476 0.229038 0.140325 0.224087
H46   H     H_    0.815503 0.493368 0.897727 0.147826
H47   H     H_    0.757978 0.551258 0.876344 0.192948
H48   H     H_    0.739314 0.492764 0.783569 0.213376
H49   H     H_    0.652711 0.766391 0.972297 0.190837
H50   H     H_    0.753670 0.819432 0.953611 0.134308
H51   H     H_    0.658240 0.307518 0.903388 0.179502
H52   H     H_    0.725739 0.723993 0.987857 0.191583
H53   H     H_    0.788471 0.365016 0.854419 0.167004
H54   H     H_    0.801491 0.383798 0.763436 0.233729
H55   H     H_    0.727244 0.273220 0.758848 0.222069
H56   H     H_    0.494079 0.445131 0.899639 0.190777
H57   H     H_    0.374189 0.341544 0.818137 0.185183
H58   H     H_    0.412430 0.442396 0.791332 0.186456
H59   H     H_    0.609215 0.391925 0.934729 0.214595
H60   H     H_    0.615161 0.321090 0.000512 0.188213
H61   H     H_    0.566715 0.380570 0.005202 0.202159
H62   H     H_    0.483466 0.206150 0.615294 0.140917
H63   H     H_    0.318754 0.057231 0.510859 0.129844
H64   H     H_    0.342315 0.143446 0.460025 0.157888
H65   H     H_    0.220462 0.071572 0.443107 0.207859
H66   H     H_    0.421955 0.959961 0.639739 0.377171
H67   H     H_    0.383819 0.391469 0.656203 0.152911
H68   H     H_    0.256328 0.321401 0.627491 0.170242
H69   H     H_    0.289348 0.295058 0.558995 0.228994
H70   H     H_    0.838134 0.830996 0.786435 0.136122
H71   H     H_    0.755938 0.766252 0.667659 0.181656
H72   H     H_    0.829013 0.884779 0.705085 0.190208
H73   H     H_    0.353586 0.094734 0.676049 0.218324
H74   H     H_    0.139023 0.027653 0.945397 0.122005
H75   H     H_    0.011668 0.932589 0.879719 0.145963
H76   H     H_    0.060830 0.006892 0.827453 0.215620
H77   H     H_    0.090673 0.823450 0.036970 0.179907
H78   H     H_    0.000432 0.837133 0.951471 0.124398
H79   H     H_    0.138923 0.925021 0.016877 0.188491
H80   H     H_    0.932805 0.644635 0.927114 0.329653
H81   H     H_    0.842050 0.689731 0.456276 0.197480
H82   H     H_    0.971879 0.789522 0.521384 0.174950
H83   H     H_    0.869085 0.798844 0.464657 0.223405
H84   H     H_    0.674085 0.885613 0.858884 0.172653
H85   H     H_    0.051155 0.987619 0.671016 0.335179
H86   H     H_    0.678111 0.882649 0.623502 0.339174
H87   H     H_    0.037014 0.658893 0.634732 0.154569
H88   H     H_    0.176154 0.733515 0.714757 0.201088
H89   H     H_    0.116468 0.712519 0.597910 0.204671
H90   H     H_    0.771235 0.494723 0.666355 0.108979
H91   H     H_    0.809855 0.438333 0.631513 0.217634
H92   H     H_    0.766575 0.496010 0.564776 0.203766
H93   H     H_    0.817659 0.407295 0.420285 0.171561
H94   H     H_    0.843185 0.501868 0.481032 0.189901
H95   H     H_    0.363367 0.184027 0.769171 0.154167
H96   H     H_    0.798525 0.484244 0.366469 0.130187
H97   H     H_    0.521669 0.384432 0.132595 0.403899
H98   H     H_    0.718055 0.339193 0.152247 0.227113
H99   H     H_    0.776015 0.391707 0.267475 0.124126
H100  H     H_    0.734379 0.440066 0.185583 0.174377
H101  H     H_    0.545155 0.169181 0.478987 0.203105
H102  H     H_    0.525923 0.252295 0.500420 0.144107
H103  H     H_    0.650371 0.274605 0.565667 0.202638
H104  H     H_    0.646855 0.082202 0.344110 0.366552
H105  H     H_    0.206636 0.066486 0.111199 0.169831
H106  H     H_    0.905534 0.759356 0.807657 0.164876
H107  H     H_    0.205652 0.156589 0.074416 0.152489
H108  H     H_    0.163191 0.115596 0.144700 0.197375
H109  H     H_    0.328019 0.707507 0.531131 0.159253
H110  H     H_    0.393350 0.823825 0.542615 0.196386
H111  H     H_    0.264280 0.760035 0.510201 0.186064
H112  H     H_    0.323860 0.387483 0.168541 0.356754
H113  H     H_    0.322028 0.108834 0.976237 0.148993
H114  H     H_    0.346037 0.201947 0.938439 0.233743
H115  H     H_    0.262131 0.164324 0.973034 0.148420
H116  H     H_    0.269468 0.966359 0.170124 0.320373
O1    O     O_3   0.500000 0.500000 0.500000 -0.544255
O2    O     O_R   0.266230 0.883210 0.944500 -0.577559
O3    O     O_R   0.561150 0.178510 0.117240 -0.590623
O4    O     O_R   0.733670 0.616970 0.678220 -0.679273
O5    O     O_R   0.438720 0.882700 0.821420 -0.588505
O6    O     O_R   0.438610 0.055960 0.117240 -0.589630
O7    O     O_R   0.561250 0.882700 0.943960 -0.652818
O8    O     O_R   0.733630 0.055440 0.116700 -0.636361
O9    O     O_R   0.266260 0.883000 0.821740 -0.587026
O10   O     O_R   0.561190 0.178210 0.944500 -0.658289
O11   O     O_R   0.438650 0.883210 0.116920 -0.540367
O12   O     O_R   0.438720 0.616970 0.383270 -0.567373
O13   O     O_R   0.266300 0.444520 0.383270 -0.584008
O14   O     O_R   0.561280 0.616750 0.383040 -0.566733
O15   O     O_R   0.438750 0.321760 0.555460 -0.631231
O16   O     O_R   0.561320 0.444010 0.382720 -0.586783
O17   O     O_R   0.561210 0.617270 0.678540 -0.604986
O18   O     O_R   0.438790 0.321460 0.382720 -0.617160
O19   O     O_R   0.438680 0.617270 0.556010 -0.640228
O20   O     O_2   0.456448 0.621700 0.892772 -0.559405
O21   O     O_R   0.320213 0.628862 0.812936 -0.808749
O22   O     O_2   0.883941 0.349831 0.260783 -0.564873
O23   O     O_R   0.561250 0.444520 0.678220 -0.619271
O24   O     O_R   0.843842 0.268816 0.344738 -0.814672
O25   O     O_2   0.153743 0.458258 0.240560 -0.512203
O26   O     O_R   0.058106 0.389831 0.090831 -0.823320
O27   O     O_3   0.906366 0.313536 0.136245 -0.528493
O28   O     O_3   0.102988 0.172781 0.257986 -0.539286
O29   O     O_2   0.159901 0.170719 0.420189 -0.570281
O30   O     O_R   0.065199 0.202363 0.437147 -0.840133
O31   O     O_2   0.874009 0.066115 0.308489 -0.575181
O32   O     O_R   0.841943 0.973317 0.197498 -0.812011
O33   O     O_3   0.051420 0.241434 0.141337 -0.642713
O34   O     O_R   0.733700 0.616750 0.555460 -0.605485
O35   O     O_3   0.659773 0.418070 0.837080 -0.644508
O36   O     O_3   0.621159 0.698643 0.855721 -0.571012
O37   O     O_3   0.658698 0.339080 0.730655 -0.691343
O38   O     O_3   0.493894 0.392925 0.798423 -0.615307
O39   O     O_3   0.467205 0.272053 0.891131 -0.631910
O40   O     O_3   0.336269 0.168551 0.568144 -0.522723
O41   O     O_2   0.546626 0.116371 0.691971 -0.650148
O42   O     O_R   0.394724 0.991719 0.650131 -0.741533
O43   O     O_3   0.335770 0.265778 0.676632 -0.627455
O44   O     O_3   0.912312 0.835771 0.725073 -0.559073
O45   O     O_R   0.266330 0.321760 0.383040 -0.578697
O46   O     O_3   0.118575 0.932640 0.863012 -0.637109
O47   O     O_3   0.087184 0.816215 0.922837 -0.607280
O48   O     O_2   0.934952 0.552903 0.836121 -0.619761
O49   O     O_R   0.915227 0.656523 0.868345 -0.858156
O50   O     O_3   0.886223 0.762978 0.575769 -0.550537
O51   O     O_2   0.180131 0.962663 0.736678 -0.612151
O52   O     O_R   0.018582 0.922530 0.663501 -0.723834
O53   O     O_2   0.588256 0.918852 0.658236 -0.620063
O54   O     O_R   0.641496 0.835936 0.644648 -0.830118
O55   O     O_3   0.106619 0.797026 0.658604 -0.615909
O56   O     O_3   0.499930 0.999970 0.999970 -0.547371
O57   O     O_3   0.914070 0.573733 0.680858 -0.641862
O58   O     O_3   0.690578 0.399547 0.394334 -0.548433
O59   O     O_2   0.673304 0.517973 0.326255 -0.537106
O60   O     O_R   0.579218 0.443709 0.180403 -0.776534
O61   O     O_3   0.614667 0.327315 0.175531 -0.571110
O62   O     O_3   0.600436 0.277081 0.437066 -0.533131
O63   O     O_2   0.680981 0.219176 0.403158 -0.549211
O64   O     O_R   0.582785 0.080346 0.306595 -0.774589
O65   O     O_3   0.320049 0.190077 0.212248 -0.607896
O66   O     O_3   0.373267 0.796180 0.644284 -0.573772
O67   O     O_R   0.438680 0.055440 0.821740 -0.605702
O68   O     O_2   0.348198 0.315170 0.086301 -0.609943
O69   O     O_R   0.354734 0.358458 0.206558 -0.810751
O70   O     O_3   0.416857 0.233038 0.075031 -0.572530
O71   O     O_2   0.407864 0.050577 0.323305 -0.703704
O72   O     O_R   0.328329 0.020649 0.173814 -0.792557
O73   O     O_2   0.748453 0.819966 0.314227 -0.634065
O74   O     O_R   0.679988 0.688698 0.333572 -0.762859
O75   O     O_3   0.678075 0.838940 0.429476 -0.618641
O76   O     O_2   0.524678 0.608298 0.142502 -0.553456
O77   O     O_R   0.483222 0.530291 0.226102 -0.729657
O78   O     O_R   0.561210 0.883000 0.116700 -0.659280
O79   O     O_2   0.225827 0.595493 0.592042 -0.636091
O80   O     O_R   0.286762 0.511696 0.631072 -0.847435
O81   O     O_2   0.262537 0.610490 0.222490 -0.556614
O82   O     O_R   0.315932 0.693184 0.351863 -0.800368
O83   O     O_2   0.509355 0.777394 0.461220 -0.597107
O84   O     O_R   0.574036 0.898995 0.425349 -0.740985
O85   O     O_3   0.455003 0.877468 0.267068 -0.566542
O86   O     O_2   0.258713 0.664498 0.097105 -0.567030
O87   O     O_R   0.265768 0.788058 0.109440 -0.760387
O88   O     O_2   0.270256 0.536256 0.072670 -0.543362
O89   O     O_R   0.733610 0.178210 0.116920 -0.622949
O90   O     O_R   0.315297 0.510929 0.203945 -0.781946
O91   O     O_2   0.373770 0.615205 0.999320 -0.550624
O92   O     O_R   0.329958 0.709637 0.995996 -0.807154
O93   O     O_3   0.076579 0.411519 0.327482 -0.520297
Zn1   Zn    Zn3+2 0.412450 0.543930 0.456390 1.054747
Zn2   Zn    Zn3+2 0.587550 0.543620 0.456070 1.063059
Zn3   Zn    Zn3+2 0.412480 0.368530 0.456070 1.023413
Zn4   Zn    Zn3+2 0.587520 0.543930 0.631470 0.975903
Zn5   Zn    Zn3+2 0.587490 0.956040 0.043570 0.994072
Zn6   Zn    Zn3+2 0.587450 0.131440 0.043900 0.978817
Zn7   Zn    Zn3+2 0.412380 0.956350 0.043900 1.090239
Zn8   Zn    Zn3+2 0.412420 0.956040 0.868500 1.066718

loop_
_geom_bond_atom_site_label_1
_geom_bond_atom_site_label_2
_ccdc_geom_bond_type
C68   O27   S    
C69   H39   S    
C14   C71   S    
O7    Zn5   S    
C66   C85   S    
C103  O74   S    
C78   H61   S    
C83   H74   S    
C32   H21   S    
C33   C88   S    
C18   O40   S    
C73   O35   S    
C23   C49   S    
C46   C105  S    
C3    C48   S    
H8    O80   S    
O3    Zn6   S    
C37   C42   S    
C61   C63   S    
O56   Zn7   S    
C100  O68   D    
C23   O12   A    
C40   C43   S    
C90   H89   S    
C77   O38   S    
O10   Zn6   S    
C92   H93   S    
H85   O52   S    
C15   O35   S    
C98   H108  S    
C21   C22   S    
C84   H79   S    
C48   C53   S    
C80   O41   D    
C61   O36   S    
C30   C89   S    
C102  O71   D    
C26   O46   S    
C25   C29   S    
C15   C20   S    
H41   O30   S    
C35   O23   A    
C50   C53   S    
C40   C58   S    
C60   O7    A    
C38   C100  S    
C42   C97   S    
O19   Zn1   S    
H66   O42   S    
C27   C86   S    
C71   O32   S    
H32   O24   S    
C56   O89   A    
C47   O16   A    
C101  H113  S    
C75   O36   S    
C43   H23   S    
C72   H45   S    
H116  O72   S    
H17   O92   S    
C1    C29   S    
C17   O38   S    
C37   O62   S    
C14   H1    S    
C28   C33   S    
H104  O64   S    
C68   H34   S    
C72   O33   S    
C81   H69   S    
C39   C47   S    
C66   O24   S    
C77   H56   S    
C83   O46   S    
C78   H59   S    
O1    Zn3   S    
C106  O79   D    
C52   C63   S    
O8    Zn5   S    
O6    Zn7   S    
C13   O27   S    
C98   H105  S    
C59   C63   S    
C60   C64   S    
C31   C57   S    
C38   C43   S    
H86   O54   S    
C104  H4    S    
H97   O60   S    
C90   H87   S    
O9    Zn8   S    
C7    O90   S    
C19   C61   S    
C74   H28   S    
C2    C14   S    
H31   O21   S    
C75   H49   S    
C45   H26   S    
C21   C24   S    
C89   O53   D    
C79   O40   S    
C19   C30   S    
O13   Zn1   S    
C101  O70   S    
C4    O84   S    
C1    O4    A    
H42   O32   S    
C16   C21   S    
C28   O50   S    
C27   C29   S    
C94   H100  S    
C97   O64   S    
C99   O66   S    
C69   H38   S    
C84   O47   S    
C90   O55   S    
C18   C24   S    
C45   C50   S    
C79   H64   S    
C86   O49   S    
C54   O67   A    
C38   C39   S    
C6    O87   S    
C83   H75   S    
C20   C35   S    
C67   O25   D    
H80   O49   S    
O4    Zn4   S    
C62   C64   S    
C30   C41   S    
C68   H36   S    
H9    O82   S    
C1    O34   A    
C77   H58   S    
C40   C42   S    
C81   O43   S    
C13   H29   S    
C76   H55   S    
C36   H22   S    
C54   O10   A    
C93   O60   S    
O89   Zn6   S    
C44   C103  S    
O11   Zn7   S    
C13   C96   S    
C34   C39   S    
C7    C46   S    
C84   H78   S    
C104  H6    S    
C87   H81   S    
C7    O88   D    
C25   C26   S    
C46   C51   S    
C9    H19   S    
C81   H67   S    
C92   O58   S    
C88   O51   D    
C87   O50   S    
C31   C32   S    
C91   O57   S    
C72   H44   S    
C73   H46   S    
C94   H98   S    
C105  O76   D    
C70   O30   S    
C3    O82   S    
C92   H96   S    
C98   O65   S    
O67   Zn8   S    
O34   Zn2   S    
C36   O61   S    
C12   C14   S    
C103  O73   D    
H10   O84   S    
O1    Zn4   S    
C5    H12   S    
C106  O80   S    
C52   C62   S    
C34   C36   S    
C74   C85   S    
C61   C62   S    
O56   Zn8   S    
C10   C11   S    
C27   C32   S    
C85   H30   S    
O18   Zn3   S    
C12   C13   S    
H15   O87   S    
C92   H94   S    
C94   O61   S    
C9    O93   S    
C76   H53   S    
C8    O91   D    
C80   O42   S    
O45   Zn3   S    
C25   O44   S    
C15   O37   S    
C102  O72   S    
O78   Zn5   S    
C65   O21   S    
C46   C49   S    
C53   O85   S    
C28   C29   S    
C21   C54   S    
C99   H110  S    
C17   C20   S    
C79   H65   S    
C71   O31   D    
C91   H92   S    
C35   O15   A    
C73   H48   S    
H112  O69   S    
O2    Zn7   S    
H7    O77   S    
C11   O13   A    
H33   O26   S    
C95   H101  S    
C76   O37   S    
C78   H60   S    
O1    Zn2   S    
C5    H14   S    
C95   H103  S    
C74   O93   S    
C22   H95   S    
C25   H106  S    
O56   Zn6   S    
O17   Zn4   S    
C90   H88   S    
O15   Zn3   S    
H16   O90   S    
C50   C51   S    
C56   O8    A    
C82   O44   S    
C58   O3    A    
C69   O28   S    
C75   H52   S    
C48   C49   S    
C98   H107  S    
C45   H25   S    
C95   H102  S    
C6    C53   S    
C44   C45   S    
C101  H115  S    
C16   H51   S    
C50   C55   S    
C97   O63   D    
C69   H37   S    
C17   C22   S    
C79   H63   S    
C37   C39   S    
C91   H90   S    
C101  H114  S    
C66   O22   D    
C82   H71   S    
C30   C63   S    
O1    Zn1   S    
C95   O62   S    
C11   O45   A    
C44   O75   S    
C41   C64   S    
C2    C70   S    
C57   O2    A    
C44   C49   S    
C77   H57   S    
C51   H27   S    
C34   C93   S    
C93   O59   D    
C33   O55   S    
C12   C85   S    
C100  O69   S    
C2    O28   S    
C57   O9    A    
O14   Zn2   S    
C22   O39   S    
C15   C16   S    
C26   O47   S    
C9    H18   S    
C37   H24   S    
C16   H40   S    
C88   O52   S    
C17   O43   S    
O23   Zn4   S    
C75   H50   S    
C24   C80   S    
C99   H111  S    
C104  O75   S    
C89   O54   S    
C31   C33   S    
C41   O66   S    
C19   C64   S    
C41   C52   S    
C4    O83   D    
C87   H83   S    
C52   C106  S    
C26   C31   S    
C82   H72   S    
C94   H99   S    
C55   O11   A    
C42   C102  S    
C3    O81   D    
C38   O65   S    
C36   C40   S    
C86   O48   D    
C18   H62   S    
C5    O85   S    
C27   O57   S    
C6    O86   D    
C83   H76   S    
C5    H11   S    
C59   O17   A    
C67   O26   S    
C10   C96   S    
C43   O70   S    
C24   H73   S    
C68   H35   S    
C8    C51   S    
C12   C56   S    
C23   O14   A    
C82   H70   S    
C67   C96   S    
C78   O39   S    
C2    C10   S    
O5    Zn8   S    
C58   O6    A    
C4    C48   S    
C34   O58   S    
C76   H54   S    
C62   C65   S    
C8    O92   S    
C84   H77   S    
C96   O33   S    
C28   H13   S    
C104  H5    S    
C87   H82   S    
H3    O74   S    
C65   O20   D    
O16   Zn2   S    
C9    H20   S    
C59   O19   A    
C60   O5    A    
C81   H68   S    
O12   Zn1   S    
C10   C74   S    
C99   H109  S    
C18   C20   S    
C19   H84   S    
O56   Zn5   S    
C47   O18   A    
C91   H91   S    
C55   O78   A    
C72   H43   S    
C32   H2    S    
C73   H47   S    
C105  O77   S    
C70   O29   D    
