data_mof_unit_14324.cif
_audit_creation_date              2012-12-10T17:33:02-0500
_audit_creation_method            fapswitch 2.2
_symmetry_space_group_name_H-M    P1
_symmetry_Int_Tables_number       1
_space_group_crystal_system       triclinic
_cell_length_a                    12.389171
_cell_length_b                    13.302482
_cell_length_c                    14.237626
_cell_angle_alpha                 93.213772
_cell_angle_beta                  107.961939
_cell_angle_gamma                 116.984279
_cell_volume                      1935.19519457

loop_
_atom_site_label
_atom_site_type_symbol
_atom_type_description
_atom_site_fract_x
_atom_site_fract_y
_atom_site_fract_z
_atom_type_partial_charge
C1    C     C_R   0.651779 0.714076 0.510082 0.769290
C2    C     C_R   0.827515 0.468972 0.912972 0.104352
C3    C     C_R   0.768343 0.470696 0.983380 0.164212
C4    C     C_R   0.931075 0.443161 0.938243 0.012904
C5    C     C_R   0.994165 0.447976 0.041890 0.038187
C6    C     C_R   0.933001 0.450165 0.110676 -0.205139
C7    C     C_R   0.819598 0.457638 0.080640 -0.232118
C8    C     C_R   0.971929 0.409117 0.864778 0.116500
C9    C     C_R   0.086606 0.403149 0.895987 -0.251082
C10   C     C_R   0.159981 0.425019 0.998580 0.126729
C11   C     C_R   0.114134 0.446830 0.072663 0.085876
C12   C     C_R   0.618008 0.516015 0.686799 0.793349
C13   C     C_R   0.276948 0.421303 0.027766 -0.183688
C14   C     C_R   0.349832 0.440191 0.130052 -0.199233
C15   C     C_R   0.191860 0.469905 0.175438 -0.240424
C16   C     C_R   0.137674 0.968052 0.363361 -0.190036
C17   C     C_R   0.250667 0.162896 0.465548 -0.046108
C18   C     C_R   0.743015 0.918844 0.589516 -0.193677
C19   C     C_R   0.840636 0.033717 0.617285 -0.118624
C20   C     C_R   0.939900 0.069098 0.579730 -0.176080
C21   C     C_R   0.941385 0.989659 0.510016 0.075414
C22   C     C_R   0.835284 0.874102 0.475426 0.087316
C23   C     C_R   0.345729 0.285572 0.485517 0.806921
C24   C     C_R   0.044280 0.020976 0.473264 0.075255
C25   C     C_R   0.036332 0.938757 0.399449 0.166576
C26   C     C_R   0.925617 0.829449 0.359896 -0.241864
C27   C     C_R   0.825281 0.798507 0.395448 -0.199940
C28   C     C_R   0.154752 0.131958 0.506910 -0.248602
C29   C     C_R   0.244296 0.079938 0.395970 -0.185867
C30   C     C_R   0.741184 0.837440 0.521291 -0.099460
C31   C     C_R   0.250495 0.680512 0.664601 -0.281885
C32   C     C_R   0.654444 0.343114 0.362643 0.088940
C33   C     C_R   0.731907 0.309885 0.331215 -0.257882
C34   C     C_R   0.380412 0.481973 0.312934 0.788715
C35   C     C_R   0.867263 0.369243 0.382410 -0.173403
C36   C     C_R   0.927330 0.463363 0.466208 0.015863
C37   C     C_R   0.843357 0.494575 0.494866 0.264047
C38   C     C_R   0.066598 0.527217 0.522784 -0.071574
C39   C     C_R   0.116713 0.619374 0.607194 0.119551
C40   C     C_R   0.033008 0.649737 0.633673 0.127812
C41   C     C_R   0.899883 0.588157 0.577107 -0.170160
C42   C     C_R   0.159043 0.503687 0.500051 -0.011058
C43   C     C_R   0.336387 0.654720 0.639929 0.380964
C44   C     C_R   0.674665 0.511447 0.792342 -0.056749
C45   C     C_R   0.307667 0.464843 0.204514 -0.051570
C46   C     C_R   0.659969 0.487797 0.956060 -0.205325
C47   C     C_R   0.611198 0.505049 0.859880 -0.193885
C48   C     C_R   0.787113 0.501362 0.822472 -0.208604
Cu1   Cu    Cu3+1 0.416420 0.526630 0.522910 0.934192
Cu2   Cu    Cu3+1 0.583580 0.473370 0.477090 0.936278
H1    H     H_    0.774705 0.457570 0.135095 0.143688
H2    H     H_    0.311693 0.403119 0.971341 0.130150
H3    H     H_    0.318109 0.102991 0.363166 0.149847
H4    H     H_    0.915801 0.767772 0.300297 0.145206
H5    H     H_    0.132205 0.905512 0.307296 0.137237
H6    H     H_    0.167991 0.197862 0.563662 0.147272
H7    H     H_    0.671519 0.893030 0.624726 0.157748
H8    H     H_    0.012737 0.159512 0.606413 0.139889
H9    H     H_    0.841864 0.095058 0.671283 0.179187
H10   H     H_    0.738741 0.715180 0.357589 0.171094
H11   H     H_    0.165310 0.494381 0.234531 0.149229
H12   H     H_    0.290932 0.750083 0.730120 0.162389
H13   H     H_    0.127978 0.435144 0.437088 0.128405
H14   H     H_    0.549653 0.296455 0.322204 0.118111
H15   H     H_    0.922326 0.339635 0.355062 0.131161
H16   H     H_    0.686781 0.237735 0.266856 0.146149
H17   H     H_    0.842744 0.615988 0.600794 0.206676
H18   H     H_    0.439109 0.435797 0.150742 0.145966
H19   H     H_    0.116967 0.378122 0.839250 0.164104
H20   H     H_    0.612219 0.486517 0.008604 0.129186
H21   H     H_    0.524037 0.512923 0.838397 0.156964
H22   H     H_    0.844241 0.521369 0.775398 0.182041
H23   H     H_    0.967605 0.441490 0.187470 0.139287
N1    N     N_R   0.290690 0.566960 0.557640 -0.175577
N2    N     N_R   0.709100 0.433710 0.442970 -0.195370
O1    O     O_R   0.545970 0.684450 0.528810 -0.580300
O2    O     O_R   0.687130 0.639470 0.490120 -0.608328
O3    O     O_R   0.519670 0.535100 0.660030 -0.588547
O4    O     O_R   0.660830 0.490120 0.621340 -0.577307
O5    O     O_R   0.312870 0.360530 0.509880 -0.585319
O6    O     O_R   0.454030 0.315550 0.471190 -0.573291
O7    O     O_R   0.339170 0.509880 0.378660 -0.583920
O8    O     O_R   0.480330 0.464900 0.339970 -0.598081
C49   C     C_3   0.477622 0.727970 0.710169 -0.820446
H24   H     H_    0.548481 0.717255 0.687254 0.270145
H25   H     H_    0.506806 0.821167 0.717130 0.195839
H26   H     H_    0.488968 0.709337 0.786633 0.203041
C50   C     C_3   0.082772 0.748106 0.722642 -0.883533
H27   H     H_    0.003143 0.760070 0.731755 0.224940
H28   H     H_    0.130816 0.729951 0.794143 0.238139
H29   H     H_    0.153193 0.830850 0.711372 0.241149
I1    I     I_    0.854423 0.331139 0.707333 -0.449424

loop_
_geom_bond_atom_site_label_1
_geom_bond_atom_site_label_2
_ccdc_geom_bond_type
C17   C29   A    
C35   C36   A    
C49   H26   S    
C4    C8    A    
Cu2   O4    S    
C32   N2    A    
C28   H6    S    
C41   H17   S    
C26   C27   A    
C17   C23   S    
C31   C43   A    
C36   C37   A    
C49   H25   S    
C5    C11   A    
C3    C7    A    
C27   H10   S    
C38   C39   A    
C35   H15   S    
C12   O4    A    
C1    O2    A    
Cu1   O3    S    
C18   C19   A    
C11   C15   A    
C19   C20   A    
C8    C9    A    
C12   O3    A    
C33   H16   S    
C18   C30   A    
C23   O5    A    
C23   O6    A    
C9    C10   A    
C44   C47   A    
C43   N1    A    
C37   N2    A    
C21   C22   A    
C43   C49   S    
C17   C28   A    
C31   H12   S    
C48   H22   S    
C26   H4    S    
Cu2   O8    S    
C14   C45   A    
C42   N1    A    
C24   C25   A    
C32   H14   S    
C39   C40   A    
C2    C48   A    
C25   C26   A    
Cu1   O7    S    
C2    C4    A    
C13   H2    S    
C18   H7    S    
C50   H29   S    
C20   C21   A    
C15   H11   S    
Cu1   O1    S    
C34   C45   S    
C49   H24   S    
C47   H21   S    
C8    I1    S    
C40   C41   A    
C50   H28   S    
C22   C27   A    
C34   O8    A    
C15   C45   A    
C20   H8    S    
Cu2   O2    S    
C6    H23   S    
C16   C25   A    
C46   C47   A    
C22   C30   A    
C1    O1    A    
C24   C28   A    
C9    H19   S    
C4    C5    A    
C10   C13   A    
C38   C42   A    
C6    C7    A    
C3    C46   A    
Cu1   O5    S    
C19   H9    S    
C32   C33   A    
C40   C50   S    
C36   C38   A    
C2    C3    A    
C16   C29   A    
C16   H5    S    
C7    H1    S    
C12   C44   S    
Cu2   N2    S    
C5    C6    A    
C29   H3    S    
C1    C30   S    
C33   C35   A    
C31   C39   A    
C37   C41   A    
C46   H20   S    
C10   C11   A    
C50   H27   S    
Cu1   Cu2   S    
C21   C24   A    
C14   H18   S    
Cu1   N1    S    
C34   O7    A    
C13   C14   A    
C42   H13   S    
C44   C48   A    
Cu2   O6    S    
