data_mof_unit_30981.cif
_audit_creation_date              2013-03-05T15:53:18-0500
_audit_creation_method            fapswitch 2.2
_symmetry_space_group_name_H-M    P1
_symmetry_Int_Tables_number       1
_space_group_crystal_system       triclinic
_cell_length_a                    27.301752
_cell_length_b                    7.18387
_cell_length_c                    22.633206
_cell_angle_alpha                 89.926526
_cell_angle_beta                  101.299035
_cell_angle_gamma                 89.852936
_cell_volume                      4353.04092744

loop_
_atom_site_label
_atom_site_type_symbol
_atom_site_description
_atom_site_fract_x
_atom_site_fract_y
_atom_site_fract_z
_atom_type_partial_charge
O1    O     O_R   0.207310 0.594030 0.676830 -0.591047
O2    O     O_R   0.792690 0.405970 0.323170 -0.590106
O3    O     O_R   0.292690 0.094030 0.823170 -0.579706
O4    O     O_R   0.707310 0.905970 0.176830 -0.579839
O5    O     O_R   0.197320 0.262370 0.795700 -0.540292
O6    O     O_R   0.802680 0.737630 0.204300 -0.531110
O7    O     O_R   0.302680 0.762370 0.704300 -0.543332
O8    O     O_R   0.697320 0.237630 0.295700 -0.535692
C1    C     C_R   0.184210 0.432692 0.811621 1.110084
C2    C     C_R   0.815251 0.567370 0.187703 1.131151
C3    C     C_R   0.315307 0.932401 0.687771 1.126228
C4    C     C_R   0.684647 0.067606 0.312191 1.124556
O9    O     O_R   0.201410 0.264250 0.675590 -0.568059
O10   O     O_R   0.798590 0.735750 0.324410 -0.570295
O11   O     O_R   0.298590 0.764250 0.824410 -0.583139
O12   O     O_R   0.701410 0.235750 0.175590 -0.577630
O13   O     O_R   0.296810 0.094940 0.702210 -0.552602
O14   O     O_R   0.703190 0.905060 0.297790 -0.561358
O15   O     O_R   0.203190 0.594940 0.797790 -0.554220
O16   O     O_R   0.796810 0.405060 0.202210 -0.562319
C5    C     C_R   0.189769 0.433606 0.653247 1.111321
C6    C     C_R   0.810284 0.566437 0.346719 1.121373
C7    C     C_R   0.310892 0.932754 0.846548 1.121695
C8    C     C_R   0.689729 0.066879 0.152993 1.125109
O17   O     O_3   0.281300 0.427390 0.758870 -0.274548
O18   O     O_3   0.718700 0.572610 0.241130 -0.279050
O19   O     O_3   0.218700 0.927390 0.741130 -0.276688
O20   O     O_3   0.781300 0.072610 0.258870 -0.278423
V1    V     V_3+5 0.244190 0.152150 0.748350 1.350067
V2    V     V_3+5 0.755810 0.847850 0.251650 1.345185
V3    V     V_3+5 0.255810 0.652150 0.751650 1.340019
V4    V     V_3+5 0.744190 0.347850 0.248350 1.339811
C9    C     C_R   0.655261 0.052382 0.093268 -0.508144
C10   C     C_R   0.346396 0.937423 0.905811 -0.500731
C11   C     C_R   0.845711 0.552817 0.405386 -0.503028
C12   C     C_R   0.154287 0.448368 0.594660 -0.504167
C13   C     C_R   0.644336 0.995579 0.985201 0.319161
C14   C     C_R   0.361228 0.873077 0.013733 0.323742
C15   C     C_R   0.858289 0.482862 0.512815 0.325242
C16   C     C_R   0.141421 0.536778 0.488664 0.318018
C17   C     C_R   0.675677 0.020548 0.041800 0.179984
C18   C     C_R   0.328595 0.886805 0.957609 0.172796
C19   C     C_R   0.826470 0.532099 0.458296 0.175186
C20   C     C_R   0.173375 0.478793 0.542084 0.180726
C21   C     C_R   0.602597 0.060791 0.087365 0.391220
C22   C     C_R   0.397727 0.980644 0.910775 0.403589
C23   C     C_R   0.898048 0.542403 0.408440 0.397469
C24   C     C_R   0.101966 0.455644 0.591871 0.394397
C25   C     C_R   0.570626 0.000882 0.032402 -0.055878
C26   C     C_R   0.432567 0.943867 0.966140 -0.056955
C27   C     C_R   0.931020 0.521377 0.465689 -0.063950
C28   C     C_R   0.068806 0.487105 0.535244 -0.066394
C29   C     C_R   0.591656 0.979690 0.979994 -0.224555
C30   C     C_R   0.413419 0.903036 0.018842 -0.224373
C31   C     C_R   0.910304 0.460975 0.515142 -0.221460
C32   C     C_R   0.089481 0.556961 0.487020 -0.227840
C33   C     C_R   0.518281 0.962168 0.028102 -0.062976
C34   C     C_R   0.485938 0.949059 0.970728 -0.062108
C35   C     C_R   0.984144 0.548999 0.475230 -0.056070
C36   C     C_R   0.015633 0.464640 0.526025 -0.061629
C37   C     C_R   0.508138 0.907993 0.920925 0.420536
C38   C     C_R   0.498947 0.905685 0.078751 0.422366
C39   C     C_R   0.993136 0.347652 0.563139 0.423858
C40   C     C_R   0.006307 0.666498 0.437640 0.417946
C41   C     C_R   0.559937 0.935520 0.924207 0.417610
C42   C     C_R   0.446783 0.892279 0.075354 0.430575
C43   C     C_R   0.941553 0.366894 0.563320 0.425532
C44   C     C_R   0.058840 0.664904 0.442050 0.444753
C45   C     C_R   0.644186 0.901341 0.389222 0.312901
C46   C     C_R   0.355384 0.098184 0.610358 0.316627
C47   C     C_R   0.855377 0.399549 0.110676 0.315662
C48   C     C_R   0.141164 0.601598 0.885934 0.336408
C49   C     C_R   0.609912 0.896236 0.429039 0.403155
C50   C     C_R   0.389763 0.103664 0.570673 0.403279
C51   C     C_R   0.889506 0.393316 0.070699 0.403012
C52   C     C_R   0.107315 0.604513 0.926237 0.395991
C53   C     C_R   0.573568 0.036682 0.426670 -0.204153
C54   C     C_R   0.426369 0.963995 0.573352 -0.203555
C55   C     C_R   0.925729 0.533213 0.072571 -0.201829
C56   C     C_R   0.072026 0.461582 0.924750 -0.201316
C57   C     C_R   0.573518 0.189373 0.387114 0.130134
C58   C     C_R   0.426628 0.811807 0.613167 0.135859
C59   C     C_R   0.925829 0.686513 0.111770 0.131612
C60   C     C_R   0.072601 0.308876 0.885504 0.129534
C61   C     C_R   0.610317 0.202185 0.350525 0.410728
C62   C     C_R   0.389840 0.798834 0.649753 0.396573
C63   C     C_R   0.889207 0.700445 0.148556 0.413977
C64   C     C_R   0.109579 0.297151 0.849062 0.404835
C65   C     C_R   0.645806 0.057364 0.351237 -0.344611
C66   C     C_R   0.354086 0.942802 0.648693 -0.330770
C67   C     C_R   0.853857 0.556160 0.148383 -0.338152
C68   C     C_R   0.144481 0.443382 0.849541 -0.348619
N1    N     N_R   0.486132 0.053878 0.442151 -0.010044
N2    N     N_R   0.513828 0.947023 0.557888 -0.009893
N3    N     N_R   0.012939 0.549793 0.056477 -0.007456
N4    N     N_R   0.984893 0.441989 0.941011 -0.007232
N5    N     N_R   0.451761 0.035165 0.476277 0.012879
N6    N     N_R   0.548198 0.965708 0.523760 0.012874
N7    N     N_R   0.047115 0.531181 0.022081 0.012373
N8    N     N_R   0.950711 0.460637 0.975411 0.013173
C69   C     C_R   0.464812 0.980899 0.534856 0.349580
C70   C     C_R   0.535143 0.019971 0.465184 0.350663
C71   C     C_R   0.033875 0.476559 0.963637 0.351831
C72   C     C_R   0.963946 0.515527 0.033838 0.350456
O21   O     O_3   0.579837 0.916362 0.872927 -0.658470
H1    H     H_    0.554038 0.950819 0.837303 0.362210
O22   O     O_3   0.428131 0.872883 0.127556 -0.656234
H2    H     H_    0.452121 0.927312 0.161718 0.360313
O23   O     O_3   0.920780 0.279897 0.606969 -0.661418
H3    H     H_    0.946660 0.268314 0.644220 0.368190
O24   O     O_3   0.081418 0.783686 0.407514 -0.659106
H4    H     H_    0.063576 0.904648 0.403985 0.343939
N9    N     N_R   0.413076 0.083660 0.862868 0.261502
O25   O     O_R   0.440817 0.230980 0.875243 -0.356687
O26   O     O_R   0.398557 0.034546 0.806864 -0.389635
N10   N     N_R   0.581833 0.151442 0.133700 0.264603
O27   O     O_R   0.546383 0.274246 0.119070 -0.355483
O28   O     O_R   0.598669 0.115500 0.190415 -0.376923
N11   N     N_R   0.083652 0.464688 0.647289 0.245186
O29   O     O_R   0.053264 0.597506 0.655732 -0.365911
O30   O     O_R   0.098428 0.344629 0.690201 -0.352598
N12   N     N_R   0.916631 0.519395 0.353533 0.241014
O31   O     O_R   0.900722 0.625314 0.307026 -0.381627
O32   O     O_R   0.949107 0.389345 0.349591 -0.355307
N13   N     N_R   0.276094 0.859618 0.954017 0.264117
O33   O     O_R   0.259697 0.706676 0.974018 -0.309880
O34   O     O_R   0.245336 0.996951 0.937253 -0.361980
N14   N     N_R   0.728870 0.021859 0.046106 0.259830
O35   O     O_R   0.748892 0.134448 0.012556 -0.306560
O36   O     O_R   0.756572 0.895697 0.077851 -0.386326
N15   N     N_R   0.225898 0.460110 0.543480 0.263309
O37   O     O_R   0.241698 0.344127 0.507214 -0.299844
O38   O     O_R   0.257066 0.577403 0.574259 -0.380097
N16   N     N_R   0.773857 0.550830 0.456282 0.263047
O39   O     O_R   0.757636 0.670181 0.491202 -0.299449
O40   O     O_R   0.743024 0.430518 0.426520 -0.379297
N17   N     N_R   0.667306 0.975176 0.933813 0.303827
O41   O     O_R   0.692529 0.825068 0.927474 -0.258638
O42   O     O_R   0.668781 0.116263 0.898104 -0.240326
N18   N     N_R   0.340543 0.821829 0.064959 0.302911
O43   O     O_R   0.310571 0.935527 0.085252 -0.247336
O44   O     O_R   0.345741 0.652153 0.085464 -0.252323
N19   N     N_R   0.837323 0.457764 0.565701 0.300805
O45   O     O_R   0.800987 0.340728 0.565466 -0.251905
O46   O     O_R   0.852584 0.560333 0.613043 -0.253380
N20   N     N_R   0.161931 0.571783 0.435884 0.300015
O47   O     O_R   0.200111 0.681677 0.438502 -0.254089
O48   O     O_R   0.142789 0.491437 0.385136 -0.248768
O49   O     O_3   0.479927 0.814937 0.872500 -0.692489
H5    H     H_    0.501998 0.735633 0.853162 0.362596
O50   O     O_3   0.531758 0.838455 0.128735 -0.703781
H6    H     H_    0.514377 0.747693 0.150378 0.361947
O51   O     O_3   0.021196 0.206420 0.594943 -0.697969
H7    H     H_    0.998718 0.105541 0.603036 0.351464
O52   O     O_3   0.976475 0.790356 0.399856 -0.706528
H8    H     H_    0.990788 0.809290 0.363333 0.375157
O53   O     O_3   0.676426 0.754610 0.386861 -0.664790
H9    H     H_    0.659610 0.637664 0.394643 0.357082
O54   O     O_3   0.322685 0.243814 0.612180 -0.666713
H10   H     H_    0.339382 0.361299 0.604653 0.358118
O55   O     O_3   0.823152 0.253548 0.113460 -0.667567
H11   H     H_    0.839625 0.136067 0.105219 0.357875
O56   O     O_3   0.170914 0.753404 0.881010 -0.653240
H12   H     H_    0.153624 0.867725 0.890367 0.352731
O57   O     O_3   0.610540 0.752835 0.469955 -0.673494
H13   H     H_    0.645194 0.705848 0.482142 0.374770
O58   O     O_3   0.388966 0.246647 0.529571 -0.673710
H14   H     H_    0.354267 0.293098 0.517321 0.374498
O59   O     O_3   0.888868 0.249353 0.030113 -0.673219
H15   H     H_    0.854170 0.203739 0.017831 0.375633
O60   O     O_3   0.107290 0.748439 0.966685 -0.672098
H16   H     H_    0.141775 0.796606 0.978694 0.371289
N21   N     N_R   0.536531 0.333114 0.384612 0.243812
O61   O     O_R   0.505847 0.369212 0.334232 -0.307752
O62   O     O_R   0.532803 0.425704 0.432916 -0.313749
N22   N     N_R   0.463830 0.668744 0.615969 0.244477
O63   O     O_R   0.467637 0.575167 0.567881 -0.313327
O64   O     O_R   0.494458 0.633597 0.666469 -0.313212
N23   N     N_R   0.962683 0.829748 0.113697 0.244383
O65   O     O_R   0.993609 0.865767 0.163812 -0.300545
O66   O     O_R   0.966092 0.921755 0.065115 -0.311994
N24   N     N_R   0.036178 0.163985 0.883330 0.243478
O67   O     O_R   0.032846 0.071388 0.931824 -0.311465
O68   O     O_R   0.004822 0.129929 0.833387 -0.306241
O69   O     O_3   0.611843 0.352565 0.312679 -0.658094
H17   H     H_    0.592382 0.457650 0.324459 0.352531
O70   O     O_3   0.388595 0.649136 0.687946 -0.668543
H18   H     H_    0.407830 0.543666 0.675972 0.357204
O71   O     O_3   0.887702 0.851458 0.186047 -0.657352
H19   H     H_    0.907211 0.955813 0.174079 0.354152
O72   O     O_3   0.111803 0.146972 0.811438 -0.654641
H20   H     H_    0.090648 0.044295 0.821061 0.356022

loop_
_geom_bond_atom_site_label_1
_geom_bond_atom_site_label_2
_geom_bond_distance
_ccdc_geom_bond_type
O17   V3    1.751310 S    
C64   O72   1.383851 S    
C59   C63   1.424359 A    
O60   H16   0.990785 S    
C25   C29   1.423622 A    
O1    C5    1.321613 A    
O57   H13   0.990448 S    
C63   C67   1.417564 A    
O19   V1    1.754987 S    
C9    C21   1.418827 A    
O59   H15   0.990296 S    
O3    C7    1.327277 A    
O56   H12   0.989838 S    
C10   C18   1.402098 A    
N8    C72   1.359992 A    
C42   O22   1.382165 S    
C56   C60   1.414424 A    
C11   C23   1.418765 A    
N14   O35   1.301131 A    
O55   H11   0.990286 S    
O69   H17   0.988569 S    
C25   C33   1.441115 A    
C33   C38   1.412225 A    
C5    C12   1.484500 S    
N21   O61   1.301164 A    
C20   N15   1.434050 S    
O7    C3    1.342507 A    
C6    C11   1.484632 S    
N17   O42   1.301135 A    
C40   O52   1.381211 S    
O5    C1    1.343319 A    
O53   H9    0.990399 S    
C36   C39   1.411463 A    
C40   C44   1.418080 A    
O9    V1    1.990644 S    
N18   O44   1.301225 A    
C14   C18   1.404577 A    
C48   C68   1.417613 A    
N3    N7    1.333713 A    
N2    N6    1.334015 A    
N19   O45   1.301259 A    
O1    V3    1.980226 S    
C62   O70   1.383554 S    
O13   V1    1.977193 S    
N10   O27   1.301509 A    
O2    V4    1.980231 S    
C46   O54   1.379478 S    
C32   C44   1.413543 A    
O3    V1    1.977881 S    
N24   O67   1.301151 A    
C28   C36   1.435144 A    
C18   N13   1.433572 S    
N9    O25   1.301483 A    
O49   H5    0.990705 S    
C1    O15   1.338206 A    
C15   C31   1.419049 A    
C64   C68   1.418726 A    
N2    C69   1.358833 A    
C2    O16   1.337049 A    
C16   C32   1.418278 A    
C51   O59   1.382022 S    
C45   O53   1.379322 S    
O50   H6    0.991018 S    
C45   C49   1.421147 A    
C10   C22   1.419038 A    
C53   C57   1.414838 A    
C11   C19   1.406614 A    
N20   O48   1.301368 A    
C22   N9    1.441030 S    
C48   C52   1.420135 A    
C63   O71   1.383638 S    
C13   C29   1.424753 A    
C34   C37   1.411603 A    
O11   C7    1.329239 A    
N17   O41   1.301127 A    
O15   V3    1.978174 S    
C35   C36   1.426986 A    
O12   C8    1.332165 A    
C13   N17   1.432943 S    
C54   C69   1.494718 S    
C17   N14   1.436409 S    
C53   C70   1.494474 S    
C46   C66   1.417692 A    
O10   V2    1.990646 S    
C45   C65   1.417770 A    
C1    C68   1.511139 S    
C41   O21   1.381418 S    
C50   O58   1.382205 S    
C43   O23   1.381311 S    
C57   C61   1.424767 A    
C24   N11   1.439892 S    
O5    V1    1.986775 S    
N21   O62   1.301216 A    
C61   O69   1.383616 S    
C39   C43   1.415512 A    
O7    V3    1.988297 S    
C38   O50   1.383766 S    
C38   C42   1.414663 A    
C56   C71   1.493326 S    
O72   H20   0.987999 S    
O8    V4    1.988298 S    
C60   C64   1.425699 A    
C4    C65   1.509416 S    
N18   O43   1.300987 A    
C39   O51   1.382927 S    
C49   O57   1.382159 S    
N7    C71   1.359799 A    
C62   C66   1.417286 A    
O58   H14   0.990417 S    
C61   C65   1.417765 A    
O18   V4    1.751310 S    
C23   N12   1.440919 S    
C15   C19   1.406986 A    
N6    C70   1.359950 A    
O4    V2    1.977876 S    
C44   O24   1.381642 S    
C26   C34   1.440963 A    
C19   N16   1.434184 S    
C46   C50   1.421157 A    
C54   C58   1.415044 A    
C31   C43   1.415735 A    
O54   H10   0.990554 S    
C14   C30   1.423783 A    
C24   C28   1.434174 A    
O8    C4    1.342587 A    
C7    C10   1.493537 S    
C3    C66   1.508631 S    
C21   C25   1.439603 A    
C35   C40   1.415962 A    
O9    C5    1.330559 A    
C26   C30   1.423497 A    
N11   O30   1.300931 A    
N10   O28   1.301158 A    
O14   V2    1.977198 S    
C52   O60   1.381953 S    
N22   O63   1.301223 A    
O6    V2    1.986776 S    
C58   N22   1.435659 S    
C2    C67   1.508882 S    
N13   O33   1.301219 A    
C55   C72   1.493746 S    
C12   C20   1.406512 A    
C27   C35   1.438219 A    
O22   H2    0.991645 S    
N12   O32   1.301510 A    
N15   O37   1.301044 A    
N1    N5    1.334006 A    
C29   C41   1.420858 A    
N3    C72   1.358598 A    
N20   O47   1.301323 A    
O16   V4    1.978171 S    
N19   O46   1.301272 A    
C3    O13   1.337110 A    
C49   C53   1.406876 A    
C47   O55   1.380008 S    
O24   H4    0.990551 S    
C52   C56   1.405768 A    
C15   N19   1.435754 S    
N15   O38   1.300882 A    
N14   O36   1.300599 A    
N1    C70   1.358780 A    
O6    C2    1.343317 A    
C23   C27   1.433115 A    
N11   O29   1.301448 A    
O11   V3    1.994777 S    
N16   O39   1.301090 A    
C30   C42   1.419324 A    
C59   N23   1.435740 S    
O12   V4    1.994774 S    
O21   H1    0.991739 S    
C22   C26   1.440693 A    
C8    C9    1.492014 S    
C16   N20   1.437331 S    
C9    C17   1.405130 A    
O10   C6    1.330251 A    
C60   N24   1.435625 S    
O51   H7    0.990628 S    
O70   H18   0.988720 S    
C58   C62   1.424538 A    
O2    C6    1.322040 A    
C47   C51   1.420956 A    
C21   N10   1.441551 S    
C33   C34   1.423466 A    
C37   O49   1.383866 S    
O4    C8    1.323536 A    
N4    N8    1.333943 A    
O20   V2    1.754986 S    
C48   O56   1.378822 S    
N16   O40   1.300927 A    
C12   C24   1.418256 A    
C27   C31   1.417416 A    
C13   C17   1.406134 A    
O71   H19   0.988515 S    
N24   O68   1.301158 A    
N23   O65   1.301165 A    
C55   C59   1.414762 A    
C37   C41   1.415955 A    
C16   C20   1.407117 A    
C47   C67   1.418429 A    
C50   C54   1.407201 A    
N4    C71   1.358656 A    
C4    O14   1.337421 A    
O52   H8    0.990511 S    
N13   O34   1.300934 A    
C14   N18   1.433592 S    
N9    O26   1.301263 A    
N12   O31   1.301029 A    
O23   H3    0.991507 S    
C51   C55   1.406663 A    
N5    C69   1.359988 A    
C28   C32   1.415336 A    
C57   N21   1.435720 S    
N22   O64   1.301173 A    
N23   O66   1.301212 A    
