data_mof_unit_5990.cif
_audit_creation_date              2013-03-05T15:48:52-0500
_audit_creation_method            fapswitch 2.2
_symmetry_space_group_name_H-M    P1
_symmetry_Int_Tables_number       1
_space_group_crystal_system       triclinic
_cell_length_a                    17.846398
_cell_length_b                    24.584702
_cell_length_c                    15.200764
_cell_angle_alpha                 89.985408
_cell_angle_beta                  125.160934
_cell_angle_gamma                 89.78003
_cell_volume                      5452.34806031

loop_
_atom_site_label
_atom_site_type_symbol
_atom_site_description
_atom_site_fract_x
_atom_site_fract_y
_atom_site_fract_z
_atom_type_partial_charge
C1    C     C_R   0.901176 0.879224 0.091538 -0.106622
C2    C     C_R   0.897916 0.118355 0.089230 -0.077508
C3    C     C_R   0.401588 0.378188 0.091239 -0.085130
C4    C     C_R   0.397057 0.616452 0.089242 -0.107136
H1    H     H_    0.930327 0.870681 0.174894 0.068545
H2    H     H_    0.920659 0.125018 0.170552 0.112258
H3    H     H_    0.427813 0.373814 0.174666 0.084443
H4    H     H_    0.419179 0.621883 0.170368 0.101524
N1    N     N_R   0.950530 0.896220 0.057200 -0.037165
N2    N     N_R   0.950530 0.103780 0.057200 -0.041911
N3    N     N_R   0.450530 0.396220 0.057200 -0.051365
N4    N     N_R   0.450530 0.603780 0.057200 -0.030998
C5    C     C_R   0.808894 0.115173 0.910667 -0.127744
C6    C     C_R   0.810275 0.882537 0.911376 -0.014687
C7    C     C_R   0.308403 0.614623 0.911215 -0.079545
C8    C     C_R   0.311306 0.379345 0.910716 -0.068385
H5    H     H_    0.750408 0.114607 0.828352 0.174952
H6    H     H_    0.753510 0.880296 0.828924 0.159220
H7    H     H_    0.249860 0.614902 0.828792 0.157431
H8    H     H_    0.256041 0.374281 0.827443 0.178237
N5    N     N_R   0.893330 0.103780 0.942800 -0.057367
N6    N     N_R   0.893330 0.896220 0.942800 -0.037965
N7    N     N_R   0.393330 0.603780 0.942800 -0.052376
N8    N     N_R   0.393330 0.396220 0.942800 -0.058047
C9    C     C_R   0.751561 0.953958 0.697969 -0.029895
C10   C     C_R   0.749172 0.044190 0.694731 -0.185891
C11   C     C_R   0.253031 0.455530 0.694979 0.050804
C12   C     C_R   0.249244 0.545274 0.696185 -0.221363
H9    H     H_    0.743168 0.911299 0.680686 0.110577
H10   H     H_    0.735688 0.086141 0.669530 0.167209
H11   H     H_    0.253497 0.415632 0.666937 0.133662
H12   H     H_    0.237718 0.587308 0.671951 0.177230
N9    N     N_R   0.818150 0.971400 0.792440 -0.059291
N10   N     N_R   0.818150 0.028600 0.792440 -0.048857
N11   N     N_R   0.318150 0.471400 0.792440 -0.053884
N12   N     N_R   0.318150 0.528600 0.792440 -0.048403
C13   C     C_R   0.054926 0.044691 0.306272 -0.068756
C14   C     C_R   0.061704 0.954042 0.306826 -0.222173
C15   C     C_R   0.551451 0.545203 0.304546 -0.090849
C16   C     C_R   0.556549 0.454452 0.305681 -0.151781
N13   N     N_R   0.025710 0.028600 0.207560 -0.049399
N14   N     N_R   0.025710 0.971400 0.207560 -0.088535
N15   N     N_R   0.525710 0.528600 0.207560 -0.049891
N16   N     N_R   0.525710 0.471400 0.207560 -0.087466
C17   C     C_R   0.815095 0.864793 0.000799 0.060836
C18   C     C_R   0.812335 0.132360 0.999104 0.053438
C19   C     C_R   0.316702 0.362059 0.001339 0.047007
C20   C     C_R   0.310674 0.629933 0.000317 -0.023108
C21   C     C_R   0.702178 0.998162 0.635536 0.016662
C22   C     C_R   0.201550 0.500172 0.635910 0.046000
C23   C     C_R   0.076379 0.998635 0.371407 0.021486
C24   C     C_R   0.569212 0.499387 0.368198 0.035444
C25   C     C_R   0.265725 0.953673 0.271699 0.028172
C26   C     C_R   0.267212 0.045440 0.277468 -0.010969
C27   C     C_R   0.762868 0.451859 0.281997 -0.050483
C28   C     C_R   0.765526 0.544890 0.282694 -0.036936
N17   N     N_R   0.181850 0.971400 0.207560 -0.081690
N18   N     N_R   0.181850 0.028600 0.207560 -0.076845
N19   N     N_R   0.681850 0.471400 0.207560 -0.085054
N20   N     N_R   0.681850 0.528600 0.207560 -0.065965
C29   C     C_R   0.016108 0.045241 0.747860 -0.020373
C30   C     C_R   0.008230 0.953834 0.740444 -0.092388
C31   C     C_R   0.510909 0.545647 0.742840 -0.041965
C32   C     C_R   0.504195 0.453940 0.736579 -0.089181
H13   H     H_    0.025594 0.087069 0.735443 0.153857
H14   H     H_    0.006658 0.911797 0.721000 0.140894
H15   H     H_    0.515801 0.587444 0.726618 0.156527
H16   H     H_    0.501372 0.411904 0.716249 0.141797
N21   N     N_R   0.974290 0.028600 0.792440 -0.043929
N22   N     N_R   0.974290 0.971400 0.792440 -0.049823
N23   N     N_R   0.474290 0.528600 0.792440 -0.047979
N24   N     N_R   0.474290 0.471400 0.792440 -0.051741
C33   C     C_R   0.049337 0.846628 0.907660 0.265257
C34   C     C_R   0.051696 0.153153 0.909198 0.164874
C35   C     C_R   0.554108 0.348968 0.905144 0.246124
C36   C     C_R   0.553866 0.651134 0.905444 0.237228
N25   N     N_R   0.049470 0.896220 0.942800 -0.070200
N26   N     N_R   0.049470 0.103780 0.942800 -0.060494
N27   N     N_R   0.549470 0.396220 0.942800 -0.067522
N28   N     N_R   0.549470 0.603780 0.942800 -0.072386
C37   C     C_R   0.140735 0.153105 0.087966 -0.045487
C38   C     C_R   0.138419 0.845095 0.084788 -0.187828
C39   C     C_R   0.646804 0.652174 0.084650 -0.177077
C40   C     C_R   0.647855 0.347612 0.083632 -0.227406
H17   H     H_    0.171554 0.167292 0.167874 0.172850
H18   H     H_    0.161391 0.826933 0.160650 0.197026
H19   H     H_    0.679287 0.669984 0.162949 0.163486
H20   H     H_    0.679948 0.327850 0.160012 0.145703
N29   N     N_R   0.106670 0.103780 0.057200 -0.059668
N30   N     N_R   0.106670 0.896220 0.057200 -0.066231
N31   N     N_R   0.606670 0.603780 0.057200 -0.050091
N32   N     N_R   0.606670 0.396220 0.057200 -0.057186
Ni1   Ni    Ni4+2 0.065600 0.934400 0.131190 0.244706
Ni2   Ni    Ni4+2 0.065600 0.065600 0.131190 0.270949
Ni3   Ni    Ni4+2 0.565600 0.434400 0.131190 0.224073
Ni4   Ni    Ni4+2 0.565600 0.565600 0.131190 0.273452
Ni5   Ni    Ni4+2 0.934400 0.065600 0.868810 0.271499
Ni6   Ni    Ni4+2 0.934400 0.934400 0.868810 0.274975
Ni7   Ni    Ni4+2 0.434400 0.565600 0.868810 0.278986
Ni8   Ni    Ni4+2 0.434400 0.434400 0.868810 0.267170
C41   C     C_R   0.323614 0.998420 0.316596 0.002647
C42   C     C_R   0.820478 0.497628 0.330315 0.068764
C43   C     C_R   0.035502 0.999346 0.710990 0.057004
C44   C     C_R   0.528563 0.499806 0.704814 0.065231
C45   C     C_R   0.112925 0.814834 0.995152 0.025874
C46   C     C_R   0.114780 0.184187 0.999368 -0.051154
C47   C     C_R   0.624971 0.320213 0.991874 0.034478
C48   C     C_R   0.623335 0.679974 0.992436 -0.023774
C49   C     C_3   0.968823 0.015929 0.423640 -0.351359
C50   C     C_3   0.088430 0.938833 0.519459 -0.276832
C51   C     C_3   0.460328 0.517494 0.418183 -0.321051
C52   C     C_3   0.579778 0.440112 0.514656 -0.268694
H21   H     H_    0.966585 0.060352 0.409809 0.154648
H22   H     H_    0.157176 0.925346 0.544721 0.250718
H23   H     H_    0.458714 0.562207 0.407267 0.151196
H24   H     H_    0.648266 0.426419 0.540432 0.256771
C53   C     C_3   0.954345 0.007335 0.513387 0.088131
C54   C     C_3   0.093484 0.944434 0.623729 0.033945
C55   C     C_3   0.445275 0.506800 0.506992 0.085801
C56   C     C_3   0.586711 0.445895 0.619206 0.026274
H25   H     H_    0.914147 0.969847 0.499213 0.157243
H26   H     H_    0.056403 0.909745 0.626939 0.122874
H27   H     H_    0.407425 0.468170 0.491996 0.156100
H28   H     H_    0.552487 0.410472 0.624951 0.133145
H29   H     H_    0.150025 0.075053 0.531308 0.164410
H30   H     H_    0.209335 0.016704 0.600140 0.227432
H31   H     H_    0.642401 0.576435 0.527053 0.168025
H32   H     H_    0.700760 0.518131 0.595825 0.234284
H33   H     H_    0.078807 0.086043 0.617859 0.202221
H34   H     H_    0.176910 0.048452 0.719720 0.227512
H35   H     H_    0.565820 0.586803 0.606798 0.206932
H36   H     H_    0.665854 0.552058 0.712990 0.228661
C57   C     C_3   0.140067 0.035642 0.556682 -0.339413
C58   C     C_3   0.631573 0.537076 0.551590 -0.343050
C59   C     C_3   0.068098 0.996493 0.464193 0.068657
C60   C     C_3   0.559788 0.497826 0.459344 0.065663
C61   C     C_3   0.049735 0.999783 0.624047 0.042819
C62   C     C_3   0.541185 0.500556 0.617779 0.042796
C63   C     C_3   0.114080 0.045992 0.636269 -0.327744
C64   C     C_3   0.603930 0.547671 0.629197 -0.334440
C65   C     C_3   0.698817 0.205734 0.878424 -0.319298
C66   C     C_3   0.701475 0.791294 0.878745 -0.346397
C67   C     C_3   0.197324 0.704177 0.884707 -0.316317
C68   C     C_3   0.209233 0.284158 0.889837 -0.345685
H37   H     H_    0.650930 0.173301 0.825051 0.223817
H38   H     H_    0.652961 0.823235 0.823121 0.194547
H39   H     H_    0.149660 0.672447 0.827657 0.226669
H40   H     H_    0.152020 0.311815 0.831700 0.224510
C69   C     C_3   0.137180 0.750577 0.879883 0.002906
C70   C     C_3   0.166762 0.231630 0.897561 0.040071
C71   C     C_3   0.638483 0.251930 0.874115 0.026260
C72   C     C_3   0.641245 0.744870 0.873298 0.008833
H41   H     H_    0.570034 0.233951 0.839484 0.212170
H42   H     H_    0.571530 0.762283 0.832662 0.213494
H43   H     H_    0.066890 0.734494 0.833448 0.220058
H44   H     H_    0.095045 0.233674 0.827264 0.191457
C73   C     C_3   0.326385 0.722387 0.081629 -0.344495
C74   C     C_3   0.330633 0.273531 0.093653 -0.372099
C75   C     C_3   0.834748 0.228146 0.070430 -0.343967
C76   C     C_3   0.833065 0.770418 0.075685 -0.272579
C77   C     C_3   0.704032 0.167992 0.041428 0.136438
C78   C     C_3   0.698044 0.832407 0.032242 0.029312
C79   C     C_3   0.195384 0.660637 0.040296 0.051661
C80   C     C_3   0.190427 0.336434 0.024046 0.064818
C81   C     C_3   0.763219 0.182414 0.996769 -0.065244
C82   C     C_3   0.763408 0.815859 0.996716 0.016392
C83   C     C_3   0.257731 0.677971 0.000667 -0.023704
C84   C     C_3   0.262978 0.315205 0.001827 -0.045329
C85   C     C_3   0.164575 0.764812 0.996940 0.071826
C86   C     C_3   0.169994 0.231544 0.003504 0.089700
C87   C     C_3   0.675420 0.270967 0.992385 0.087166
C88   C     C_3   0.673510 0.728454 0.991311 0.120148
C89   C     C_3   0.274213 0.774736 0.076173 0.021323
C90   C     C_3   0.276249 0.228246 0.106527 0.024749
C91   C     C_3   0.784010 0.282582 0.059602 -0.005910
C92   C     C_3   0.782195 0.716535 0.063297 -0.036315
C93   C     C_3   0.141228 0.712762 0.038283 -0.371575
C94   C     C_3   0.126256 0.287050 0.006656 -0.387448
C95   C     C_3   0.662121 0.222302 0.050355 -0.433821
C96   C     C_3   0.654199 0.778872 0.040234 -0.382260
H45   H     H_    0.163733 0.722796 0.120255 0.202285
H46   H     H_    0.120055 0.284794 0.074647 0.214754
H47   H     H_    0.701225 0.233940 0.136140 0.136507
H48   H     H_    0.689057 0.768958 0.126455 0.162773
H49   H     H_    0.357866 0.702991 0.161766 0.158178
H50   H     H_    0.370037 0.296325 0.170333 0.129731
H51   H     H_    0.868967 0.212201 0.153053 0.166802
H52   H     H_    0.861394 0.787438 0.156485 0.128696
C97   C     C_3   0.474806 0.023763 0.353044 -0.037305
C98   C     C_3   0.445092 0.021780 0.503960 0.017338
C99   C     C_3   0.969133 0.518551 0.357497 -0.063627
C100  C     C_3   0.945337 0.532416 0.510660 -0.045508
H53   H     H_    0.454438 0.066685 0.340119 0.217761
H54   H     H_    0.406716 0.059650 0.488897 0.145263
H55   H     H_    0.952119 0.562002 0.339644 0.179217
H56   H     H_    0.910138 0.571335 0.490778 0.182812
C101  C     C_3   0.582864 0.018890 0.434494 -0.327518
C102  C     C_3   0.548494 0.035247 0.581130 -0.318995
C103  C     C_3   0.076732 0.511530 0.435437 -0.313583
C104  C     C_3   0.049780 0.545208 0.581028 -0.308191
H57   H     H_    0.455143 0.918829 0.356381 0.184452
H58   H     H_    0.423031 0.912450 0.447578 0.212325
H59   H     H_    0.951375 0.418613 0.386219 0.215450
H60   H     H_    0.916423 0.421538 0.477792 0.223408
C105  C     C_3   0.463081 0.937068 0.428252 -0.440821
C106  C     C_3   0.958167 0.440733 0.454317 -0.480878
C107  C     C_3   0.424886 0.995772 0.398829 0.077711
C108  C     C_3   0.921253 0.497828 0.411777 0.113749
C109  C     C_3   0.602737 0.996681 0.546701 -0.012175
C110  C     C_3   0.100289 0.499197 0.553203 -0.023216
C111  C     C_3   0.563576 0.934177 0.526077 -0.158540
C112  C     C_3   0.058259 0.439756 0.551900 -0.204265
C113  C     C_2   0.889990 0.993651 0.315287 0.587893
H61   H     H_    0.890851 0.997774 0.244964 0.035682
O1    O     O_2   0.822486 0.973237 0.303534 -0.480498
C114  C     C_2   0.020668 0.894105 0.450641 0.462000
H62   H     H_    0.947798 0.899977 0.409554 0.063410
O2    O     O_2   0.048128 0.849079 0.447482 -0.501665
C115  C     C_2   0.381795 0.496750 0.308122 0.503104
H63   H     H_    0.383651 0.502257 0.238700 0.017721
O3    O     O_2   0.313729 0.475897 0.294242 -0.498049
C116  C     C_2   0.511583 0.395236 0.446902 0.456176
H64   H     H_    0.438688 0.402816 0.395187 0.063677
O4    O     O_2   0.538464 0.348401 0.455802 -0.496995
I1    I     I_    0.867454 0.074163 0.498535 -0.261821
I2    I     I_    0.234276 0.934870 0.765139 -0.161087
I3    I     I_    0.353463 0.570053 0.492507 -0.217989
I4    I     I_    0.728532 0.439076 0.758316 -0.186266
C117  C     C_2   0.750157 0.223385 0.830073 0.673544
H65   H     H_    0.798840 0.256160 0.864336 0.034942
O5    O     O_2   0.731859 0.203756 0.746111 -0.500267
C118  C     C_2   0.753403 0.773733 0.831764 0.716997
H66   H     H_    0.805766 0.742692 0.869708 0.130746
O6    O     O_2   0.730465 0.791047 0.744157 -0.552159
C119  C     C_2   0.253388 0.724128 0.844112 0.671960
H67   H     H_    0.301424 0.757123 0.883518 0.064530
O7    O     O_2   0.238455 0.707184 0.760016 -0.483791
C120  C     C_2   0.259366 0.272710 0.837851 0.640053
H68   H     H_    0.333099 0.274581 0.882833 0.040449
O8    O     O_2   0.216032 0.262128 0.742049 -0.450907
I5    I     I_    0.111548 0.811990 0.759591 -0.252379
I6    I     I_    0.203609 0.155763 0.853410 -0.316991
I7    I     I_    0.602790 0.309002 0.743028 -0.247262
I8    I     I_    0.612095 0.684812 0.748519 -0.321490
C121  C     C_2   0.412518 0.733561 0.086447 0.594683
H69   H     H_    0.421110 0.718476 0.025861 -0.003185
O9    O     O_2   0.476587 0.757509 0.163699 -0.537856
C122  C     C_2   0.405193 0.251956 0.083665 0.625930
H70   H     H_    0.389929 0.221822 0.023655 0.070453
O10   O     O_2   0.484576 0.266445 0.146642 -0.599736
C123  C     C_2   0.917408 0.235445 0.066212 0.628097
H71   H     H_    0.921844 0.215582 0.005790 -0.036534
O11   O     O_2   0.982798 0.262340 0.134896 -0.509345
C124  C     C_2   0.921493 0.759905 0.084827 0.481961
H72   H     H_    0.972651 0.733232 0.148558 0.070442
O12   O     O_2   0.938422 0.781072 0.025671 -0.619105
I9    I     I_    0.309862 0.847543 0.024811 -0.303683
I10   I     I_    0.340529 0.147766 0.133071 -0.260810
I11   I     I_    0.813509 0.348910 0.989051 -0.278472
I12   I     I_    0.815361 0.648739 0.996324 -0.334106
C125  C     C_2   0.762020 0.141568 0.153199 0.455514
H73   H     H_    0.808266 0.165879 0.223915 0.070440
O13   O     O_2   0.758361 0.092889 0.166187 -0.515387
C126  C     C_2   0.746294 0.860926 0.140855 0.623952
H74   H     H_    0.819588 0.865162 0.193541 -0.027138
O14   O     O_2   0.701844 0.878067 0.173115 -0.487378
C127  C     C_2   0.252192 0.633857 0.151766 0.567635
H75   H     H_    0.290275 0.596916 0.163342 -0.001205
O15   O     O_2   0.254156 0.651083 0.228398 -0.497349
C128  C     C_2   0.236397 0.359185 0.137316 0.678938
H76   H     H_    0.307569 0.370940 0.185456 -0.054325
O16   O     O_2   0.191759 0.368782 0.173437 -0.468423
I13   I     I_    0.598384 0.108203 0.936505 -0.115748
I14   I     I_    0.598976 0.894422 0.921449 -0.122693
I15   I     I_    0.107975 0.592385 0.950028 -0.189731
I16   I     I_    0.116912 0.409329 0.931783 -0.169734
C129  C     C_2   0.567581 0.214699 0.025576 0.646180
H77   H     H_    0.562024 0.200339 0.089058 0.080865
O17   O     O_2   0.497922 0.220582 0.935341 -0.558929
C130  C     C_2   0.556124 0.786756 0.004749 0.633718
H78   H     H_    0.543278 0.793104 0.065434 0.094337
O18   O     O_2   0.491811 0.789402 0.910285 -0.529586
C131  C     C_2   0.040775 0.701727 0.988825 0.706246
H79   H     H_    0.021321 0.689052 0.041381 0.051276
O19   O     O_2   0.982237 0.701880 0.892080 -0.520059
C132  C     C_2   0.026130 0.294415 0.913623 0.673940
H80   H     H_    0.973383 0.287681 0.927099 0.033510
O20   O     O_2   0.002544 0.306758 0.823208 -0.527517
C133  C     C_2   0.317130 0.787197 0.194582 0.518078
H81   H     H_    0.380703 0.809931 0.238809 0.112792
O21   O     O_2   0.293519 0.765432 0.246942 -0.516146
C134  C     C_2   0.296051 0.236851 0.218416 0.486654
H82   H     H_    0.365912 0.230919 0.288593 0.137715
O22   O     O_2   0.239301 0.251567 0.233932 -0.548230
C135  C     C_2   0.827910 0.304691 0.173038 0.595159
H83   H     H_    0.842062 0.347813 0.188246 0.094642
O23   O     O_2   0.847705 0.275494 0.248773 -0.550460
C136  C     C_2   0.824920 0.695942 0.177496 0.486877
H84   H     H_    0.857865 0.656416 0.200974 0.132750
O24   O     O_2   0.827683 0.723659 0.246066 -0.539309
I17   I     I_    0.416964 0.000402 0.186133 -0.224844
I18   I     I_    0.378007 0.976825 0.565942 -0.204660
I19   I     I_    0.904659 0.491773 0.191333 -0.262000
I20   I     I_    0.875938 0.502172 0.582693 -0.277613
C137  C     C_2   0.627927 0.073369 0.442277 0.597842
H85   H     H_    0.699497 0.079799 0.504837 0.081703
O25   O     O_2   0.587619 0.108794 0.373657 -0.515021
C138  C     C_2   0.556837 0.096631 0.567209 0.463096
H86   H     H_    0.524269 0.114479 0.488596 0.134948
O26   O     O_2   0.594007 0.128182 0.642858 -0.542153
C139  C     C_2   0.121432 0.562437 0.427660 0.610561
H87   H     H_    0.180798 0.580434 0.498059 0.046010
O27   O     O_2   0.094030 0.582216 0.340118 -0.505395
C140  C     C_2   0.060051 0.604042 0.553133 0.508117
H88   H     H_    0.026890 0.617133 0.471084 0.091425
O28   O     O_2   0.100221 0.639322 0.621404 -0.508855
C141  C     C_2   0.623105 0.980862 0.392224 0.616819
H89   H     H_    0.581961 0.949734 0.333555 0.078303
O29   O     O_2   0.704823 0.981400 0.429640 -0.551852
C142  C     C_2   0.580472 0.029489 0.698229 0.830304
H90   H     H_    0.647808 0.014212 0.760632 0.035910
O30   O     O_2   0.534528 0.048307 0.726925 -0.512109
C143  C     C_2   0.113185 0.466667 0.400440 0.634434
H91   H     H_    0.067876 0.438782 0.336480 0.068543
O31   O     O_2   0.195649 0.459993 0.446229 -0.560357
C144  C     C_2   0.082394 0.547825 0.697977 0.713497
H92   H     H_    0.145485 0.529326 0.762805 0.061298
O32   O     O_2   0.041189 0.576843 0.721868 -0.506301
C145  C     C_2   0.610659 0.891608 0.498632 0.439970
H93   H     H_    0.675924 0.898969 0.511320 0.081261
O33   O     O_2   0.576843 0.846637 0.465075 -0.505636
C146  C     C_2   0.565076 0.906050 0.617634 0.571820
H94   H     H_    0.528964 0.867752 0.601157 0.119156
O34   O     O_2   0.606747 0.922888 0.709137 -0.644750
C147  C     C_2   0.098285 0.387642 0.536536 0.544226
H95   H     H_    0.094825 0.380171 0.464479 0.051087
O35   O     O_2   0.128863 0.350259 0.601637 -0.515242
C148  C     C_2   0.060810 0.428863 0.653067 0.636771
H96   H     H_    0.003888 0.409669 0.648150 0.105657
O36   O     O_2   0.130239 0.435301 0.742542 -0.632018
C149  C     C_2   0.069128 0.102673 0.337655 0.432709
H97   H     H_    0.055023 0.118594 0.392944 0.052566
O37   O     O_2   0.090551 0.134931 0.294901 -0.576241
C150  C     C_2   0.116967 0.903682 0.341471 0.692470
H98   H     H_    0.092629 0.869046 0.287755 0.015785
O38   O     O_2   0.192835 0.901308 0.426026 -0.502702
C151  C     C_2   0.565678 0.603199 0.335897 0.449367
H99   H     H_    0.548117 0.619466 0.387889 0.051954
O39   O     O_2   0.590033 0.635124 0.295771 -0.574357
C152  C     C_2   0.607527 0.402861 0.345341 0.500021
H100  H     H_    0.578966 0.366156 0.298081 0.069840
O40   O     O_2   0.685188 0.401269 0.427614 -0.553718
C153  C     C_2   0.287179 0.896933 0.276913 0.474104
H101  H     H_    0.314758 0.884576 0.233364 -0.001125
O41   O     O_2   0.277802 0.865283 0.331728 -0.509210
C154  C     C_2   0.286286 0.101483 0.319501 0.427958
H102  H     H_    0.235703 0.122738 0.323804 0.125879
O42   O     O_2   0.357001 0.124993 0.349488 -0.610534
C155  C     C_2   0.768811 0.393485 0.310742 0.555095
H103  H     H_    0.707964 0.374273 0.293021 0.042704
O43   O     O_2   0.833608 0.363623 0.340582 -0.579308
C156  C     C_2   0.783302 0.601991 0.317286 0.423281
H104  H     H_    0.731534 0.625079 0.316289 0.136173
O44   O     O_2   0.854188 0.624603 0.345420 -0.607502
I21   I     I_    0.921518 0.817790 0.772443 -0.250923
I22   I     I_    0.934239 0.180677 0.759213 -0.295523
I23   I     I_    0.425140 0.317565 0.774324 -0.285324
I24   I     I_    0.426897 0.682706 0.771184 -0.230661

loop_
_geom_bond_atom_site_label_1
_geom_bond_atom_site_label_2
_geom_bond_distance
_ccdc_geom_bond_type
C35   C47   1.381862 A    
C27   N19   1.308337 A    
C46   C86   1.505958 S    
C66   H38   1.110161 S    
C102  C138  1.543437 S    
C50   C54   1.541038 S    
C47   C87   1.503335 S    
N4    N7    1.421804 A    
C45   C85   1.524850 S    
C86   C94   1.583856 S    
C72   I8    2.217934 S    
C43   C61   1.482537 S    
C105  C111  1.536283 S    
C30   N22   1.314391 A    
C38   C45   1.380618 A    
N29   Ni2   1.907202 S    
C151  H99   1.080367 S    
C102  C109  1.639092 S    
C124  O12   1.218409 D    
H35   C64   1.110011 S    
C41   C107  1.493416 S    
N31   Ni4   1.907202 S    
C93   C131  1.517968 S    
C16   C152  1.469324 S    
C111  C146  1.540218 S    
C76   C92   1.557867 S    
C144  H92   1.078700 S    
C76   C82   1.582482 S    
C4    N4    1.333461 A    
C35   I23   2.142632 S    
C11   C22   1.377137 A    
C65   H37   1.109660 S    
C105  C107  1.545489 S    
N19   N20   1.406245 A    
C121  H69   1.082389 S    
C74   C122  1.517321 S    
C153  O41   1.220259 D    
C122  O10   1.221635 D    
C6    C17   1.382076 A    
C113  O1    1.221448 D    
N26   N29   1.421804 A    
C9    H9    1.071164 S    
C120  O8    1.221098 D    
C11   H11   1.071498 S    
C143  H91   1.080837 S    
C103  C139  1.527393 S    
C12   H12   1.075553 S    
C147  O35   1.222882 D    
C11   N11   1.310884 A    
C140  H88   1.075897 S    
N23   Ni7   1.905064 S    
C50   C114  1.523051 S    
N15   N16   1.406245 A    
C89   I9    2.190491 S    
C117  H65   1.076923 S    
N5    Ni5   1.904714 S    
C66   C118  1.521366 S    
N13   Ni2   1.907391 S    
C8    H8    1.074077 S    
C118  O6    1.221762 D    
N15   Ni4   1.907391 S    
C68   C120  1.522041 S    
C130  H78   1.082230 S    
C94   H46   1.102378 S    
C77   I13   2.195044 S    
C31   N23   1.319329 A    
C57   C63   1.545592 S    
C1    H1    1.077056 S    
C56   C62   1.561325 S    
C136  H84   1.082174 S    
C14   C150  1.474789 S    
N30   Ni1   1.904714 S    
C86   C90   1.622760 S    
C97   C101  1.585680 S    
C101  C137  1.534081 S    
N8    Ni8   1.907205 S    
C40   H20   1.069464 S    
C31   C44   1.382335 A    
C58   C60   1.574733 S    
C55   H27   1.112601 S    
C100  I20   2.203243 S    
C39   N31   1.328608 A    
C134  O22   1.218447 D    
C69   H43   1.101045 S    
C75   C123  1.524277 S    
C132  O20   1.220923 D    
C112  C147  1.546457 S    
C70   C86   1.577902 S    
N12   Ni7   1.928825 S    
C71   H41   1.108305 S    
C152  H100  1.082718 S    
C3    N3    1.323065 A    
C71   I7    2.207904 S    
C147  H95   1.076840 S    
C106  C112  1.529563 S    
C67   C69   1.535772 S    
C155  H103  1.068612 S    
C57   C59   1.575752 S    
C33   N25   1.330671 A    
C25   C153  1.435134 S    
C42   C108  1.484237 S    
C77   C81   1.590874 S    
C96   H48   1.106234 S    
N6    Ni6   1.907205 S    
C18   C81   1.496591 S    
C49   C59   1.575663 S    
N14   Ni1   1.905065 S    
C26   C41   1.415770 A    
H31   C58   1.094075 S    
C36   I24   2.135777 S    
C135  O23   1.222531 D    
C54   I2    2.182596 S    
C69   C85   1.589738 S    
C32   H16   1.071763 S    
C73   H49   1.111895 S    
C89   C133  1.527901 S    
C125  H73   1.084526 S    
C72   C88   1.587653 S    
C51   C60   1.577984 S    
N17   Ni1   1.928824 S    
C34   C46   1.399337 A    
C156  H104  1.075090 S    
C66   C72   1.540056 S    
N10   Ni5   1.928825 S    
C71   C87   1.588554 S    
C51   C55   1.543282 S    
C54   H26   1.099615 S    
C75   H51   1.103864 S    
C68   C70   1.538157 S    
C33   C45   1.386339 A    
C126  H74   1.075991 S    
C137  O25   1.222486 D    
C33   I21   2.131627 S    
C77   C95   1.571615 S    
C17   C82   1.498218 S    
C50   H22   1.103095 S    
C78   C96   1.573731 S    
C100  C104  1.557453 S    
C129  H77   1.084423 S    
C145  O33   1.223776 D    
C87   C95   1.583255 S    
N21   N22   1.406245 A    
C51   C115  1.525992 S    
C7    C20   1.383822 A    
C52   C60   1.580313 S    
C8    C19   1.390715 A    
C85   C93   1.584698 S    
C138  O26   1.220606 D    
C149  O37   1.218897 D    
C30   H14   1.071011 S    
C146  H94   1.087860 S    
C65   C117  1.531824 S    
C14   C23   1.393124 A    
C75   C81   1.585154 S    
C143  O31   1.222925 D    
C142  O30   1.218909 D    
H32   C58   1.110333 S    
C66   C82   1.589012 S    
C103  C143  1.521874 S    
H33   C63   1.111886 S    
C78   C126  1.525337 S    
C130  O18   1.218462 D    
N26   Ni5   1.928312 S    
C154  O42   1.215599 D    
C133  H81   1.085403 S    
C116  O4    1.222751 D    
C67   C83   1.577895 S    
C13   C149  1.479065 S    
C10   H10   1.077076 S    
C148  O36   1.212763 D    
C139  O27   1.222587 D    
N28   Ni7   1.928312 S    
C24   C60   1.489213 S    
N11   Ni8   1.921018 S    
C27   C155  1.485555 S    
C52   H24   1.098171 S    
C80   C94   1.586691 S    
C32   C44   1.392504 A    
C55   C62   1.570753 S    
C36   N28   1.317412 A    
C72   H42   1.106061 S    
C74   C90   1.564191 S    
C90   I10   2.200601 S    
C127  H75   1.084030 S    
C110  C112  1.640080 S    
C5    H5    1.072933 S    
C6    N6    1.314073 A    
C48   C88   1.499491 S    
C28   C42   1.417395 A    
N23   N24   1.406245 A    
C19   C84   1.504279 S    
C78   I14   2.198905 S    
C26   C154  1.475109 S    
N17   N18   1.406245 A    
C20   C83   1.511525 S    
C35   N27   1.318393 A    
C93   H45   1.095120 S    
C3    C19   1.392906 A    
C29   H13   1.076928 S    
C13   N13   1.334412 A    
C99   H55   1.099727 S    
C97   H53   1.094959 S    
C98   C107  1.559252 S    
C16   N16   1.324235 A    
N3    Ni3   1.928313 S    
C150  H98   1.084038 S    
C22   C110  1.493504 S    
C101  C141  1.526191 S    
C131  H79   1.084454 S    
C85   C89   1.621174 S    
C144  O32   1.218722 D    
C40   N32   1.335146 A    
C73   C121  1.522270 S    
C115  O3    1.221696 D    
C37   H17   1.063864 S    
C88   C92   1.611319 S    
C9    N9    1.302688 A    
N21   Ni5   1.905064 S    
C39   H19   1.073264 S    
N13   N14   1.406245 A    
N11   N12   1.406245 A    
C73   C83   1.575573 S    
C153  H101  1.070942 S    
C74   C84   1.582578 S    
C123  H71   1.082576 S    
C79   I15   2.165103 S    
C113  H61   1.082613 S    
C94   C132  1.520727 S    
C7    H7    1.074084 S    
C61   C63   1.551836 S    
C27   C42   1.414985 A    
C92   C136  1.524207 S    
C100  H56   1.085369 S    
C29   C43   1.388414 A    
C3    H3    1.074601 S    
C77   C125  1.532584 S    
C4    C20   1.381800 A    
C106  C108  1.524541 S    
C140  O28   1.221295 D    
C39   C48   1.388710 A    
C76   C124  1.523446 S    
C141  O29   1.222843 D    
C78   C82   1.593714 S    
C25   C41   1.392956 A    
H58   C105  1.099333 S    
C79   C93   1.591737 S    
C119  H67   1.079759 S    
C56   I4    2.176665 S    
C4    H4    1.064975 S    
C37   N29   1.318073 A    
C88   C96   1.581315 S    
C36   C48   1.381090 A    
C136  O24   1.222544 D    
H34   C63   1.110151 S    
C74   H50   1.107453 S    
H59   C106  1.112751 S    
N25   N30   1.421804 A    
N27   Ni8   1.920343 S    
C1    N1    1.324785 A    
C10   C21   1.390014 A    
C115  H63   1.083165 S    
C25   N17   1.301932 A    
C92   I12   2.202748 S    
C38   H18   1.072880 S    
C104  C110  1.643909 S    
C28   N20   1.317293 A    
C49   C53   1.542332 S    
C124  H72   1.085555 S    
C80   C84   1.600445 S    
C111  C145  1.540300 S    
C53   I1    2.175287 S    
C102  C142  1.530805 S    
C152  O40   1.220535 D    
C104  C140  1.548151 S    
N20   Ni4   1.921017 S    
C121  O9    1.221493 D    
C26   N18   1.327390 A    
C135  H83   1.084458 S    
C122  H70   1.082053 S    
C98   C102  1.550061 S    
C52   C56   1.528078 S    
C80   C128  1.525637 S    
C120  H68   1.079510 S    
C79   C127  1.532382 S    
C65   C81   1.580788 S    
C80   I16   2.182039 S    
C114  O2    1.220975 D    
N2    N5    1.421804 A    
C96   C130  1.517219 S    
H36   C64   1.111325 S    
C38   N30   1.340619 A    
C103  C110  1.614069 S    
N28   N31   1.421804 A    
C117  O5    1.220618 D    
C127  O15   1.220993 D    
C5    C18   1.376542 A    
C156  O44   1.214375 D    
C97   C107  1.571685 S    
C15   C151  1.479283 S    
C118  H66   1.077889 S    
C9    C21   1.373732 A    
C104  C144  1.520464 S    
C70   I6    2.204804 S    
C12   N12   1.320833 A    
C126  O14   1.221845 D    
C137  H85   1.078619 S    
C34   N26   1.326375 A    
C21   C109  1.488178 S    
C128  H76   1.079224 S    
N4    Ni4   1.920341 S    
C73   C89   1.559453 S    
N7    Ni7   1.904714 S    
C139  H87   1.077695 S    
N2    Ni2   1.920341 S    
C131  O19   1.218423 D    
C91   C135  1.526547 S    
C145  H93   1.081417 S    
C6    H6    1.066882 S    
C68   H40   1.113979 S    
C1    C17   1.397252 A    
C40   C47   1.382929 A    
C55   I3    2.171647 S    
C149  H97   1.079807 S    
C2    C18   1.383431 A    
C67   H39   1.113536 S    
C28   C156  1.469515 S    
C141  H89   1.081934 S    
C68   C84   1.589417 S    
C134  H82   1.086431 S    
C99   C103  1.580477 S    
C14   N14   1.323926 A    
C49   C113  1.526299 S    
C58   C64   1.540244 S    
C132  H80   1.085708 S    
C13   C23   1.403007 A    
C112  C148  1.535490 S    
N1    N6    1.421804 A    
C123  O11   1.221504 D    
C98   I18   2.202576 S    
N3    N8    1.421804 A    
N9    Ni6   1.921018 S    
C67   C119  1.528785 S    
C53   H25   1.112493 S    
C133  O21   1.218651 D    
C23   C59   1.501335 S    
C10   N10   1.326094 A    
H30   C57   1.111829 S    
C34   I22   2.129274 S    
C54   C61   1.567614 S    
C49   H21   1.108328 S    
C7    N7    1.325682 A    
C15   C24   1.396010 A    
C8    N8    1.317307 A    
C75   C91   1.567473 S    
C119  O7    1.219592 D    
C50   C59   1.578346 S    
C2    H2    1.068827 S    
N19   Ni3   1.928824 S    
C95   H47   1.105853 S    
C31   H15   1.072215 S    
C5    N5    1.317832 A    
C114  H62   1.079433 S    
C125  O13   1.220986 D    
C12   C22   1.379486 A    
C15   N15   1.331470 A    
C16   C24   1.389121 A    
C87   C91   1.613995 S    
N32   Ni3   1.904714 S    
C79   C83   1.599379 S    
C151  O39   1.218494 D    
H29   C57   1.095100 S    
N9    N10   1.406245 A    
C97   I17   2.195784 S    
N25   Ni6   1.920343 S    
C155  O43   1.212907 D    
N27   N32   1.421804 A    
C62   C64   1.553034 S    
H60   C106  1.101727 S    
C100  C108  1.557705 S    
C129  O17   1.217525 D    
C76   H52   1.107211 S    
C2    N2    1.330855 A    
N1    Ni1   1.928313 S    
C138  H86   1.075248 S    
C65   C71   1.537144 S    
C30   C43   1.394342 A    
N24   Ni8   1.907390 S    
C29   N21   1.329759 A    
C37   C46   1.374947 A    
H57   C105  1.112278 S    
C52   C116  1.525239 S    
C53   C61   1.568862 S    
C51   H23   1.109453 S    
C99   I19   2.190073 S    
C70   H44   1.098534 S    
C142  H90   1.080931 S    
N18   Ni2   1.921017 S    
N16   Ni3   1.905065 S    
C154  H102  1.075476 S    
C109  C111  1.644446 S    
C44   C62   1.464461 S    
C128  O16   1.222373 D    
C99   C108  1.576596 S    
C32   N24   1.307847 A    
C116  H64   1.079483 S    
C101  C109  1.623078 S    
C98   H54   1.096647 S    
C56   H28   1.097518 S    
C146  O34   1.212580 D    
C95   C129  1.514587 S    
C69   I5    2.205063 S    
C148  H96   1.084642 S    
C150  O38   1.218048 D    
C90   C134  1.539748 S    
N22   Ni6   1.907390 S    
C91   I11   2.177675 S    
