data_mof_unit_50748.cif
_audit_creation_date              2012-12-10T19:00:15-0500
_audit_creation_method            fapswitch 2.2
_symmetry_space_group_name_H-M    P1
_symmetry_Int_Tables_number       1
_space_group_crystal_system       triclinic
_cell_length_a                    9.539888
_cell_length_b                    10.902564
_cell_length_c                    13.399847
_cell_angle_alpha                 90.685468
_cell_angle_beta                  72.267287
_cell_angle_gamma                 90.001653
_cell_volume                      1327.38511993

loop_
_atom_site_label
_atom_site_type_symbol
_atom_type_description
_atom_site_fract_x
_atom_site_fract_y
_atom_site_fract_z
_atom_type_partial_charge
C1    C     C_R   0.501899 0.737887 0.497707 0.820113
C2    C     C_R   0.439678 0.496404 0.977045 0.107174
C3    C     C_R   0.456303 0.545123 0.875968 0.011645
C4    C     C_R   0.542375 0.530439 0.030494 0.091538
C5    C     C_R   0.656430 0.613643 0.983298 0.064573
C6    C     C_R   0.661849 0.669299 0.889251 -0.193970
C7    C     C_R   0.556728 0.642876 0.839163 -0.057200
C8    C     C_R   0.533799 0.486654 0.130428 -0.233174
C9    C     C_R   0.741252 0.613089 0.137352 -0.000284
C10   C     C_R   0.371528 0.494129 0.815187 -0.110951
C11   C     C_R   0.388135 0.939765 0.487245 0.067164
C12   C     C_R   0.420707 0.500193 0.700289 0.802282
C13   C     C_R   0.507813 0.871929 0.495441 -0.183013
C14   C     C_R   0.632122 0.938479 0.505439 -0.078174
C15   C     C_R   0.613146 0.064189 0.535212 0.334364
C16   C     C_R   0.495833 0.130236 0.515650 -0.182933
C17   C     C_R   0.387949 0.065069 0.487435 -0.024091
C18   C     C_3   0.222417 0.071325 0.524407 -0.207106
C19   C     C_3   0.223480 0.929751 0.523506 -0.180824
C20   C     C_R   0.952985 0.419582 0.437689 0.344265
C21   C     C_R   0.896153 0.570447 0.569081 -0.034168
C22   C     C_R   0.044853 0.569992 0.569443 -0.081233
C23   C     C_R   0.496829 0.263186 0.508305 0.862593
C24   C     C_R   0.100100 0.419265 0.437831 0.278104
C25   C     C_3   0.154685 0.408994 0.321274 -0.533532
C26   C     C_3   0.995677 0.407946 0.321534 -0.526883
C27   C     C_R   0.579193 0.507299 0.299932 0.764485
C28   C     C_R   0.758083 0.649126 0.034446 -0.146834
C29   C     C_R   0.624697 0.532421 0.186723 -0.134245
C30   C     C_R   0.252182 0.417785 0.862080 -0.112779
C31   C     C_R   0.224251 0.382458 0.965256 -0.094147
C32   C     C_R   0.319136 0.417373 0.021188 -0.152905
Cu1   Cu    Cu3+1 0.359330 0.500020 0.500010 0.961233
Cu2   Cu    Cu3+1 0.640670 0.499980 0.499990 0.992092
H1    H     H_    0.178747 0.109654 0.463218 0.142084
H2    H     H_    0.182072 0.888984 0.461492 0.147719
H3    H     H_    0.817458 0.629361 0.623430 0.180218
H4    H     H_    0.077114 0.627472 0.624789 0.150979
H5    H     H_    0.213845 0.492437 0.283991 0.232470
H6    H     H_    0.212866 0.320657 0.294336 0.190728
H7    H     H_    0.966099 0.489835 0.283836 0.228732
H8    H     H_    0.742617 0.740395 0.858724 0.186575
H9    H     H_    0.961428 0.318669 0.295655 0.193638
H10   H     H_    0.844352 0.713298 0.996721 0.183192
H11   H     H_    0.453098 0.419955 0.169029 0.138912
H12   H     H_    0.184847 0.380004 0.817147 0.168194
H13   H     H_    0.293736 0.381320 0.098911 0.128862
H14   H     H_    0.132675 0.322304 0.000535 0.151468
N1    N     N_R   0.852320 0.499070 0.499340 -0.194841
N2    N     N_R   0.148230 0.499110 0.499340 -0.199371
O1    O     O_R   0.381190 0.680360 0.500000 -0.565519
O2    O     O_R   0.618780 0.680320 0.499990 -0.612987
O3    O     O_R   0.323230 0.500000 0.650990 -0.582696
O4    O     O_R   0.560820 0.499960 0.650980 -0.549913
O5    O     O_R   0.381220 0.319680 0.500010 -0.593989
O6    O     O_R   0.618810 0.319640 0.500000 -0.536167
O7    O     O_R   0.439180 0.500040 0.349020 -0.576515
O8    O     O_R   0.676770 0.500000 0.349010 -0.611641
C33   C     C_2   0.838399 0.670377 0.192661 0.309866
H15   H     H_    0.805257 0.677248 0.277002 0.082861
O9    O     O_2   0.957574 0.713027 0.143702 -0.539162
S1    S     S_3+6 0.717647 0.130537 0.612596 0.075707
O10   O     O_2   0.634147 0.234009 0.679944 -0.251932
O11   O     O_2   0.749448 0.036381 0.683762 -0.183534
O12   O     O_3   0.878181 0.183349 0.533859 -0.564654
H16   H     H_    0.881151 0.158933 0.461830 0.321269
C34   C     C_2   0.159175 0.135396 0.629697 0.475616
H17   H     H_    0.063156 0.193770 0.642937 0.129647
O13   O     O_2   0.213601 0.122079 0.700466 -0.512700
C35   C     C_2   0.155341 0.872246 0.629317 0.487914
H18   H     H_    0.036577 0.863648 0.658908 0.106671
O14   O     O_2   0.230144 0.837117 0.682859 -0.544033
C36   C     C_2   0.540063 0.730088 0.759136 0.418922
H19   H     H_    0.439378 0.732618 0.737937 0.106792
O15   O     O_2   0.637270 0.802437 0.717785 -0.507295
C37   C     C_2   0.782819 0.882953 0.470894 0.429431
H20   H     H_    0.809694 0.813556 0.409638 0.060422
O16   O     O_2   0.880370 0.915410 0.506430 -0.535115

loop_
_geom_bond_atom_site_label_1
_geom_bond_atom_site_label_2
_ccdc_geom_bond_type
Cu1   O5    S    
Cu2   O6    S    
C27   C29   S    
C36   H19   S    
C4    C8    A    
C21   N1    A    
C23   O6    A    
C7    C36   S    
C11   C19   S    
S1    O10   D    
C8    C29   A    
C37   O16   D    
C3    C7    A    
C19   H2    S    
C25   H6    S    
C5    C6    A    
C15   C16   A    
C22   H4    S    
C2    C32   A    
C18   C19   S    
C8    H11   S    
S1    O11   D    
C20   C24   A    
C16   C17   A    
C35   H18   S    
C18   H1    S    
C12   O3    A    
C9    C29   A    
C22   N2    A    
C33   H15   S    
C13   C14   A    
C24   N2    A    
C36   O15   D    
C25   C26   S    
C26   H9    S    
Cu1   Cu2   S    
Cu1   O3    S    
C33   O9    D    
C34   H17   S    
C37   H20   S    
C27   O7    A    
Cu1   N2    S    
C28   H10   S    
C34   O13   D    
C14   C37   S    
C2    C4    A    
C20   N1    A    
C5    C28   A    
C10   C30   A    
C31   C32   A    
C17   C18   S    
C24   C25   S    
C1    O1    A    
C10   C12   S    
Cu2   O4    S    
C16   C23   S    
C31   H14   S    
C32   H13   S    
C1    C13   S    
C11   C17   A    
Cu2   N1    S    
Cu1   O7    S    
S1    O12   S    
C30   H12   S    
C4    C5    A    
C27   O8    A    
C23   O5    A    
C6    C7    A    
Cu1   O1    S    
Cu2   O2    S    
C2    C3    A    
C18   C34   S    
C3    C10   A    
C25   H5    S    
C11   C13   A    
C30   C31   A    
C20   C26   S    
C15   S1    S    
C1    O2    A    
C21   H3    S    
C9    C28   A    
O12   H16   S    
C6    H8    S    
Cu2   O8    S    
C14   C15   A    
C19   C35   S    
C35   O14   D    
C9    C33   S    
C21   C22   A    
C12   O4    A    
C26   H7    S    
