data_mof_unit_51481.cif
_audit_creation_date              2012-12-10T20:43:23-0500
_audit_creation_method            fapswitch 2.2
_symmetry_space_group_name_H-M    P1
_symmetry_Int_Tables_number       1
_space_group_crystal_system       triclinic
_cell_length_a                    15.80448
_cell_length_b                    10.727189
_cell_length_c                    9.885833
_cell_angle_alpha                 90.842659
_cell_angle_beta                  91.056519
_cell_angle_gamma                 90.608849
_cell_volume                      1675.45512504

loop_
_atom_site_label
_atom_site_type_symbol
_atom_type_description
_atom_site_fract_x
_atom_site_fract_y
_atom_site_fract_z
_atom_type_partial_charge
C1    C     C_R   0.503623 0.260247 0.498515 0.873903
C2    C     C_R   0.531909 0.930860 0.383855 -0.229886
C3    C     C_R   0.502402 0.871131 0.498954 -0.137627
C4    C     C_R   0.339398 0.499543 0.498820 0.919952
C5    C     C_R   0.468086 0.938365 0.604622 0.124725
C6    C     C_3   0.489038 0.935458 0.752531 -0.479336
C7    C     C_3   0.490183 0.076507 0.749666 -0.458066
C8    C     C_R   0.446499 0.422665 0.068190 0.190769
C9    C     C_R   0.557777 0.567222 0.076771 -0.139554
C10   C     C_R   0.559926 0.565961 0.933373 0.165348
C11   C     C_R   0.446242 0.423048 0.925881 0.180802
C12   C     C_R   0.046145 0.473054 0.612147 -0.212279
C13   C     C_3   0.351962 0.423119 0.917788 -0.498229
C14   C     C_3   0.352202 0.422358 0.071370 -0.503362
C15   C     C_R   0.501467 0.739525 0.500623 0.883032
C16   C     C_R   0.660601 0.500124 0.501090 0.893220
C17   C     C_R   0.958839 0.474196 0.616051 -0.200424
C18   C     C_R   0.912823 0.496785 0.497848 0.143066
C19   C     C_R   0.952518 0.517825 0.375176 -0.196088
C20   C     C_R   0.041017 0.517466 0.369274 0.103986
C21   C     C_R   0.086699 0.495129 0.490425 0.128901
C22   C     C_3   0.629179 0.643226 0.871330 -0.392294
C23   C     C_1   0.823993 0.498134 0.501855 -0.077401
C24   C     C_3   0.714678 0.575292 0.869428 -0.306160
C25   C     C_3   0.761187 0.577131 0.006475 -0.908765
C26   C     C_3   0.088348 0.540334 0.238645 -0.411575
C27   C     C_3   0.032835 0.563752 0.112434 -0.367079
C28   C     C_3   0.086986 0.585677 0.988562 -0.884813
C29   C     C_3   0.574071 0.125398 0.257156 -0.351240
C30   C     C_3   0.618516 0.042142 0.152794 -0.402212
C31   C     C_3   0.659730 0.120804 0.044043 -0.880623
C32   C     C_1   0.175933 0.496231 0.493139 -0.092124
C33   C     C_1   0.250908 0.497776 0.495905 -0.201081
C34   C     C_1   0.749069 0.499202 0.502933 -0.210370
C35   C     C_R   0.469290 0.065393 0.601617 0.105985
C36   C     C_R   0.504958 0.127610 0.493302 -0.158096
C37   C     C_R   0.535254 0.060275 0.378746 0.067724
H1    H     H_    0.554028 0.117879 0.770000 0.208853
H2    H     H_    0.438104 0.119418 0.807710 0.199843
H3    H     H_    0.082258 0.455423 0.704028 0.151753
H4    H     H_    0.765262 0.673437 0.049082 0.257973
H5    H     H_    0.728903 0.515152 0.078588 0.268232
H6    H     H_    0.826485 0.542203 0.993451 0.241463
H7    H     H_    0.705626 0.476847 0.835141 0.239849
H8    H     H_    0.755972 0.622149 0.795364 0.210042
H9    H     H_    0.611879 0.670085 0.768142 0.226730
H10   H     H_    0.636440 0.733580 0.927283 0.159171
H11   H     H_    0.927283 0.457779 0.710710 0.144932
H12   H     H_    0.602034 0.624435 0.135780 0.159475
H13   H     H_    0.129576 0.667632 0.005863 0.263751
H14   H     H_    0.125683 0.502229 0.966303 0.261380
H15   H     H_    0.045270 0.604026 0.899637 0.251329
H16   H     H_    0.990867 0.481643 0.091368 0.220730
H17   H     H_    0.993340 0.647503 0.129367 0.225698
H18   H     H_    0.131014 0.622461 0.255344 0.207555
H19   H     H_    0.128494 0.457926 0.217921 0.208430
H20   H     H_    0.612007 0.181035 0.994327 0.258069
H21   H     H_    0.710852 0.180671 0.089484 0.263700
H22   H     H_    0.687569 0.058699 0.966200 0.248185
H23   H     H_    0.326326 0.510547 0.874946 0.221928
H24   H     H_    0.668455 0.986519 0.203678 0.225946
H25   H     H_    0.571566 0.978128 0.102293 0.224745
H26   H     H_    0.522920 0.174787 0.201774 0.222400
H27   H     H_    0.621687 0.194757 0.296201 0.213356
H28   H     H_    0.555301 0.875093 0.301030 0.163256
H29   H     H_    0.325888 0.335717 0.870911 0.198040
H30   H     H_    0.326549 0.509188 0.116887 0.221527
H31   H     H_    0.326385 0.334441 0.113090 0.198375
H32   H     H_    0.913600 0.534478 0.286206 0.135797
H33   H     H_    0.436275 0.896467 0.812145 0.203604
H34   H     H_    0.552264 0.895270 0.774696 0.197278
N1    N     N_R   0.499440 0.499140 0.142800 -0.123784
N2    N     N_R   0.499440 0.499180 0.857150 -0.130842
O1    O     O_R   0.500010 0.316790 0.614690 -0.610425
O2    O     O_R   0.500000 0.316760 0.385350 -0.633693
O3    O     O_R   0.378030 0.499990 0.614640 -0.611773
O4    O     O_R   0.378020 0.499950 0.385300 -0.612236
O5    O     O_R   0.500000 0.683240 0.614650 -0.637418
O6    O     O_R   0.499990 0.683210 0.385310 -0.623984
O7    O     O_R   0.621980 0.500050 0.614700 -0.638148
O8    O     O_R   0.621970 0.500010 0.385360 -0.618801
Zn1   Zn    Zn3+2 0.500010 0.500020 0.653130 0.925893
Zn2   Zn    Zn3+2 0.499990 0.499980 0.346870 0.929087

loop_
_geom_bond_atom_site_label_1
_geom_bond_atom_site_label_2
_ccdc_geom_bond_type
C29   H26   S    
C11   C13   S    
C35   C36   A    
C17   H11   S    
C2    H28   S    
C26   H18   S    
C25   H6    S    
C27   H17   S    
C13   H23   S    
C10   C22   S    
C26   C27   S    
C24   H8    S    
C31   H21   S    
C36   C37   A    
C30   C31   S    
C10   N2    A    
C15   O5    A    
O4    Zn2   S    
C18   C19   A    
C31   H22   S    
C16   C34   S    
C28   H13   S    
C15   O6    A    
C19   C20   A    
C12   C17   A    
C14   H30   S    
C9    N1    A    
C9    C10   A    
C22   H10   S    
C29   H27   S    
C13   C14   S    
O1    Zn1   S    
O8    Zn2   S    
C13   H29   S    
C6    H34   S    
C21   C32   S    
C8    N1    A    
C18   C23   S    
C1    O2    A    
C9    H12   S    
C24   C25   S    
O7    Zn1   S    
C11   N2    A    
C25   H4    S    
C12   C21   A    
C16   O7    A    
C12   H3    S    
C29   C30   S    
O5    Zn1   S    
C23   C34   T    
C17   C18   A    
C22   H9    S    
C30   H25   S    
C24   H7    S    
C22   C24   S    
C19   H32   S    
C1    O1    A    
O3    Zn1   S    
N2    Zn1   S    
C3    C15   S    
C6    H33   S    
C4    C33   S    
C8    C14   S    
C7    C35   S    
C3    C5    A    
C26   H19   S    
C25   H5    S    
C27   H16   S    
C6    C7    S    
C7    H2    S    
C32   C33   T    
C31   H20   S    
C2    C3    A    
C4    O4    A    
O6    Zn2   S    
C28   H15   S    
C2    C37   A    
O2    Zn2   S    
C5    C6    S    
C20   C26   S    
C8    C11   A    
C5    C35   A    
C16   O8    A    
C28   H14   S    
C7    H1    S    
C4    O3    A    
N1    Zn2   S    
C20   C21   A    
C30   H24   S    
C29   C37   S    
C27   C28   S    
C14   H31   S    
C1    C36   S    
