data_mof_unit_52011.cif
_audit_creation_date              2012-12-10T20:25:41-0500
_audit_creation_method            fapswitch 2.2
_symmetry_space_group_name_H-M    P1
_symmetry_Int_Tables_number       1
_space_group_crystal_system       triclinic
_cell_length_a                    8.587648
_cell_length_b                    10.694428
_cell_length_c                    9.882745
_cell_angle_alpha                 89.644447
_cell_angle_beta                  98.444508
_cell_angle_gamma                 90.174471
_cell_volume                      897.771727042

loop_
_atom_site_label
_atom_site_type_symbol
_atom_type_description
_atom_site_fract_x
_atom_site_fract_y
_atom_site_fract_z
_atom_type_partial_charge
C1    C     C_R   0.504000 0.259959 0.500814 0.924199
C2    C     C_R   0.562947 0.936105 0.388047 -0.216988
C3    C     C_R   0.529131 0.871211 0.503958 -0.064799
C4    C     C_R   0.522957 0.934856 0.625335 0.051195
C5    C     C_3   0.407111 0.923960 0.723810 -0.511056
C6    C     C_3   0.403782 0.065808 0.723884 0.232343
C7    C     C_R   0.363220 0.483367 0.054139 0.222903
C8    C     C_R   0.632668 0.527701 0.088491 -0.141551
C9    C     C_R   0.632724 0.527562 0.944792 -0.142329
C10   C     C_R   0.362968 0.483591 0.911672 0.213241
C11   C     C_3   0.257976 0.371667 0.895025 -0.503479
C12   C     C_R   0.201298 0.500231 0.464236 0.988184
C13   C     C_3   0.258136 0.372115 0.048510 -0.520087
C14   C     C_R   0.505089 0.739880 0.500316 0.874113
C15   C     C_R   0.798666 0.501397 0.535638 0.959447
C16   C     C_2   0.036205 0.498879 0.444886 -0.373523
C17   C     C_2   0.963605 0.506125 0.554393 -0.374608
C18   C     C_R   0.520745 0.062418 0.625514 0.095609
C19   C     C_R   0.526711 0.128357 0.504468 -0.055702
C20   C     C_R   0.561975 0.065543 0.388378 -0.232018
H1    H     H_    0.974921 0.490115 0.340938 0.165684
H2    H     H_    0.740589 0.548019 0.904662 0.150657
H3    H     H_    0.140473 0.392340 0.836560 0.203108
H4    H     H_    0.317561 0.289311 0.859199 0.226679
H5    H     H_    0.141490 0.395191 0.077825 0.202155
H6    H     H_    0.317149 0.289226 0.101637 0.217661
H7    H     H_    0.024833 0.516635 0.657891 0.166372
H8    H     H_    0.578642 0.115312 0.295752 0.168634
H9    H     H_    0.579753 0.887874 0.295223 0.168445
H10   H     H_    0.294380 0.879667 0.677860 0.221249
H11   H     H_    0.461082 0.883342 0.823486 0.170697
H12   H     H_    0.451483 0.108688 0.823705 0.087072
H13   H     H_    0.740495 0.548512 0.155636 0.148087
N1    N     N_R   0.498950 0.499140 0.142680 -0.107577
N2    N     N_R   0.498950 0.499180 0.857030 -0.108279
O1    O     O_R   0.500020 0.316790 0.614690 -0.605420
O2    O     O_R   0.500000 0.316760 0.385350 -0.633700
O3    O     O_R   0.271760 0.500010 0.587850 -0.606923
O4    O     O_R   0.271740 0.499970 0.358500 -0.626931
O5    O     O_R   0.500000 0.683240 0.614650 -0.618404
O6    O     O_R   0.499980 0.683210 0.385310 -0.626644
O7    O     O_R   0.728260 0.500030 0.641500 -0.639526
O8    O     O_R   0.728240 0.499990 0.412150 -0.623193
Zn1   Zn    Zn3+2 0.500010 0.500020 0.653130 0.949380
Zn2   Zn    Zn3+2 0.499990 0.499980 0.346870 0.939861
O9    O     O_3   0.258186 0.113651 0.662970 -0.746194
H14   H     H_    0.186739 0.104776 0.732746 0.331958

loop_
_geom_bond_atom_site_label_1
_geom_bond_atom_site_label_2
_ccdc_geom_bond_type
C7    C10   A    
C6    H12   S    
O3    Zn1   S    
C16   H1    S    
O2    Zn2   S    
O8    Zn2   S    
C20   H8    S    
C19   C20   A    
C1    O2    A    
O4    Zn2   S    
C4    C18   A    
C12   O4    A    
C7    C13   S    
C2    C3    A    
C15   O8    A    
N1    Zn2   S    
C8    N1    A    
N2    Zn1   S    
C11   C13   S    
C13   H5    S    
C10   N2    A    
C3    C14   S    
O7    Zn1   S    
C14   O6    A    
C11   H3    S    
C18   C19   A    
C8    H13   S    
C2    H9    S    
C12   O3    A    
C5    C6    S    
C6    C18   S    
C7    N1    A    
C13   H6    S    
O1    Zn1   S    
C1    C19   S    
C10   C11   S    
C14   O5    A    
C3    C4    A    
C17   H7    S    
C16   C17   D    
C11   H4    S    
O5    Zn1   S    
C1    O1    A    
C15   C17   S    
C5    H10   S    
C9    N2    A    
O6    Zn2   S    
C9    H2    S    
C8    C9    A    
C6    O9    S    
O9    H14   S    
C2    C20   A    
C12   C16   S    
C15   O7    A    
C4    C5    S    
C5    H11   S    
