data_mof_unit_44869.cif
_audit_creation_date              2013-03-05T16:05:18-0500
_audit_creation_method            fapswitch 2.2
_symmetry_space_group_name_H-M    P1
_symmetry_Int_Tables_number       1
_space_group_crystal_system       triclinic
_cell_length_a                    27.436222
_cell_length_b                    7.230954
_cell_length_c                    22.794425
_cell_angle_alpha                 89.949116
_cell_angle_beta                  101.401503
_cell_angle_gamma                 89.926523
_cell_volume                      4432.93978106

loop_
_atom_site_label
_atom_site_type_symbol
_atom_site_description
_atom_site_fract_x
_atom_site_fract_y
_atom_site_fract_z
_atom_type_partial_charge
O1    O     O_R   0.707300 0.594030 0.176840 -0.580507
O2    O     O_R   0.292700 0.405970 0.823160 -0.583982
O3    O     O_R   0.792700 0.094030 0.323160 -0.580716
O4    O     O_R   0.207300 0.905970 0.676840 -0.581397
O5    O     O_R   0.697330 0.262360 0.295660 -0.563090
O6    O     O_R   0.302670 0.737640 0.704340 -0.562478
O7    O     O_R   0.802670 0.762360 0.204340 -0.562783
O8    O     O_R   0.197330 0.237640 0.795660 -0.564133
C1    C     C_R   0.684427 0.433693 0.311391 0.917204
C2    C     C_R   0.315680 0.566321 0.688772 0.921229
C3    C     C_R   0.815587 0.933642 0.188627 0.918066
C4    C     C_R   0.184390 0.066360 0.811343 0.918595
O9    O     O_R   0.701410 0.264250 0.175600 -0.593774
O10   O     O_R   0.298590 0.735750 0.824400 -0.588882
O11   O     O_R   0.798590 0.764250 0.324400 -0.593751
O12   O     O_R   0.201410 0.235750 0.675600 -0.593518
O13   O     O_R   0.796800 0.094950 0.202240 -0.549119
O14   O     O_R   0.203200 0.905050 0.797760 -0.548367
O15   O     O_R   0.703200 0.594950 0.297760 -0.549013
O16   O     O_R   0.296800 0.405050 0.702240 -0.549435
C5    C     C_R   0.689749 0.432659 0.153660 0.944087
C6    C     C_R   0.310238 0.566947 0.846250 0.948297
C7    C     C_R   0.810066 0.932466 0.346309 0.948413
C8    C     C_R   0.189933 0.067533 0.653692 0.948305
O17   O     O_3   0.781290 0.427390 0.258880 -0.248123
O18   O     O_3   0.218710 0.572610 0.741120 -0.249276
O19   O     O_3   0.718710 0.927390 0.241120 -0.249308
O20   O     O_3   0.281290 0.072610 0.758880 -0.248658
V1    V     V_3+5 0.744190 0.152150 0.248350 1.269893
V2    V     V_3+5 0.255810 0.847850 0.751650 1.274639
V3    V     V_3+5 0.755810 0.652150 0.251650 1.270918
V4    V     V_3+5 0.244190 0.347850 0.748350 1.269688
C9    C     C_R   0.153838 0.061258 0.596338 -0.156148
C10   C     C_R   0.846160 0.938743 0.403662 -0.156545
C11   C     C_R   0.345994 0.555645 0.903931 -0.156400
C12   C     C_R   0.653999 0.436692 0.095728 -0.157960
C13   C     C_R   0.139035 0.094045 0.488965 -0.179275
C14   C     C_R   0.860966 0.905940 0.511035 -0.178657
C15   C     C_R   0.358708 0.523336 0.011339 -0.177963
C16   C     C_R   0.637071 0.352943 0.991054 -0.181276
C17   C     C_R   0.170674 0.107167 0.544366 -0.158054
C18   C     C_R   0.829328 0.892795 0.455633 -0.157422
C19   C     C_R   0.326947 0.536562 0.955959 -0.162503
C20   C     C_R   0.669545 0.362618 0.045977 -0.146917
C21   C     C_R   0.103388 0.011799 0.593100 -0.049280
C22   C     C_R   0.896607 0.988250 0.406902 -0.049189
C23   C     C_R   0.398178 0.557388 0.907362 -0.037981
C24   C     C_R   0.604202 0.498379 0.090471 -0.057977
C25   C     C_R   0.068561 0.024554 0.536989 0.049586
C26   C     C_R   0.931435 0.975500 0.463012 0.049581
C27   C     C_R   0.431363 0.521168 0.963503 0.046627
C28   C     C_R   0.568508 0.466074 0.036013 0.048586
C29   C     C_R   0.088762 0.049908 0.484745 0.174215
C30   C     C_R   0.911236 0.950124 0.515255 0.173748
C31   C     C_R   0.410343 0.516134 0.015673 0.174401
C32   C     C_R   0.587059 0.403359 0.985563 0.174621
C33   C     C_R   0.015182 0.008730 0.529448 0.067239
C34   C     C_R   0.984813 0.991342 0.470551 0.067327
C35   C     C_R   0.484046 0.487108 0.970642 0.065851
C36   C     C_R   0.515403 0.488637 0.029177 0.067253
C37   C     C_R   0.009186 0.981603 0.421773 -0.186124
C38   C     C_R   0.990809 0.018476 0.578226 -0.186061
C39   C     C_R   0.492012 0.487446 0.078900 -0.183993
C40   C     C_R   0.505247 0.427511 0.922449 -0.180693
C41   C     C_R   0.059280 0.022546 0.428268 -0.221638
C42   C     C_R   0.940716 0.977507 0.571731 -0.221268
C43   C     C_R   0.440736 0.498713 0.072162 -0.221396
C44   C     C_R   0.555387 0.384808 0.929973 -0.222222
H1    H     H_    0.075584 0.025693 0.388648 0.136345
H2    H     H_    0.924412 0.974355 0.611351 0.136554
H3    H     H_    0.424597 0.491217 0.111854 0.135513
H4    H     H_    0.569410 0.333521 0.891783 0.137884
H5    H     H_    0.790784 0.855265 0.453490 0.157830
H6    H     H_    0.209221 0.144652 0.546509 0.156946
H7    H     H_    0.707482 0.314891 0.049498 0.154524
H8    H     H_    0.287128 0.535904 0.953757 0.161746
H9    H     H_    0.153986 0.118649 0.449050 0.128115
H10   H     H_    0.846016 0.881312 0.550949 0.128588
H11   H     H_    0.342692 0.514676 0.051085 0.128221
H12   H     H_    0.650854 0.300233 0.952893 0.128524
H13   H     H_    0.990689 0.938534 0.377875 0.146345
H14   H     H_    0.009303 0.061563 0.622122 0.146409
H15   H     H_    0.512131 0.459834 0.123584 0.144015
H16   H     H_    0.482967 0.395049 0.879300 0.151603
C45   C     C_R   0.867393 0.121939 0.127489 0.408258
C46   C     C_R   0.132482 0.878136 0.872381 0.411722
C47   C     C_R   0.632696 0.621902 0.372704 0.408671
C48   C     C_R   0.368235 0.377908 0.628611 0.408054
C49   C     C_R   0.902133 0.129934 0.090042 -0.273410
C50   C     C_R   0.097706 0.870217 0.909781 -0.274229
C51   C     C_R   0.598017 0.629817 0.410237 -0.273533
C52   C     C_R   0.403046 0.369782 0.591265 -0.275477
H17   H     H_    0.910083 0.262852 0.072083 0.137592
H18   H     H_    0.089729 0.737324 0.927736 0.137587
H19   H     H_    0.590053 0.762630 0.428242 0.137892
H20   H     H_    0.411300 0.236651 0.573716 0.136202
C53   C     C_R   0.926793 0.970949 0.076250 0.064962
C54   C     C_R   0.073042 0.029241 0.923534 0.064725
C55   C     C_R   0.573417 0.470878 0.424050 0.064595
C56   C     C_R   0.427349 0.528966 0.577036 0.066174
C57   C     C_R   0.915390 0.801145 0.100288 -0.148327
C58   C     C_R   0.084469 0.199002 0.899490 -0.147994
C59   C     C_R   0.584798 0.301209 0.399934 -0.148241
C60   C     C_R   0.415567 0.698952 0.600646 -0.149185
H21   H     H_    0.934322 0.675752 0.091470 0.119752
H22   H     H_    0.065529 0.324419 0.908268 0.119953
H23   H     H_    0.565905 0.175882 0.408777 0.119925
H24   H     H_    0.434261 0.824495 0.591575 0.119920
C61   C     C_R   0.880101 0.791468 0.137074 -0.112835
C62   C     C_R   0.119795 0.208599 0.862750 -0.115250
C63   C     C_R   0.620001 0.291623 0.363031 -0.113394
C64   C     C_R   0.380167 0.708674 0.637287 -0.107314
H25   H     H_    0.873079 0.659828 0.155328 0.229163
H26   H     H_    0.126823 0.340192 0.844470 0.229572
H27   H     H_    0.626985 0.160120 0.344685 0.229521
H28   H     H_    0.372846 0.840446 0.655223 0.230119
C65   C     C_R   0.854870 0.949672 0.151034 -0.315127
C66   C     C_R   0.145051 0.050370 0.848857 -0.315499
C67   C     C_R   0.645192 0.449759 0.349061 -0.316454
C68   C     C_R   0.355191 0.550338 0.651508 -0.314312
C69   C     C_R   0.967887 0.848009 0.994648 -0.170342
C70   C     C_R   0.031919 0.152271 0.005099 -0.170650
C71   C     C_R   0.532598 0.347947 0.505886 -0.170459
C72   C     C_R   0.468226 0.651908 0.495229 -0.170899
H29   H     H_    0.942922 0.730670 0.989045 0.122537
H30   H     H_    0.056887 0.269603 0.010703 0.122189
H31   H     H_    0.557692 0.230709 0.511546 0.122799
H32   H     H_    0.443120 0.769103 0.489518 0.121927
C73   C     C_R   0.002610 0.863568 0.957417 -0.170459
C74   C     C_R   0.997196 0.136712 0.042330 -0.170504
C75   C     C_R   0.497930 0.363477 0.543197 -0.169663
C76   C     C_R   0.502918 0.636438 0.457950 -0.170507
H33   H     H_    0.003446 0.757266 0.924210 0.119295
H34   H     H_    0.996362 0.243008 0.075539 0.119152
H35   H     H_    0.497283 0.257271 0.576541 0.119735
H36   H     H_    0.503607 0.742677 0.424625 0.119106
C77   C     C_R   0.035184 0.015723 0.962220 0.143054
C78   C     C_R   0.964627 0.984541 0.037533 0.142886
C79   C     C_R   0.465175 0.515470 0.538288 0.143271
C80   C     C_R   0.535644 0.484402 0.462843 0.142729
C81   C     C_1   0.909014 0.074492 0.354375 0.033364
N1    N     N_1   0.918501 0.143932 0.312248 -0.047304
C82   C     C_1   0.090976 0.925601 0.645630 0.033219
N2    N     N_1   0.081484 0.856196 0.687760 -0.047255
C83   C     C_1   0.592808 0.610585 0.138610 0.040703
N3    N     N_1   0.584005 0.700770 0.177152 -0.040617
C84   C     C_1   0.415863 0.619236 0.854820 0.028398
N4    N     N_1   0.429647 0.669432 0.812689 -0.070408
N5    N     N_R   0.847072 0.292635 0.142929 0.223106
O21   O     O_R   0.862078 0.360080 0.196333 -0.416884
O22   O     O_R   0.819550 0.392585 0.101705 -0.455831
N6    N     N_R   0.152800 0.707402 0.856969 0.223744
O23   O     O_R   0.137861 0.640079 0.803535 -0.417205
O24   O     O_R   0.180107 0.607079 0.898267 -0.459847
N7    N     N_R   0.652966 0.792575 0.357259 0.223293
O25   O     O_R   0.637953 0.860321 0.303837 -0.418552
O26   O     O_R   0.680299 0.892464 0.398521 -0.457615
N8    N     N_R   0.348387 0.207237 0.644679 0.223163
O27   O     O_R   0.363718 0.140681 0.698215 -0.418619
O28   O     O_R   0.319797 0.108553 0.604192 -0.458107

loop_
_geom_bond_atom_site_label_1
_geom_bond_atom_site_label_2
_geom_bond_distance
_ccdc_geom_bond_type
O17   V3    1.763038 S    
C55   C59   1.404628 A    
O1    C5    1.332134 A    
C47   C51   1.400835 A    
O19   V1    1.764957 S    
C9    C21   1.417793 A    
C72   C79   1.405239 A    
O3    C7    1.329793 A    
C84   N4    1.157735 T    
C10   C18   1.393948 A    
O1    V3    1.990294 S    
O15   V3    1.989924 S    
C62   C66   1.405302 A    
C83   N3    1.157564 T    
C61   C65   1.405294 A    
C33   C38   1.407956 A    
C5    C12   1.481375 S    
O7    C3    1.355868 A    
C6    C11   1.478992 S    
C35   C40   1.408427 A    
C26   C30   1.421185 A    
C36   C39   1.408607 A    
C40   C44   1.386616 A    
O2    V4    1.990295 S    
O9    V1    2.002562 S    
C14   C18   1.387201 A    
C75   H35   1.082635 S    
N5    O22   1.300912 A    
O4    C8    1.329795 A    
C25   C29   1.421190 A    
N7    O26   1.300937 A    
C57   C61   1.402293 A    
C82   N2    1.157702 T    
C39   H15   1.076595 S    
C60   H24   1.082924 S    
C52   H20   1.083500 S    
O13   V1    1.989550 S    
C31   C43   1.394334 A    
C72   C76   1.400077 A    
C59   C63   1.402278 A    
O3    V1    1.988935 S    
C40   H16   1.076676 S    
C28   C36   1.443363 A    
C17   H6    1.083816 S    
C1    O15   1.336285 A    
C56   C60   1.404960 A    
C15   C31   1.401397 A    
C76   C80   1.408859 A    
C48   C52   1.400585 A    
C2    O16   1.336497 A    
C16   C32   1.400738 A    
O2    C6    1.328863 A    
C16   H12   1.084081 S    
C58   H22   1.082932 S    
C10   C22   1.417792 A    
C48   N8    1.426018 S    
C48   C68   1.424414 A    
C11   C19   1.394076 A    
C62   H26   1.071340 S    
C16   C20   1.387579 A    
C43   H3    1.084418 S    
C37   H13   1.075156 S    
C76   H36   1.082694 S    
C72   H32   1.082781 S    
C13   C29   1.400817 A    
C34   C37   1.407954 A    
O11   C7    1.329651 A    
C38   H14   1.075155 S    
C11   C23   1.418418 A    
C35   C36   1.437613 A    
O12   C8    1.329653 A    
N8    O28   1.300990 A    
C47   C67   1.424978 A    
C74   H34   1.082672 S    
O10   V2    2.002565 S    
C12   C20   1.395190 A    
C50   H18   1.083542 S    
C22   C81   1.448687 S    
O5    V1    1.999507 S    
C57   H21   1.082931 S    
C23   C84   1.448866 S    
O7    V3    2.000057 S    
C38   C42   1.385357 A    
C54   C77   1.492738 S    
O8    V4    2.000060 S    
C75   C79   1.409096 A    
C46   C50   1.400759 A    
C64   C68   1.405225 A    
C45   C49   1.400744 A    
O18   V4    1.763037 S    
C15   C19   1.388063 A    
C14   H10   1.084061 S    
C32   C44   1.394267 A    
C13   H9    1.084061 S    
C71   C80   1.405038 A    
C49   H17   1.083542 S    
O4    V2    1.988934 S    
C49   C53   1.400344 A    
C44   H4    1.084439 S    
C26   C34   1.445114 A    
C69   C78   1.405107 A    
C70   H30   1.082805 S    
C20   H7    1.083922 S    
C39   C43   1.386931 A    
O5    C1    1.355959 A    
C56   C79   1.492967 S    
C46   N6    1.426440 S    
C63   H27   1.071311 S    
C71   H31   1.082820 S    
C14   C30   1.400817 A    
C21   C25   1.440070 A    
O8    C4    1.355828 A    
C7    C10   1.476559 S    
C24   C83   1.447979 S    
O9    C5    1.330438 A    
C46   C66   1.424954 A    
C45   C65   1.424992 A    
C4    C66   1.508182 S    
C63   C67   1.405345 A    
O6    V2    1.999507 S    
N6    O24   1.300877 A    
C69   H29   1.082803 S    
N8    O27   1.301243 A    
C1    C67   1.508263 S    
C73   H33   1.082673 S    
C55   C80   1.492546 S    
C58   C62   1.402300 A    
C27   C35   1.443046 A    
C3    C65   1.508159 S    
C53   C78   1.492746 S    
C64   H28   1.071469 S    
C29   C41   1.392790 A    
C52   C56   1.400551 A    
C60   C64   1.402303 A    
O16   V4    1.989927 S    
C19   H8    1.083715 S    
C3    O13   1.335980 A    
C18   H5    1.083805 S    
C71   C75   1.400137 A    
C70   C77   1.405109 A    
C69   C73   1.400073 A    
O6    C2    1.355611 A    
C25   C33   1.445122 A    
C23   C27   1.439912 A    
O11   V3    2.004973 S    
C30   C42   1.392787 A    
C47   N7    1.426431 S    
C61   H25   1.071349 S    
O12   V4    2.004974 S    
C22   C26   1.440064 A    
C8    C9    1.476564 S    
C9    C17   1.393945 A    
O10   C6    1.332318 A    
O20   V2    1.764959 S    
C54   C58   1.404722 A    
C81   N1    1.157701 T    
C33   C34   1.439000 A    
C42   H2    1.084408 S    
C41   H1    1.084408 S    
C70   C74   1.400083 A    
C12   C24   1.419008 A    
C27   C31   1.420975 A    
C13   C17   1.387200 A    
C45   N5    1.426457 S    
C2    C68   1.507946 S    
O14   V2    1.989544 S    
C51   H19   1.083559 S    
C37   C41   1.385357 A    
C24   C28   1.440477 A    
C73   C77   1.408991 A    
N6    O23   1.301024 A    
C4    O14   1.336040 A    
N7    O25   1.300988 A    
C21   C82   1.448678 S    
C59   H23   1.082949 S    
C51   C55   1.400299 A    
N5    O21   1.301027 A    
C50   C54   1.400331 A    
C53   C57   1.404736 A    
C28   C32   1.420901 A    
C15   H11   1.084056 S    
C74   C78   1.408996 A    
