data_mof_unit_38053.cif
_audit_creation_date              2012-12-10T20:02:29-0500
_audit_creation_method            fapswitch 2.2
_symmetry_space_group_name_H-M    P1
_symmetry_Int_Tables_number       1
_space_group_crystal_system       triclinic
_cell_length_a                    10.734836
_cell_length_b                    14.968599
_cell_length_c                    14.135306
_cell_angle_alpha                 89.320626
_cell_angle_beta                  90.044785
_cell_angle_gamma                 87.895507
_cell_volume                      2269.64485928

loop_
_atom_site_label
_atom_site_type_symbol
_atom_type_description
_atom_site_fract_x
_atom_site_fract_y
_atom_site_fract_z
_atom_type_partial_charge
C1    C     C_R   0.501294 0.327947 0.500520 0.869768
C2    C     C_R   0.493775 0.816375 0.413094 -0.236906
C3    C     C_R   0.509087 0.232576 0.501817 -0.023645
C4    C     C_R   0.515026 0.768293 0.497461 -0.054319
C5    C     C_R   0.595087 0.188676 0.443408 -0.183567
C6    C     C_R   0.553351 0.811419 0.578879 -0.212065
C7    C     C_R   0.606988 0.096772 0.447487 -0.224030
C8    C     C_R   0.564186 0.902843 0.577368 -0.222001
C9    C     C_R   0.525530 0.048451 0.503688 0.083027
C10   C     C_R   0.531045 0.952213 0.496104 0.095817
C11   C     C_R   0.447762 0.424933 0.107413 0.022066
C12   C     C_R   0.502520 0.672533 0.499359 0.872205
C13   C     C_R   0.412454 0.561354 0.891935 0.035786
C14   C     C_R   0.456683 0.427452 0.207212 -0.031280
C15   C     C_R   0.421695 0.559586 0.792029 -0.025241
C16   C     C_R   0.260134 0.501621 0.499905 0.902916
C17   C     C_R   0.739914 0.497818 0.499877 0.896537
C18   C     C_R   0.536219 0.572382 0.201752 -0.021197
C19   C     C_R   0.570843 0.440055 0.798881 -0.016441
C20   C     C_R   0.532971 0.572652 0.102443 -0.320026
C21   C     C_R   0.568602 0.440406 0.898121 -0.335457
C22   C     C_R   0.488318 0.499135 0.053286 0.102844
C23   C     C_R   0.872256 0.499099 0.498841 -0.152924
C24   C     C_R   0.488762 0.500707 0.946658 0.104729
C25   C     C_R   0.183135 0.792737 0.379809 -0.125599
C26   C     C_R   0.844444 0.189084 0.562930 -0.128120
C27   C     C_R   0.134381 0.723743 0.433786 -0.194120
C28   C     C_R   0.879889 0.270653 0.524235 -0.211292
C29   C     C_R   0.126485 0.638189 0.395534 0.141002
C30   C     C_R   0.878248 0.347631 0.580123 0.138404
C31   C     C_R   0.174683 0.621324 0.304681 -0.063233
C32   C     C_R   0.838377 0.342247 0.674294 -0.129129
C33   C     C_R   0.227152 0.689986 0.252155 -0.166594
C34   C     C_R   0.127732 0.500220 0.499487 -0.159063
C35   C     C_R   0.799848 0.260937 0.712031 -0.168303
C36   C     C_R   0.228682 0.776151 0.288794 -0.155347
C37   C     C_R   0.802819 0.184416 0.656357 -0.081894
C38   C     C_R   0.930534 0.569496 0.450462 0.112189
C39   C     C_R   0.069271 0.431383 0.549580 0.037019
C40   C     C_3   0.395309 0.342604 0.062692 -0.456400
C41   C     C_3   0.258529 0.330550 0.090404 -0.347316
C42   C     C_3   0.206644 0.248080 0.044199 -0.896597
C43   C     C_3   0.318520 0.626264 0.936301 -0.445501
C44   C     C_3   0.208932 0.577510 0.980312 -0.327181
C45   C     C_R   0.939919 0.428583 0.544551 -0.060455
C46   C     C_3   0.098892 0.641930 0.000514 -0.909553
C47   C     C_3   0.854851 0.648118 0.404803 -0.361877
C48   C     C_3   0.860350 0.653840 0.295616 -0.325673
C49   C     C_3   0.860729 0.563654 0.245734 -0.802542
C50   C     C_3   0.144474 0.361136 0.607929 -0.380695
C51   C     C_3   0.155949 0.390340 0.711518 -0.290043
C52   C     C_3   0.254172 0.333591 0.765077 -0.899875
C53   C     C_3   0.341628 0.044846 0.622616 -0.424036
C54   C     C_3   0.238981 0.006751 0.561204 -0.343328
C55   C     C_3   0.137489 0.965946 0.621611 -0.901174
C56   C     C_R   0.060693 0.567579 0.448259 -0.074493
C57   C     C_3   0.473226 0.958411 0.317598 -0.431721
C58   C     C_3   0.353282 0.017730 0.318433 -0.336757
C59   C     C_3   0.330042 0.062632 0.222298 -0.911772
C60   C     C_R   0.436671 0.092750 0.562816 0.115377
C61   C     C_R   0.498943 0.909229 0.411084 0.105599
C62   C     C_R   0.432874 0.185625 0.562914 -0.260950
H1    H     H_    0.266195 0.829766 0.246942 0.132770
H2    H     H_    0.627556 0.392571 0.937080 0.149062
H3    H     H_    0.184202 0.859034 0.408622 0.124921
H4    H     H_    0.850002 0.129338 0.520591 0.132657
H5    H     H_    0.098563 0.737646 0.503914 0.125650
H6    H     H_    0.914287 0.273047 0.452270 0.127781
H7    H     H_    0.169962 0.555494 0.274194 0.123570
H8    H     H_    0.840896 0.400365 0.719047 0.118999
H9    H     H_    0.264941 0.676698 0.182606 0.139510
H10   H     H_    0.769970 0.256850 0.785013 0.117622
H11   H     H_    0.366980 0.221522 0.607642 0.140855
H12   H     H_    0.774433 0.121314 0.685908 0.118348
H13   H     H_    0.471038 0.781443 0.349109 0.160082
H14   H     H_    0.655977 0.225688 0.397459 0.144059
H15   H     H_    0.575131 0.774600 0.643602 0.159353
H16   H     H_    0.206798 0.255679 0.966036 0.263398
H17   H     H_    0.263460 0.187357 0.064299 0.267373
H18   H     H_    0.109267 0.239396 0.068050 0.247440
H19   H     H_    0.249924 0.322793 0.168346 0.216923
H20   H     H_    0.201109 0.390187 0.067708 0.217521
H21   H     H_    0.400462 0.345500 0.984517 0.221766
H22   H     H_    0.452497 0.282987 0.086232 0.199391
H23   H     H_    0.678195 0.063112 0.405313 0.128407
H24   H     H_    0.128165 0.697187 0.046234 0.261964
H25   H     H_    0.060420 0.670521 0.933276 0.261042
H26   H     H_    0.024434 0.605489 0.037285 0.249082
H27   H     H_    0.177308 0.525032 0.931635 0.222476
H28   H     H_    0.238942 0.545152 0.047966 0.222157
H29   H     H_    0.364188 0.666896 0.990553 0.195016
H30   H     H_    0.281680 0.674329 0.881575 0.197403
H31   H     H_    0.944959 0.522149 0.264661 0.246918
H32   H     H_    0.776819 0.526545 0.264104 0.284664
H33   H     H_    0.860841 0.575039 0.167995 0.221334
H34   H     H_    0.593942 0.935838 0.640945 0.132097
H35   H     H_    0.778462 0.694961 0.270188 0.187138
H36   H     H_    0.943315 0.690356 0.272885 0.223664
H37   H     H_    0.755779 0.649663 0.426032 0.184177
H38   H     H_    0.887380 0.711701 0.433843 0.152873
H39   H     H_    0.346818 0.339481 0.731335 0.285925
H40   H     H_    0.260686 0.357785 0.838751 0.245310
H41   H     H_    0.228620 0.262349 0.766492 0.248906
H42   H     H_    0.180916 0.461530 0.715473 0.237065
H43   H     H_    0.065212 0.384130 0.747935 0.205695
H44   H     H_    0.102816 0.294520 0.606150 0.197311
H45   H     H_    0.427231 0.371176 0.249091 0.140968
H46   H     H_    0.237699 0.348501 0.576366 0.192765
H47   H     H_    0.177890 0.911175 0.667074 0.263639
H48   H     H_    0.091894 0.017770 0.666833 0.263109
H49   H     H_    0.065777 0.937941 0.574915 0.242302
H50   H     H_    0.196063 0.060705 0.515778 0.215042
H51   H     H_    0.279457 0.953985 0.515113 0.228898
H52   H     H_    0.387273 0.991332 0.666552 0.200431
H53   H     H_    0.296979 0.092156 0.673610 0.197944
H54   H     H_    0.408390 0.105992 0.203635 0.265277
H55   H     H_    0.319870 0.011572 0.166699 0.256350
H56   H     H_    0.363945 0.604879 0.749081 0.124095
H57   H     H_    0.242814 0.104760 0.225097 0.252704
H58   H     H_    0.272427 0.976900 0.335947 0.205748
H59   H     H_    0.358591 0.071007 0.371721 0.238309
H60   H     H_    0.553907 0.998665 0.297814 0.198761
H61   H     H_    0.464902 0.909428 0.259602 0.187210
H62   H     H_    0.568817 0.630105 0.238297 0.136529
H63   H     H_    0.627593 0.390870 0.762710 0.137878
H64   H     H_    0.565799 0.630177 0.063985 0.143285
N1    N     N_R   0.500000 0.499980 0.252470 -0.102729
N2    N     N_R   0.500000 0.500020 0.747530 -0.097240
O1    O     O_R   0.500010 0.369070 0.579480 -0.622676
O2    O     O_R   0.499990 0.630930 0.420520 -0.626895
O3    O     O_R   0.500010 0.369060 0.420520 -0.637300
O4    O     O_R   0.499990 0.630940 0.579480 -0.628741
O5    O     O_R   0.316760 0.500010 0.579480 -0.623205
O6    O     O_R   0.683240 0.499990 0.420520 -0.620569
O7    O     O_R   0.316760 0.500000 0.420520 -0.621314
O8    O     O_R   0.683240 0.500000 0.579480 -0.619792
Zn1   Zn    Zn3+2 0.500000 0.500010 0.606140 0.933367
Zn2   Zn    Zn3+2 0.500000 0.499990 0.393860 0.930623

loop_
_geom_bond_atom_site_label_1
_geom_bond_atom_site_label_2
_ccdc_geom_bond_type
C38   C56   A    
O7    Zn2   S    
C37   H12   S    
C52   H41   S    
C42   H18   S    
C23   C45   A    
C27   C29   A    
C41   C42   S    
C40   H22   S    
C30   C45   S    
C8    H34   S    
O5    Zn1   S    
C43   C44   S    
C53   C54   S    
C34   C56   A    
C48   H35   S    
C52   H40   S    
C17   C23   S    
C12   O2    A    
C19   C21   A    
C1    O1    A    
C11   C14   A    
C54   H51   S    
C19   N2    A    
C33   C36   A    
C47   H37   S    
C60   C62   A    
C21   H2    S    
C16   C34   S    
C57   H60   S    
C59   H54   S    
C31   C33   A    
C62   H11   S    
N1    Zn2   S    
C49   H32   S    
C4    C12   S    
C36   H1    S    
C9    C10   S    
C2    C61   A    
C39   C45   A    
C55   H49   S    
C42   H17   S    
C59   H55   S    
C55   H47   S    
C50   H46   S    
C40   H21   S    
C44   H27   S    
C16   O5    A    
C53   C60   S    
C44   C46   S    
C46   H26   S    
C52   H39   S    
C34   C39   A    
C26   H4    S    
C32   C35   A    
C25   H3    S    
C4    C6    A    
C5    C7    A    
C33   H9    S    
C6    H15   S    
C6    C8    A    
C3    C5    A    
O4    Zn1   S    
C19   H63   S    
C43   H29   S    
C47   H38   S    
C51   C52   S    
C13   C24   A    
C1    C3    S    
C2    C4    A    
N2    Zn1   S    
C20   H64   S    
C18   N1    A    
C57   H61   S    
C47   C48   S    
C51   H43   S    
C41   H19   S    
C17   O8    A    
C58   H58   S    
C50   C51   S    
C54   H50   S    
C49   H33   S    
C38   C47   S    
C40   C41   S    
C20   C22   A    
C35   H10   S    
C42   H16   S    
C15   N2    A    
C13   C15   A    
C55   H48   S    
C22   C24   S    
C58   C59   S    
C10   C61   A    
O2    Zn2   S    
C13   C43   S    
C44   H28   S    
C53   H52   S    
C35   C37   A    
C46   H25   S    
C3    C62   A    
C7    C9    A    
C54   C55   S    
C14   H45   S    
C58   H59   S    
C59   H57   S    
C12   O4    A    
C28   H6    S    
O8    Zn1   S    
C1    O3    A    
O6    Zn2   S    
C32   H8    S    
C26   C37   A    
C57   C61   S    
C29   C56   S    
C25   C27   A    
C23   C38   A    
C48   H36   S    
C11   C22   A    
C26   C28   A    
C43   H30   S    
C15   H56   S    
C9    C60   A    
C5    H14   S    
C28   C30   A    
C51   H42   S    
C29   C31   A    
O3    Zn2   S    
C30   C32   A    
C57   C58   S    
C7    H23   S    
C48   C49   S    
C41   H20   S    
C18   C20   A    
C11   C40   S    
C27   H5    S    
C14   N1    A    
C25   C36   A    
C31   H7    S    
C39   C50   S    
O1    Zn1   S    
C8    C10   A    
C21   C24   A    
C17   O6    A    
C50   H44   S    
C49   H31   S    
C16   O7    A    
C2    H13   S    
C53   H53   S    
C18   H62   S    
C46   H24   S    
