data_mof_unit_57019.cif
_audit_creation_date              2013-03-05T15:44:19-0500
_audit_creation_method            fapswitch 2.2
_symmetry_space_group_name_H-M    P1
_symmetry_Int_Tables_number       1
_space_group_crystal_system       triclinic
_cell_length_a                    23.540963
_cell_length_b                    10.915338
_cell_length_c                    9.700113
_cell_angle_alpha                 90.002173
_cell_angle_beta                  90.024148
_cell_angle_gamma                 90.47756
_cell_volume                      2492.43064246

loop_
_atom_site_label
_atom_site_type_symbol
_atom_site_description
_atom_site_fract_x
_atom_site_fract_y
_atom_site_fract_z
_atom_type_partial_charge
O1    O     O_R   0.500010 0.321960 0.617040 -0.517879
O2    O     O_R   0.499990 0.321920 0.382900 -0.588835
C1    C     C_R   0.498421 0.265429 0.499807 0.856187
O3    O     O_R   0.417890 0.499980 0.617100 -0.544341
O4    O     O_R   0.417870 0.499940 0.382950 -0.578006
C2    C     C_R   0.390977 0.500484 0.499931 0.844598
Cu1   Cu    Cu3+1 0.500010 0.500020 0.638630 1.047988
Cu2   Cu    Cu3+1 0.499990 0.499980 0.361370 0.952851
O5    O     O_R   0.500010 0.678080 0.617100 -0.534234
O6    O     O_R   0.499990 0.678040 0.382960 -0.598389
O7    O     O_R   0.582130 0.500060 0.617050 -0.564123
O8    O     O_R   0.582110 0.500020 0.382900 -0.586202
C3    C     C_R   0.502804 0.734750 0.500378 0.745938
C4    C     C_R   0.609170 0.501729 0.500204 0.801599
C5    C     C_R   0.880931 0.601236 0.468702 0.546830
N1    N     N_R   0.852306 0.492059 0.476671 -0.468795
C6    C     C_R   0.880118 0.382461 0.479083 0.558265
C7    C     C_R   0.940084 0.379238 0.472885 -0.139851
C8    C     C_R   0.970077 0.492274 0.474034 -0.055074
C9    C     C_R   0.940305 0.603866 0.470527 -0.014530
C10   C     C_R   0.971263 0.268240 0.471109 0.346477
C11   C     C_R   0.030640 0.272082 0.478732 -0.210205
C12   C     C_R   0.060249 0.383852 0.483666 -0.085045
C13   C     C_R   0.030025 0.494311 0.479965 -0.016144
C14   C     C_R   0.059695 0.607085 0.483463 -0.022912
C15   C     C_R   0.029431 0.717158 0.478241 -0.150667
C16   C     C_R   0.970368 0.715542 0.471179 -0.132156
C17   C     C_R   0.119782 0.387948 0.490090 0.610671
N2    N     N_R   0.147868 0.498289 0.494074 -0.443534
C18   C     C_R   0.119136 0.606803 0.492123 0.588732
O9    O     O_2   0.851808 0.707024 0.460995 -0.524488
O10   O     O_2   0.849605 0.278071 0.492291 -0.471340
H1    H     H_    0.053638 0.186500 0.477788 0.217048
O11   O     O_2   0.149514 0.282776 0.491595 -0.514624
O12   O     O_2   0.148099 0.713862 0.498713 -0.530466
H2    H     H_    0.051241 0.804923 0.479909 0.207068
H3    H     H_    0.948317 0.802181 0.468084 0.232544
C19   C     C_R   0.239503 0.532283 0.376830 0.000463
C20   C     C_R   0.298882 0.532026 0.379006 -0.236294
H4    H     H_    0.322032 0.556629 0.286327 0.178145
C21   C     C_R   0.328407 0.501295 0.499327 -0.119110
C22   C     C_R   0.297994 0.472106 0.619150 -0.243501
H5    H     H_    0.320734 0.450860 0.712887 0.232559
C23   C     C_R   0.238450 0.470610 0.620123 0.371921
C24   C     C_R   0.208928 0.500147 0.497283 0.202944
C25   C     C_R   0.758897 0.461074 0.372675 -0.108192
H6    H     H_    0.779425 0.433345 0.277885 0.150754
C26   C     C_R   0.700011 0.464504 0.379050 -0.217147
H7    H     H_    0.676149 0.436529 0.288971 0.160917
C27   C     C_R   0.672145 0.501805 0.499778 -0.084826
C28   C     C_R   0.705022 0.535855 0.616939 -0.077788
C29   C     C_R   0.764946 0.529089 0.610972 -0.000371
C30   C     C_R   0.791507 0.492999 0.487436 0.302196
C31   C     C_2   0.502278 0.933599 0.390178 -0.263550
C32   C     C_2   0.513919 0.866050 0.502752 0.194719
H8    H     H_    0.487270 0.890030 0.296103 0.168817
C33   C     C_2   0.506205 0.067408 0.388381 -0.122013
C34   C     C_2   0.493280 0.133614 0.500049 -0.204323
H9    H     H_    0.517561 0.111591 0.291764 0.185102
H10   H     H_    0.478245 0.090786 0.594286 0.215895
C35   C     C_2   0.476353 0.413245 0.923584 0.403890
N3    N     N_2   0.499380 0.498660 0.846910 -0.330751
H11   H     H_    0.513718 0.577326 0.893798 0.184328
C36   C     C_2   0.472715 0.419459 0.078529 -0.115676
N4    N     N_2   0.499370 0.498630 0.153040 -0.309323
H12   H     H_    0.447046 0.350578 0.130533 0.192464
H13   H     H_    0.526268 0.559695 0.105506 0.188960
N5    N     N_R   0.944129 0.150898 0.455748 0.162402
O13   O     O_R   0.915089 0.127174 0.344585 -0.308186
O14   O     O_R   0.958591 0.060781 0.535872 -0.361827
C37   C     C_R   0.677930 0.580828 0.744818 0.108875
C38   C     C_R   0.660102 0.702931 0.754004 -0.127138
C39   C     C_R   0.636591 0.746693 0.876636 -0.054418
C40   C     C_R   0.630069 0.668508 0.989719 -0.159694
C41   C     C_R   0.646963 0.546328 0.980265 -0.153134
C42   C     C_R   0.671284 0.502628 0.858591 -0.080908
H14   H     H_    0.665152 0.764240 0.667000 0.159541
H15   H     H_    0.623625 0.841306 0.884236 0.193658
H16   H     H_    0.611785 0.702519 0.084514 0.144970
H17   H     H_    0.641195 0.485491 0.067108 0.138099
H18   H     H_    0.684831 0.408191 0.852717 0.136494
C43   C     C_R   0.800157 0.557772 0.733874 0.089118
C44   C     C_R   0.827712 0.463302 0.805001 -0.152231
C45   C     C_R   0.860226 0.489721 0.922128 -0.136196
C46   C     C_R   0.865463 0.610450 0.968764 -0.103255
C47   C     C_R   0.838334 0.705002 0.898034 -0.104615
C48   C     C_R   0.805792 0.678947 0.780851 -0.081720
H19   H     H_    0.823606 0.369330 0.770366 0.169760
H20   H     H_    0.881224 0.416572 0.976992 0.155136
H21   H     H_    0.890529 0.630705 0.059669 0.146669
H22   H     H_    0.842488 0.798485 0.934076 0.159206
H23   H     H_    0.785057 0.752921 0.726690 0.159616
N6    N     N_R   0.542380 0.917308 0.621384 0.111907
O15   O     O_R   0.524378 0.892388 0.745137 -0.350952
O16   O     O_R   0.588817 0.981434 0.606118 -0.363775
N7    N     N_R   0.452149 0.306058 0.861484 0.149899
O17   O     O_R   0.471028 0.198937 0.897051 -0.348860
O18   O     O_R   0.403332 0.312873 0.799553 -0.351681
C49   C     C_R   0.209919 0.571395 0.249458 0.121194
C50   C     C_R   0.169294 0.495045 0.185940 -0.139186
C51   C     C_R   0.138368 0.536982 0.072668 -0.047343
C52   C     C_R   0.148773 0.654035 0.019545 -0.046971
C53   C     C_R   0.190246 0.729223 0.079520 -0.123235
C54   C     C_R   0.220703 0.688302 0.194150 -0.097545
H24   H     H_    0.161262 0.403538 0.224462 0.158185
H25   H     H_    0.106418 0.478503 0.025823 0.168691
H26   H     H_    0.124884 0.686229 0.931523 0.163230
H27   H     H_    0.198386 0.819738 0.038081 0.160767
H28   H     H_    0.251803 0.748654 0.241572 0.149266
N8    N     N_R   0.208987 0.440205 0.746230 0.141150
O19   O     O_R   0.156592 0.472612 0.765929 -0.388492
O20   O     O_R   0.235584 0.385608 0.846268 -0.332635

loop_
_geom_bond_atom_site_label_1
_geom_bond_atom_site_label_2
_geom_bond_distance
_ccdc_geom_bond_type
N6    O15   1.301194 A    
C44   H19   1.082889 S    
C7    C10   1.421896 A    
C21   C22   1.400688 A    
C31   C32   1.346976 D    
C8    C9    1.410762 A    
C32   N6    1.441948 S    
C35   N7    1.430003 S    
Cu1   Cu2   2.689452 S    
C20   C21   1.400373 A    
C46   C47   1.398013 A    
C23   C24   1.417676 A    
Cu1   O7    1.944568 S    
C15   C16   1.392027 A    
N3    H11   1.026206 S    
C28   C37   1.480626 S    
C18   O12   1.349526 S    
O4    C2    1.299666 A    
C17   N2    1.369654 A    
C47   H22   1.082257 S    
C54   H28   1.083161 S    
O7    C4    1.300225 A    
C33   H9    1.086497 S    
C34   H10   1.084869 S    
C43   C48   1.404158 A    
C14   C18   1.401811 A    
C7    C8    1.416488 A    
C39   C40   1.397561 A    
O5    C3    1.291635 A    
N1    C30   1.435235 S    
C19   C24   1.415206 A    
C38   H14   1.083066 S    
N8    O19   1.300170 A    
C44   C45   1.398349 A    
N5    O13   1.301344 A    
N4    H13   1.025214 S    
C2    C21   1.473060 S    
N7    O18   1.299202 A    
C12   C13   1.405528 A    
C53   H27   1.082305 S    
C41   H17   1.080584 S    
C38   C39   1.398001 A    
C26   C27   1.404491 A    
C49   C54   1.405498 A    
C17   O11   1.349582 S    
Cu2   N4    2.020924 S    
N6    O16   1.301635 A    
C10   C11   1.399980 A    
C35   N3    1.306990 D    
C22   C23   1.401720 A    
O3    Cu1   1.944338 S    
C27   C28   1.422390 A    
C25   C26   1.388459 A    
C5    C9    1.397872 A    
C31   H8    1.086552 S    
C40   C41   1.397868 A    
C28   C29   1.414417 A    
C51   C52   1.397465 A    
C19   C20   1.398020 A    
C13   C14   1.410652 A    
O3    C2    1.301015 A    
C20   H4    1.084110 S    
C47   C48   1.398359 A    
N1    C6    1.368717 A    
C14   C15   1.402830 A    
C39   H15   1.081850 S    
N2    C24   1.437704 S    
O1    C1    1.294160 A    
C36   H12   1.085176 S    
C35   C36   1.507017 S    
C41   C42   1.397638 A    
Cu1   N3    2.020454 S    
N2    C18   1.369003 A    
C49   C50   1.405313 A    
Cu2   O8    1.944343 S    
N7    O17   1.300877 A    
C6    C7    1.413703 A    
C50   H24   1.081659 S    
C52   H26   1.082433 S    
C12   C17   1.403161 A    
C45   C46   1.397726 A    
C29   C43   1.483626 S    
C15   H2    1.083229 S    
C26   H7    1.081195 S    
O8    C4    1.303865 A    
C40   H16   1.082388 S    
C10   N5    1.434228 S    
C22   H5    1.081095 S    
C37   C42   1.403218 A    
C29   C30   1.409541 A    
C51   H25   1.082277 S    
Cu1   O5    1.954780 S    
C11   H1    1.083648 S    
C25   H6    1.083221 S    
O1    Cu1   1.954829 S    
Cu2   O6    1.954828 S    
O2    Cu2   1.954780 S    
C19   C49   1.482590 S    
O6    C3    1.297693 A    
C42   H18   1.083056 S    
O4    Cu2   1.944568 S    
C46   H21   1.082580 S    
C5    O9    1.349863 S    
C9    C16   1.404437 A    
C36   N4    1.285872 D    
C8    C13   1.412372 A    
C37   C38   1.403495 A    
C33   C34   1.338665 D    
C4    C27   1.482481 S    
C16   H3    1.082986 S    
C25   C30   1.394536 A    
C50   C51   1.397049 A    
O2    C1    1.291233 A    
C52   C53   1.396900 A    
N8    O20   1.301750 A    
C1    C34   1.442880 S    
N5    O14   1.301147 A    
C43   C44   1.403910 A    
C45   H20   1.082349 S    
C53   C54   1.398093 A    
C6    O10   1.348024 S    
C11   C12   1.400845 A    
C48   H23   1.082886 S    
C5    N1    1.366346 A    
C3    C32   1.454907 S    
C31   C33   1.462830 S    
C23   N8    1.443772 S    
