data_mof_unit_53810.cif
_audit_creation_date              2012-12-10T19:36:44-0500
_audit_creation_method            fapswitch 2.2
_symmetry_space_group_name_H-M    P1
_symmetry_Int_Tables_number       1
_space_group_crystal_system       triclinic
_cell_length_a                    11.663416
_cell_length_b                    15.910561
_cell_length_c                    16.862048
_cell_angle_alpha                 96.403611
_cell_angle_beta                  90.778168
_cell_angle_gamma                 93.248215
_cell_volume                      3103.97217056

loop_
_atom_site_label
_atom_site_type_symbol
_atom_type_description
_atom_site_fract_x
_atom_site_fract_y
_atom_site_fract_z
_atom_type_partial_charge
C1    C     C_R   0.503129 0.489805 0.347947 0.909872
C2    C     C_R   0.505101 0.510696 0.652028 0.920400
C3    C     C_R   0.478143 0.415565 0.208793 0.260761
C4    C     C_R   0.478374 0.583909 0.788870 0.241871
C5    C     C_R   0.419458 0.753521 0.489904 -0.187613
C6    C     C_R   0.582357 0.247804 0.509046 -0.197636
C7    C     C_R   0.422170 0.843021 0.494123 0.276536
C8    C     C_R   0.581074 0.158596 0.510776 0.272042
C9    C     C_R   0.527726 0.890924 0.511279 0.099520
C10   C     C_R   0.479660 0.108491 0.486593 0.157525
C11   C     C_R   0.624438 0.846731 0.527084 0.187211
C12   C     C_R   0.383620 0.149767 0.464867 0.144475
C13   C     C_R   0.613849 0.758904 0.532912 0.486486
C14   C     C_R   0.385525 0.239529 0.471697 0.481949
C15   C     C_R   0.283963 0.499737 0.499978 0.832972
C16   C     C_R   0.716004 0.500307 0.499140 0.805650
C17   C     C_1   0.162322 0.499575 0.499844 -0.187189
C18   C     C_1   0.837657 0.500915 0.498867 -0.193627
C19   C     C_1   0.059831 0.500231 0.499582 -0.015857
C20   C     C_1   0.940170 0.500817 0.499107 -0.008744
C21   C     C_R   0.522940 0.485463 0.261125 -0.304853
C22   C     C_R   0.527433 0.518692 0.739091 -0.290914
C23   C     C_R   0.595473 0.548496 0.230770 0.058604
C24   C     C_R   0.605951 0.466418 0.771787 0.086998
C25   C     C_R   0.629696 0.536978 0.150906 0.354390
C26   C     C_R   0.636742 0.480601 0.853355 0.348038
C27   C     C_R   0.571209 0.474046 0.096970 0.061610
C28   C     C_R   0.576938 0.539364 0.904349 0.071146
C29   C     C_R   0.494713 0.414346 0.126215 0.283168
C30   C     C_R   0.500668 0.591804 0.871724 0.282349
Cu1   Cu    Cu3+1 0.494550 0.415220 0.496180 0.971244
Cu2   Cu    Cu3+1 0.505450 0.584780 0.503820 0.969066
H1    H     H_    0.661778 0.284510 0.522417 0.175526
H2    H     H_    0.339980 0.717830 0.472195 0.190539
N1    N     N_2   0.581449 0.471390 0.012916 -0.150578
N2    N     N_2   0.583049 0.542793 0.988901 -0.158785
N3    N     N_R   0.513630 0.712130 0.509560 -0.240604
N4    N     N_R   0.486370 0.287870 0.490440 -0.231605
N5    N     N_2   0.541554 0.981953 0.517466 -0.140330
N6    N     N_2   0.467879 0.017362 0.480740 -0.120905
O1    O     O_R   0.494910 0.420530 0.382500 -0.550370
O2    O     O_R   0.505090 0.579470 0.617500 -0.581612
O3    O     O_R   0.504100 0.563720 0.388950 -0.550833
O4    O     O_R   0.495900 0.436280 0.611050 -0.555154
O5    O     O_R   0.332600 0.428410 0.496780 -0.532574
O6    O     O_R   0.667400 0.571590 0.503220 -0.512524
O7    O     O_R   0.341800 0.571600 0.503230 -0.591056
O8    O     O_R   0.658200 0.428400 0.496770 -0.603375
N7    N     N_2   0.651961 0.397719 0.723172 -0.379260
H3    H     H_    0.657363 0.342818 0.749952 0.275848
C31   C     C_3   0.753083 0.418178 0.678760 -0.658297
H4    H     H_    0.831107 0.400805 0.709670 0.207401
H5    H     H_    0.760761 0.486417 0.669730 0.203512
H6    H     H_    0.748676 0.379814 0.619995 0.226305
N8    N     N_2   0.637670 0.622008 0.281163 -0.380019
H7    H     H_    0.724131 0.637072 0.276579 0.266572
C32   C     C_3   0.570540 0.695068 0.276177 -0.576270
H8    H     H_    0.578247 0.717146 0.216111 0.226126
H9    H     H_    0.602385 0.747204 0.321810 0.198937
H10   H     H_    0.478617 0.679425 0.287665 0.229904
O9    O     O_3   0.720020 0.432248 0.882379 -0.581993
C33   C     C_3   0.816256 0.484487 0.914112 0.091720
H11   H     H_    0.859258 0.450063 0.958739 0.153691
H12   H     H_    0.792984 0.546209 0.945530 0.152889
C34   C     C_3   0.903703 0.500318 0.849819 -0.373446
H13   H     H_    0.936182 0.438914 0.824520 0.227267
H14   H     H_    0.862315 0.530926 0.801787 0.226492
C35   C     C_3   0.005392 0.558039 0.884246 -0.965088
H15   H     H_    0.976233 0.621147 0.907701 0.262717
H16   H     H_    0.068819 0.566560 0.836852 0.265945
H17   H     H_    0.047810 0.529480 0.933166 0.261013
O10   O     O_3   0.718877 0.588628 0.126324 -0.581809
C36   C     C_3   0.819056 0.541999 0.117147 0.059279
H18   H     H_    0.877265 0.574079 0.076870 0.162161
H19   H     H_    0.800289 0.476007 0.088501 0.135162
C37   C     C_3   0.883639 0.540123 0.196858 -0.385530
H20   H     H_    0.910819 0.605879 0.222069 0.223931
H21   H     H_    0.826929 0.511031 0.239938 0.211304
C38   C     C_3   0.989473 0.488172 0.186062 -0.915176
H22   H     H_    0.963853 0.421289 0.163835 0.253807
H23   H     H_    0.035763 0.489542 0.244223 0.265534
H24   H     H_    0.048321 0.514750 0.142981 0.257725
O11   O     O_3   0.436157 0.353607 0.073451 -0.583701
C39   C     C_3   0.330095 0.385162 0.053241 0.082332
H25   H     H_    0.344229 0.445476 0.026111 0.145707
H26   H     H_    0.276189 0.396413 0.107082 0.161956
C40   C     C_3   0.265418 0.320491 0.992528 -0.326084
H27   H     H_    0.320727 0.305015 0.940348 0.233419
H28   H     H_    0.244688 0.261438 0.020268 0.214536
C41   C     C_3   0.154377 0.354704 0.963759 -0.952349
H29   H     H_    0.098292 0.372327 0.014986 0.256497
H30   H     H_    0.107448 0.305430 0.921761 0.266086
H31   H     H_    0.174186 0.411158 0.932055 0.254958
O12   O     O_3   0.448264 0.652135 0.922011 -0.593843
C42   C     C_3   0.339453 0.619694 0.944282 0.127895
H32   H     H_    0.327606 0.549083 0.934513 0.114447
H33   H     H_    0.272214 0.646106 0.908551 0.166464
C43   C     C_3   0.323500 0.648343 0.032843 -0.323634
H34   H     H_    0.389484 0.620642 0.068656 0.227135
H35   H     H_    0.335425 0.718521 0.043759 0.230397
C44   C     C_3   0.204666 0.620835 0.060301 -0.988832
H36   H     H_    0.137451 0.651626 0.028505 0.269825
H37   H     H_    0.197897 0.639915 0.125367 0.269456
H38   H     H_    0.190257 0.550969 0.048701 0.248232
O13   O     O_3   0.409842 0.351853 0.237179 -0.579383
C45   C     C_3   0.471507 0.277365 0.236426 0.165025
H39   H     H_    0.483234 0.263740 0.299156 0.153001
H40   H     H_    0.559204 0.282137 0.210598 0.114582
C46   C     C_3   0.402178 0.202574 0.190378 -0.338560
H41   H     H_    0.317705 0.193668 0.218604 0.206176
H42   H     H_    0.385880 0.215599 0.128121 0.259145
C47   C     C_3   0.466055 0.121269 0.188362 -0.954584
H43   H     H_    0.544998 0.126546 0.152706 0.269822
H44   H     H_    0.410064 0.066941 0.160400 0.262155
H45   H     H_    0.490697 0.109036 0.249658 0.244785
O14   O     O_3   0.392835 0.629188 0.758644 -0.595839
C48   C     C_3   0.431785 0.714787 0.756977 0.114083
H46   H     H_    0.483628 0.720605 0.703107 0.135647
H47   H     H_    0.484722 0.740977 0.810515 0.164166
C49   C     C_3   0.327931 0.768330 0.751663 -0.326690
H48   H     H_    0.275900 0.744414 0.697235 0.216495
H49   H     H_    0.273549 0.762788 0.804671 0.223407
C50   C     C_3   0.364979 0.861349 0.748105 -0.967420
H50   H     H_    0.413231 0.887437 0.803481 0.269081
H51   H     H_    0.287869 0.898250 0.742391 0.259578
H52   H     H_    0.420330 0.868231 0.695832 0.242469
O15   O     O_3   0.680313 0.119976 0.528927 -0.580526
C51   C     C_3   0.721010 0.151474 0.606612 0.073420
H53   H     H_    0.649774 0.155342 0.650206 0.138544
H54   H     H_    0.764948 0.215226 0.606144 0.139590
C52   C     C_3   0.807782 0.091970 0.634284 -0.307520
H55   H     H_    0.763623 0.029313 0.640023 0.259156
H56   H     H_    0.875973 0.083193 0.589238 0.217337
C53   C     C_3   0.863159 0.126968 0.714593 -0.945781
H57   H     H_    0.909825 0.189034 0.710043 0.256988
H58   H     H_    0.925361 0.082099 0.732911 0.262528
H59   H     H_    0.796679 0.135045 0.760945 0.264129
O16   O     O_3   0.322165 0.881838 0.479499 -0.573415
C54   C     C_3   0.260355 0.891604 0.551103 0.094729
H60   H     H_    0.306909 0.939195 0.595328 0.160991
H61   H     H_    0.247797 0.830225 0.576940 0.131344
C55   C     C_3   0.142035 0.922804 0.534137 -0.341514
H62   H     H_    0.151667 0.986090 0.512344 0.256916
H63   H     H_    0.097483 0.877979 0.486958 0.221945
C56   C     C_3   0.069243 0.929222 0.608896 -0.938481
H64   H     H_    0.058401 0.866631 0.632022 0.258865
H65   H     H_    0.983053 0.950036 0.594283 0.271065
H66   H     H_    0.110494 0.976088 0.655943 0.257576
O17   O     O_3   0.730929 0.889459 0.540334 -0.605915
C57   C     C_3   0.779596 0.904782 0.466350 0.117386
H67   H     H_    0.842963 0.959695 0.478131 0.165632
H68   H     H_    0.715522 0.923132 0.422624 0.148415
C58   C     C_3   0.842460 0.828040 0.429769 -0.355590
H69   H     H_    0.904521 0.809550 0.474348 0.243403
H70   H     H_    0.779812 0.773544 0.413202 0.234325
C59   C     C_3   0.906246 0.847566 0.354973 -0.954155
H71   H     H_    0.844636 0.863049 0.308683 0.264656
H72   H     H_    0.952250 0.791386 0.330703 0.265415
H73   H     H_    0.969908 0.901859 0.369290 0.255591
O18   O     O_3   0.282742 0.101660 0.444515 -0.600783
C60   C     C_3   0.270621 0.088800 0.360760 0.109251
H74   H     H_    0.347823 0.060242 0.333423 0.152270
H75   H     H_    0.256468 0.149927 0.337103 0.163161
C61   C     C_3   0.166558 0.027786 0.338246 -0.348784
H76   H     H_    0.180958 0.965754 0.360039 0.247657
H77   H     H_    0.088896 0.053528 0.367188 0.210356
C62   C     C_3   0.146133 0.014230 0.248054 -0.924322
H78   H     H_    0.129708 0.075252 0.224973 0.254537
H79   H     H_    0.070166 0.969557 0.233734 0.263980
H80   H     H_    0.222012 0.986983 0.218043 0.261137
O19   O     O_3   0.710883 0.719727 0.553195 -0.569567
C63   C     C_3   0.728839 0.732037 0.636777 0.079717
H81   H     H_    0.663200 0.693632 0.666062 0.131512
H82   H     H_    0.725748 0.799921 0.661204 0.151255
C64   C     C_3   0.846747 0.701847 0.656738 -0.318405
H83   H     H_    0.850346 0.633709 0.634384 0.217498
H84   H     H_    0.914152 0.738232 0.626663 0.224105
C65   C     C_3   0.870988 0.713297 0.746571 -0.957503
H85   H     H_    0.871707 0.781408 0.769988 0.264472
H86   H     H_    0.956279 0.689459 0.759092 0.267387
H87   H     H_    0.804498 0.677229 0.777740 0.251120
O20   O     O_3   0.286920 0.277124 0.451504 -0.575611
C66   C     C_3   0.201547 0.268287 0.509861 0.104966
H88   H     H_    0.212180 0.322218 0.557714 0.151515
H89   H     H_    0.204744 0.209473 0.539810 0.146447
C67   C     C_3   0.083076 0.268616 0.469997 -0.312285
H90   H     H_    0.079228 0.324659 0.436457 0.234081
H91   H     H_    0.068804 0.210796 0.426784 0.219126
C68   C     C_3   0.987780 0.270791 0.531184 -0.946661
H92   H     H_    0.989774 0.214884 0.564977 0.260522
H93   H     H_    0.903054 0.269619 0.500104 0.264564
H94   H     H_    0.998190 0.329493 0.573578 0.256629

loop_
_geom_bond_atom_site_label_1
_geom_bond_atom_site_label_2
_ccdc_geom_bond_type
O19   C63   S    
N7    H3    S    
C1    C21   S    
C44   H36   S    
C5    N3    A    
C27   C29   A    
C48   H46   S    
C11   C13   A    
C36   H18   S    
C42   H32   S    
C37   C38   S    
C15   O7    A    
C40   H27   S    
C52   C53   S    
C51   H53   S    
C16   O8    A    
C53   H59   S    
C47   H44   S    
C56   H64   S    
C32   H8    S    
C42   C43   S    
C50   H50   S    
C64   H84   S    
C3    O13   S    
O11   C39   S    
C59   H71   S    
C11   O17   S    
C26   O9    S    
C37   H21   S    
C29   O11   S    
C66   H89   S    
C54   C55   S    
C65   H86   S    
C32   H9    S    
C45   H39   S    
C9    N5    S    
O14   C48   S    
C18   C20   T    
C10   N6    S    
C3    C29   A    
O20   C66   S    
C33   H12   S    
C46   H42   S    
C60   H75   S    
C39   H25   S    
C1    O3    A    
C19   C20   S    
C2    O4    A    
C35   H15   S    
N7    C31   S    
C57   C58   S    
C2    C22   S    
C39   C40   S    
C64   C65   S    
C13   N3    A    
C49   C50   S    
C35   H16   S    
C44   H37   S    
C36   H19   S    
C55   C56   S    
O12   C42   S    
C47   H43   S    
C56   H65   S    
C63   H82   S    
C60   H74   S    
C62   H80   S    
C59   H73   S    
Cu1   O4    S    
C31   H4    S    
C65   H85   S    
C37   H20   S    
C62   H79   S    
C48   C49   S    
C16   O6    A    
C62   H78   S    
C5    C7    A    
C17   C19   T    
C32   H10   S    
C6    C8    A    
C7    O16   S    
C34   H14   S    
C46   C47   S    
C31   H5    S    
N1    N2    D    
C68   H94   S    
C56   H66   S    
C66   H88   S    
C63   C64   S    
C33   H11   S    
C57   H68   S    
C14   N4    A    
C4    C22   A    
C8    O15   S    
C41   H30   S    
Cu1   Cu2   S    
C59   H72   S    
C34   C35   S    
C5    H2    S    
N8    H7    S    
C6    N4    A    
C68   H92   S    
N8    C32   S    
Cu2   N3    S    
C12   O18   S    
C58   C59   S    
C9    C11   A    
C14   O20   S    
C10   C12   A    
C16   C18   S    
C12   C14   A    
C34   H13   S    
C44   H38   S    
C43   H35   S    
Cu1   O8    S    
C21   C23   A    
Cu2   O7    S    
C55   H63   S    
C3    C21   A    
C58   H70   S    
C15   O5    A    
C67   H91   S    
O15   C51   S    
C51   C52   S    
N5    N6    D    
C60   C61   S    
C63   H81   S    
C49   H49   S    
C41   H31   S    
C38   H23   S    
C1    O1    A    
C24   N7    S    
C15   C17   S    
C61   H76   S    
Cu1   O1    S    
C33   C34   S    
C57   H67   S    
Cu2   O6    S    
C4    O14   S    
C61   C62   S    
C24   C26   A    
C39   H26   S    
O10   C36   S    
C52   H56   S    
C51   H54   S    
C38   H24   S    
C53   H58   S    
C54   H60   S    
C42   H33   S    
Cu1   N4    S    
C23   N8    S    
C53   H57   S    
C25   C27   A    
C43   C44   S    
O13   C45   S    
C26   C28   A    
C6    H1    S    
C66   C67   S    
C31   H6    S    
C27   N1    S    
O18   C60   S    
C67   C68   S    
C48   H47   S    
C58   H69   S    
C28   C30   A    
C30   O12   S    
C64   H83   S    
O17   C57   S    
C54   H61   S    
C41   H29   S    
C45   H40   S    
C2    O2    A    
C35   H17   S    
C61   H77   S    
C36   C37   S    
Cu2   O3    S    
C22   C24   A    
C23   C25   A    
C50   H52   S    
O9    C33   S    
C65   H87   S    
C50   H51   S    
O16   C54   S    
C38   H22   S    
C7    C9    A    
C13   O19   S    
C28   N2    S    
C8    C10   A    
C43   H34   S    
Cu1   O5    S    
C40   C41   S    
C55   H62   S    
C40   H28   S    
Cu2   O2    S    
C49   H48   S    
C25   O10   S    
C68   H93   S    
C67   H90   S    
C46   H41   S    
C47   H45   S    
C4    C30   A    
C52   H55   S    
C45   C46   S    
