data_mof_unit_24628.cif
_audit_creation_date              2012-12-10T18:42:29-0500
_audit_creation_method            fapswitch 2.2
_symmetry_space_group_name_H-M    P1
_symmetry_Int_Tables_number       1
_space_group_crystal_system       triclinic
_cell_length_a                    8.590428
_cell_length_b                    10.647747
_cell_length_c                    9.86093
_cell_angle_alpha                 90.346336
_cell_angle_beta                  98.609133
_cell_angle_gamma                 89.981336
_cell_volume                      891.78716337

loop_
_atom_site_label
_atom_site_type_symbol
_atom_type_description
_atom_site_fract_x
_atom_site_fract_y
_atom_site_fract_z
_atom_type_partial_charge
C1    C     C_R   0.496696 0.260301 0.499024 0.887655
C2    C     C_R   0.503304 0.739699 0.500976 0.887670
C3    C     C_R   0.201153 0.499935 0.464114 0.961350
C4    C     C_R   0.798847 0.500065 0.535886 0.961357
C5    C     C_2   0.036028 0.499855 0.444817 -0.387927
C6    C     C_2   0.963972 0.500144 0.555183 -0.387926
C7    C     C_R   0.382876 0.061264 0.407237 0.193451
C8    C     C_R   0.617117 0.938737 0.592770 0.193476
C9    C     C_R   0.389161 0.931936 0.410255 -0.229292
C10   C     C_R   0.610833 0.068065 0.589740 -0.229292
C11   C     C_R   0.504301 0.872140 0.502148 -0.070235
C12   C     C_R   0.495696 0.127861 0.497854 -0.070236
C13   C     C_R   0.611513 0.565289 0.086794 -0.065976
C14   C     C_R   0.388487 0.434710 0.913206 -0.065976
C15   C     C_R   0.611528 0.565181 0.943066 -0.074046
C16   C     C_R   0.388472 0.434818 0.056934 -0.074044
H1    H     H_    0.974209 0.499573 0.340108 0.177894
H2    H     H_    0.025791 0.500427 0.659892 0.177893
H3    H     H_    0.303327 0.877184 0.342502 0.153891
H4    H     H_    0.696672 0.122818 0.657480 0.153892
H5    H     H_    0.700729 0.617620 0.153007 0.127944
H6    H     H_    0.299271 0.382379 0.846993 0.127943
H7    H     H_    0.700947 0.617170 0.900774 0.124153
H8    H     H_    0.299053 0.382829 0.099226 0.124151
N1    N     N_R   0.499960 0.499970 0.857200 -0.080281
N2    N     N_R   0.500040 0.500030 0.142800 -0.080281
O1    O     O_R   0.499990 0.316750 0.614620 -0.623266
O2    O     O_R   0.500010 0.683250 0.385380 -0.623268
O3    O     O_R   0.499990 0.316780 0.385290 -0.613208
O4    O     O_R   0.500010 0.683220 0.614710 -0.613205
O5    O     O_R   0.271750 0.499990 0.587840 -0.616475
O6    O     O_R   0.728250 0.500010 0.412160 -0.616475
O7    O     O_R   0.271750 0.500010 0.358510 -0.630494
O8    O     O_R   0.728250 0.499990 0.641490 -0.630494
Zn1   Zn    Zn3+2 0.500000 0.499980 0.653120 0.942724
Zn2   Zn    Zn3+2 0.500000 0.500020 0.346880 0.942723
C17   C     C_3   0.254117 0.125525 0.311352 -0.890775
H9    H     H_    0.189135 0.191814 0.369837 0.229853
H10   H     H_    0.305649 0.177459 0.231597 0.250855
H11   H     H_    0.167916 0.057011 0.258277 0.232209
C18   C     C_3   0.745864 0.874479 0.688681 -0.890877
H12   H     H_    0.810881 0.808208 0.630225 0.229877
H13   H     H_    0.832032 0.942988 0.741780 0.232220
H14   H     H_    0.694322 0.822539 0.768417 0.250868

loop_
_geom_bond_atom_site_label_1
_geom_bond_atom_site_label_2
_ccdc_geom_bond_type
C17   H9    S    
C4    O8    A    
C9    C11   A    
C18   H12   S    
C2    O4    A    
C14   H6    S    
C1    O3    A    
C7    C17   S    
C13   H5    S    
C17   H10   S    
C3    O5    A    
C18   H13   S    
O3    Zn2   S    
C4    O6    A    
C1    C12   S    
C10   C12   A    
O4    Zn1   S    
N1    Zn1   S    
C8    C11   A    
C5    C6    D    
C2    C11   S    
O6    Zn2   S    
C15   H7    S    
C17   H11   S    
C14   C16   A    
C13   C15   A    
C14   N1    A    
C16   N2    A    
C7    C12   A    
C6    H2    S    
C18   H14   S    
O5    Zn1   S    
C13   N2    A    
C15   N1    A    
C4    C6    S    
C5    H1    S    
C3    O7    A    
C7    C9    A    
O7    Zn2   S    
C8    C18   S    
O2    Zn2   S    
C16   H8    S    
O8    Zn1   S    
N2    Zn2   S    
C1    O1    A    
C2    O2    A    
O1    Zn1   S    
C9    H3    S    
C8    C10   A    
C10   H4    S    
C3    C5    S    
