data_mof_unit_32543.cif
_audit_creation_date              2012-12-11T15:36:03-0500
_audit_creation_method            fapswitch 2.2
_symmetry_space_group_name_H-M    P1
_symmetry_Int_Tables_number       1
_space_group_crystal_system       triclinic
_cell_length_a                    7.117324
_cell_length_b                    11.59281
_cell_length_c                    36.378754
_cell_angle_alpha                 89.999946
_cell_angle_beta                  92.12755
_cell_angle_gamma                 90.000245
_cell_volume                      2999.53403582

loop_
_atom_site_label
_atom_site_type_symbol
_atom_type_description
_atom_site_fract_x
_atom_site_fract_y
_atom_site_fract_z
_atom_type_partial_charge
O1    O     O_R   0.379730 0.148600 0.662710 -0.537238
O2    O     O_R   0.620270 0.851400 0.337290 -0.536809
O3    O     O_R   0.120270 0.648600 0.337290 -0.537239
O4    O     O_R   0.879730 0.351400 0.662710 -0.536809
O5    O     O_R   0.722480 0.134490 0.741330 -0.533632
O6    O     O_R   0.277520 0.865510 0.258670 -0.531895
O7    O     O_R   0.777520 0.634490 0.258670 -0.533633
O8    O     O_R   0.222480 0.365510 0.741330 -0.531896
O9    O     O_R   0.892880 0.345890 0.741600 -0.533932
O10   O     O_R   0.107120 0.654110 0.258400 -0.535376
O11   O     O_R   0.607120 0.845890 0.258400 -0.533933
O12   O     O_R   0.392880 0.154110 0.741600 -0.535375
C1    C     C_R   0.553328 0.103489 0.751502 0.719897
C2    C     C_R   0.446460 0.894968 0.247864 0.717746
C3    C     C_R   0.946670 0.603489 0.248498 0.719896
C4    C     C_R   0.053541 0.394967 0.752136 0.717745
O13   O     O_R   0.709490 0.135560 0.662990 -0.536523
O14   O     O_R   0.290510 0.864440 0.337010 -0.536029
O15   O     O_R   0.790510 0.635560 0.337010 -0.536522
O16   O     O_R   0.209490 0.364440 0.662990 -0.536029
C5    C     C_R   0.538966 0.109663 0.650398 0.714975
C6    C     C_R   0.461034 0.890336 0.349602 0.716773
C7    C     C_R   0.961033 0.609662 0.349602 0.714974
C8    C     C_R   0.038966 0.390337 0.650398 0.716774
O17   O     O_3   0.552800 0.316610 0.702160 -0.369161
O18   O     O_3   0.447200 0.683390 0.297840 -0.370922
O19   O     O_3   0.947200 0.816610 0.297840 -0.369161
O20   O     O_3   0.052800 0.183390 0.702160 -0.370921
V1    V     V_3+5 0.827630 0.234380 0.702160 1.458183
V2    V     V_3+5 0.172370 0.765620 0.297840 1.460417
V3    V     V_3+5 0.672370 0.734380 0.297840 1.458184
V4    V     V_3+5 0.327630 0.265620 0.702160 1.460417
C9    C     C_R   0.078605 0.682675 0.903194 0.618394
C10   C     C_R   0.921300 0.302313 0.101914 0.623743
C11   C     C_R   0.421393 0.182676 0.096807 0.618394
C12   C     C_R   0.578700 0.802316 0.898086 0.623742
O21   O     O_2   0.137438 0.572640 0.903567 -0.508569
O22   O     O_2   0.864787 0.412952 0.101460 -0.508621
O23   O     O_2   0.362555 0.072641 0.096433 -0.508570
O24   O     O_2   0.635215 0.912955 0.898540 -0.508621
N1    N     N_R   0.034235 0.732336 0.869938 -0.546085
N2    N     N_R   0.964589 0.253018 0.135214 -0.540024
N3    N     N_R   0.465766 0.232337 0.130062 -0.546086
N4    N     N_R   0.535409 0.753020 0.864786 -0.540025
C13   C     C_R   0.007546 0.849879 0.868584 0.642361
C14   C     C_R   0.990371 0.135477 0.136962 0.600668
C15   C     C_R   0.492456 0.349880 0.131416 0.642362
C16   C     C_R   0.509627 0.635479 0.863039 0.600670
C17   C     C_R   0.111668 0.680628 0.804650 -0.152367
C18   C     C_R   0.879730 0.312734 0.199259 -0.141085
C19   C     C_R   0.388336 0.180629 0.195351 -0.152367
C20   C     C_R   0.620269 0.812735 0.800742 -0.141082
C21   C     C_R   0.126164 0.595967 0.776851 -0.162635
C22   C     C_R   0.864953 0.401446 0.225754 -0.170318
C23   C     C_R   0.373842 0.095969 0.223149 -0.162640
C24   C     C_R   0.635043 0.901446 0.774245 -0.170323
C25   C     C_R   0.939366 0.465189 0.811590 -0.227729
C26   C     C_R   0.069802 0.522323 0.191314 -0.228874
C27   C     C_R   0.560630 0.965189 0.188409 -0.227724
C28   C     C_R   0.430199 0.022324 0.808686 -0.228872
C29   C     C_R   0.930846 0.546462 0.839645 0.671826
C30   C     C_R   0.078057 0.437477 0.164440 0.671982
C31   C     C_R   0.569150 0.046463 0.160355 0.671823
C32   C     C_R   0.421943 0.937479 0.835560 0.671984
C33   C     C_R   0.019217 0.656176 0.837444 0.201704
C34   C     C_R   0.981507 0.330657 0.167212 0.210792
C35   C     C_R   0.480783 0.156177 0.162557 0.201704
C36   C     C_R   0.518492 0.830659 0.832789 0.210791
C37   C     C_R   0.039370 0.864018 0.936038 -0.071736
C38   C     C_R   0.962290 0.120425 0.069474 -0.045212
C39   C     C_R   0.460629 0.364019 0.063962 -0.071733
C40   C     C_R   0.537707 0.620428 0.930526 -0.045216
C41   C     C_R   0.066930 0.744433 0.936853 -0.119866
C42   C     C_R   0.932550 0.239922 0.068418 -0.129708
C43   C     C_R   0.433068 0.244434 0.063147 -0.119867
C44   C     C_R   0.567448 0.739925 0.931582 -0.129708
C45   C     C_R   0.079238 0.688771 0.971132 -0.038274
C46   C     C_R   0.918322 0.294958 0.034065 -0.044441
C47   C     C_R   0.420759 0.188773 0.028869 -0.038275
C48   C     C_R   0.581675 0.794961 0.965935 -0.044441
C49   C     C_R   0.017881 0.917981 0.901468 0.094901
C50   C     C_R   0.985096 0.067040 0.104168 0.104220
C51   C     C_R   0.482120 0.417982 0.098532 0.094903
C52   C     C_R   0.514901 0.567043 0.895833 0.104215
C53   C     C_R   0.041998 0.486648 0.780543 -0.130791
C54   C     C_R   0.958312 0.507834 0.221503 -0.136605
C55   C     C_R   0.458004 0.986649 0.219457 -0.130790
C56   C     C_R   0.541685 0.007834 0.778496 -0.136607
H1    H     H_    0.872341 0.382138 0.815082 0.150602
H2    H     H_    0.142949 0.603115 0.187298 0.152473
H3    H     H_    0.627651 0.882138 0.184917 0.150601
H4    H     H_    0.357054 0.103116 0.812703 0.152472
C57   C     C_R   0.004444 0.934074 0.037581 0.051304
C58   C     C_R   0.000618 0.050158 0.968120 0.046813
C59   C     C_R   0.495554 0.434077 0.962420 0.051304
C60   C     C_R   0.499380 0.550160 0.031880 0.046814
C61   C     C_R   0.970334 0.113148 0.001423 0.024692
C62   C     C_R   0.030904 0.870621 0.004140 0.030164
C63   C     C_R   0.529663 0.613150 0.998577 0.024693
C64   C     C_R   0.469094 0.370623 0.995860 0.030164
C65   C     C_R   0.976338 0.055357 0.036015 0.064420
C66   C     C_R   0.026476 0.928735 0.969597 0.063262
C67   C     C_R   0.523659 0.555361 0.963986 0.064420
C68   C     C_R   0.473522 0.428737 0.030403 0.063263
C69   C     C_R   0.013556 0.881767 0.072921 -0.141750
C70   C     C_R   0.996590 0.103183 0.932901 -0.163849
C71   C     C_R   0.486442 0.381770 0.927079 -0.141749
C72   C     C_R   0.503410 0.603185 0.067100 -0.163850
C73   C     C_R   0.008068 0.946900 0.105283 0.036226
C74   C     C_R   0.000066 0.038391 0.900491 0.038490
C75   C     C_R   0.491928 0.446903 0.894718 0.036230
C76   C     C_R   0.499936 0.538392 0.099510 0.038486
O25   O     O_2   0.019982 0.083953 0.169830 -0.542061
O26   O     O_2   0.971613 0.902029 0.836013 -0.536079
O27   O     O_2   0.480017 0.583955 0.830170 -0.542061
O28   O     O_2   0.528391 0.402030 0.163987 -0.536080
C77   C     C_R   0.065383 0.750626 0.003944 -0.183599
C78   C     C_R   0.932273 0.232682 0.001397 -0.179783
C79   C     C_R   0.434614 0.250628 0.996056 -0.183599
C80   C     C_R   0.567724 0.732685 0.998603 -0.179784
H5    H     H_    0.780165 0.387199 0.249438 0.135179
H6    H     H_    0.203527 0.615729 0.752565 0.134836
H7    H     H_    0.719829 0.887198 0.750562 0.135179
H8    H     H_    0.296483 0.115731 0.247436 0.134835
H9    H     H_    0.802394 0.233555 0.202781 0.159630
H10   H     H_    0.181258 0.762388 0.801189 0.158500
H11   H     H_    0.697606 0.733556 0.797220 0.159630
H12   H     H_    0.318746 0.262390 0.198811 0.158500
H13   H     H_    0.022914 0.902409 0.131416 0.143981
H14   H     H_    0.987695 0.083412 0.874418 0.154651
H15   H     H_    0.477082 0.402411 0.868584 0.143983
H16   H     H_    0.512309 0.583413 0.125583 0.154650
H17   H     H_    0.029775 0.790241 0.076798 0.130386
H18   H     H_    0.986009 0.195085 0.929177 0.136602
H19   H     H_    0.470224 0.290243 0.923202 0.130386
H20   H     H_    0.513991 0.695086 0.070823 0.136603
H21   H     H_    0.081933 0.702168 0.029017 0.153654
H22   H     H_    0.912341 0.280404 0.976236 0.154449
H23   H     H_    0.418062 0.202169 0.970983 0.153654
H24   H     H_    0.587657 0.780408 0.023764 0.154449
C81   C     C_R   0.974619 0.530164 0.380938 -0.120979
C82   C     C_R   0.025378 0.469831 0.619060 -0.121572
C83   C     C_R   0.525379 0.030165 0.619062 -0.120981
C84   C     C_R   0.474623 0.969830 0.380940 -0.121575
C85   C     C_R   0.996727 0.336031 0.404787 0.686406
C86   C     C_R   0.003241 0.663961 0.595209 0.686212
C87   C     C_R   0.503267 0.836034 0.595213 0.686408
C88   C     C_R   0.496764 0.163958 0.404791 0.686214
C89   C     C_R   0.983993 0.411541 0.375020 -0.177095
C90   C     C_R   0.015973 0.588453 0.624976 -0.176472
C91   C     C_R   0.515998 0.911544 0.624980 -0.177092
C92   C     C_R   0.484036 0.088451 0.375024 -0.176468
C93   C     C_R   0.977700 0.573808 0.416849 -0.217271
C94   C     C_R   0.022318 0.426184 0.583148 -0.217489
C95   C     C_R   0.522305 0.073807 0.583150 -0.217276
C96   C     C_R   0.477676 0.926185 0.416852 -0.217495
C97   C     C_R   0.990231 0.499315 0.447819 0.016868
C98   C     C_R   0.009776 0.500676 0.552178 0.017004
C99   C     C_R   0.509772 0.999315 0.552181 0.016866
C100  C     C_R   0.490221 0.000676 0.447822 0.017003
C101  C     C_R   0.999961 0.378711 0.441061 0.012065
C102  C     C_R   0.000029 0.621280 0.558935 0.012106
C103  C     C_R   0.500039 0.878712 0.558939 0.012068
C104  C     C_R   0.499971 0.121278 0.441065 0.012109
C105  C     C_R   0.993432 0.540305 0.485073 0.093373
C106  C     C_R   0.006576 0.459685 0.514924 0.093374
C107  C     C_R   0.506569 0.040305 0.514927 0.093375
C108  C     C_R   0.493423 0.959686 0.485076 0.093376
C109  C     C_R   0.016168 0.340841 0.506525 -0.216802
C110  C     C_R   0.983832 0.659149 0.493472 -0.216830
C111  C     C_R   0.483831 0.840842 0.493475 -0.216803
C112  C     C_R   0.516168 0.159148 0.506528 -0.216831
C113  C     C_R   0.012852 0.301693 0.470481 -0.147198
C114  C     C_R   0.987137 0.698297 0.529516 -0.147202
C115  C     C_R   0.487148 0.801695 0.529519 -0.147200
C116  C     C_R   0.512862 0.198295 0.470484 -0.147204
H25   H     H_    0.020606 0.209530 0.465727 0.184857
H26   H     H_    0.979373 0.790460 0.534269 0.184867
H27   H     H_    0.479394 0.709533 0.534273 0.184857
H28   H     H_    0.520626 0.290457 0.465731 0.184868
H29   H     H_    0.030062 0.333800 0.580587 0.115696
H30   H     H_    0.969982 0.666193 0.419411 0.115731
H31   H     H_    0.469931 0.833802 0.419413 0.115698
H32   H     H_    0.530026 0.166191 0.580589 0.115734
H33   H     H_    0.018449 0.622515 0.652727 0.122968
H34   H     H_    0.981493 0.377482 0.347269 0.123079
H35   H     H_    0.481564 0.122511 0.347273 0.122966
H36   H     H_    0.518493 0.877486 0.652731 0.123078
H37   H     H_    0.026502 0.274635 0.527218 0.133203
H38   H     H_    0.973492 0.725355 0.472779 0.133204
H39   H     H_    0.473496 0.774636 0.472782 0.133203
H40   H     H_    0.526509 0.225354 0.527221 0.133204
F1    F     F_    0.005744 0.220909 0.398083 -0.700855
F2    F     F_    0.994202 0.779083 0.601912 -0.701015
F3    F     F_    0.494243 0.720912 0.601917 -0.700856
F4    F     F_    0.505810 0.279080 0.398088 -0.701017
F5    F     F_    0.848379 0.511811 0.870464 -0.700683
F6    F     F_    0.164699 0.466955 0.133588 -0.703035
F7    F     F_    0.651615 0.011811 0.129536 -0.700684
F8    F     F_    0.335301 0.966957 0.866412 -0.703035
C117  C     C_1   0.091368 0.565426 0.972345 0.439493
N5    N     N_1   0.099842 0.466106 0.970806 -0.362177
C118  C     C_1   0.903998 0.418187 0.032580 0.440850
N6    N     N_1   0.893872 0.517484 0.033918 -0.361992
C119  C     C_1   0.408630 0.065428 0.027655 0.439493
N7    N     N_1   0.400155 0.966108 0.029195 -0.362177
C120  C     C_1   0.595997 0.918190 0.967420 0.440850
N8    N     N_1   0.606123 0.017487 0.966082 -0.361991

loop_
_geom_bond_atom_site_label_1
_geom_bond_atom_site_label_2
_ccdc_geom_bond_type
C26   C30   A    
C63   C67   A    
C118  N6    T    
C48   C80   A    
O1    C5    A    
C105  C106  A    
O13   V1    S    
C117  N5    T    
O3    C7    A    
C10   N2    A    
C109  H37   S    
C39   C68   A    
C103  C115  A    
C31   F7    S    
C90   H33   S    
C28   C56   A    
C38   C65   A    
C81   C89   A    
C29   F5    S    
C119  N7    T    
C112  H40   S    
C17   H10   S    
C86   C102  A    
C11   C43   A    
C18   C22   A    
C17   C33   A    
C25   H1    S    
C19   H12   S    
C100  C104  A    
O20   V1    S    
C46   C78   A    
O9    C4    A    
C2    C55   S    
C72   H20   S    
C45   C77   A    
C21   H6    S    
C32   C36   A    
C70   C74   A    
O4    C8    A    
O11   C2    A    
C24   C56   A    
O18   V3    S    
C60   C63   A    
C64   C68   A    
N2    C14   A    
C61   C78   A    
C71   H19   S    
C12   C44   A    
C57   C69   A    
C63   C80   A    
C14   C50   A    
C13   O26   S    
C88   F4    S    
C108  C111  A    
C109  C113  A    
O16   C8    A    
C8    C82   S    
C40   C67   A    
C47   C79   A    
C38   C42   A    
C37   C41   A    
C80   H24   S    
C15   C51   A    
C86   F2    S    
O14   C6    A    
C11   N3    A    
O15   V3    S    
C114  H26   S    
O5    C1    A    
O4    V1    S    
C20   C36   A    
O9    V1    S    
C72   C76   A    
O17   V4    S    
C83   C91   A    
C60   C72   A    
O11   V3    S    
C89   H34   S    
O8    C4    A    
C86   C90   A    
O12   V4    S    
O19   V2    S    
C23   C55   A    
C21   C53   A    
C91   H36   S    
C71   C75   A    
C92   H35   S    
C77   H21   S    
C26   C54   A    
O20   V4    S    
C94   H29   S    
C20   H11   S    
C59   C67   A    
O5    V1    S    
C28   H4    S    
O17   V1    S    
C15   O28   S    
C31   C35   A    
C52   C75   A    
O7    V3    S    
C30   C34   A    
C95   C99   A    
C120  N8    T    
C88   C104  A    
C50   C73   A    
C88   C92   A    
C12   O24   S    
C37   C49   A    
C46   C118  S    
C30   F6    S    
C97   C105  A    
C107  C108  A    
C22   C54   A    
C37   C66   A    
C59   C64   A    
C115  H27   S    
C58   C61   A    
C47   C119  S    
C111  C115  A    
O1    V4    S    
C9    O21   S    
C16   C52   A    
O2    V3    S    
C10   O22   S    
C84   C96   A    
O3    V2    S    
C11   O23   S    
C24   H7    S    
O2    C6    A    
C29   C33   A    
O6    C2    A    
C101  C113  A    
O10   V2    S    
C70   H18   S    
C83   C95   A    
C96   C100  A    
C93   H30   S    
C111  H39   S    
C40   C44   A    
C64   C79   A    
C27   H3    S    
C76   H16   S    
C87   F3    S    
C18   C34   A    
C5    C83   S    
C40   C52   A    
C59   C71   A    
C26   H2    S    
C3    C54   S    
O14   V2    S    
C75   H15   S    
O6    V2    S    
C22   H5    S    
C10   C42   A    
O18   V2    S    
C16   O27   S    
O19   V3    S    
C73   H13   S    
C4    C53   S    
C99   C103  A    
N4    C36   S    
C96   H31   S    
C57   C65   A    
C97   C101  A    
O15   C7    A    
C62   C77   A    
C69   H17   S    
C18   H9    S    
O16   V4    S    
C9    C41   A    
C105  C110  A    
C60   C68   A    
C69   C73   A    
C23   H8    S    
C58   C70   A    
N1    C13   A    
C14   O25   S    
C95   H32   S    
C85   F1    S    
C13   C49   A    
C44   C48   A    
N3    C15   A    
C45   C117  S    
N1    C33   S    
C25   C29   A    
C107  C112  A    
C102  C114  A    
C110  C114  A    
C110  H38   S    
C104  C116  A    
C27   C31   A    
C28   C32   A    
O10   C3    A    
C9    N1    A    
C82   C90   A    
C32   F8    S    
C79   H23   S    
C84   C92   A    
C62   C66   A    
C39   C43   A    
C81   C93   A    
C19   C35   A    
O8    V4    S    
C85   C101  A    
C17   C21   A    
C87   C91   A    
C1    C56   S    
O7    C3    A    
C99   C107  A    
C74   H14   S    
C19   C23   A    
C100  C108  A    
C87   C103  A    
C93   C97   A    
C38   C50   A    
C27   C55   A    
C12   N4    A    
C98   C102  A    
C98   C106  A    
C20   C24   A    
C116  H28   S    
C48   C120  S    
C85   C89   A    
C49   C74   A    
C58   C66   A    
C106  C109  A    
N3    C35   S    
C42   C46   A    
C6    C84   S    
N2    C34   S    
C94   C98   A    
C41   C45   A    
C51   C76   A    
C7    C81   S    
C39   C51   A    
C82   C94   A    
O12   C1    A    
C113  H25   S    
C78   H22   S    
C43   C47   A    
C57   C62   A    
C25   C53   A    
C61   C65   A    
N4    C16   A    
C112  C116  A    
O13   C5    A    
