data_mof_unit_17880.cif
_audit_creation_date              2012-12-11T17:37:43-0500
_audit_creation_method            fapswitch 2.2
_symmetry_space_group_name_H-M    P1
_symmetry_Int_Tables_number       1
_space_group_crystal_system       triclinic
_cell_length_a                    13.046553
_cell_length_b                    13.117595
_cell_length_c                    15.377671
_cell_angle_alpha                 116.773103
_cell_angle_beta                  63.781389
_cell_angle_gamma                 96.589098
_cell_volume                      2096.16148623

loop_
_atom_site_label
_atom_site_type_symbol
_atom_type_description
_atom_site_fract_x
_atom_site_fract_y
_atom_site_fract_z
_atom_type_partial_charge
C1    C     C_R   0.997308 0.831932 0.057372 -0.115641
C2    C     C_R   0.671252 0.558337 0.319130 0.054721
C3    C     C_R   0.663182 0.460028 0.925700 0.146886
C4    C     C_R   0.070327 0.794589 0.304397 0.065921
C5    C     C_R   0.338243 0.516856 0.951560 -0.117347
C6    C     C_R   0.992338 0.183230 0.785927 -0.124714
C7    C     C_R   0.208301 0.479786 0.686761 -0.144112
C8    C     C_R   0.046406 0.259387 0.094275 -0.120309
C9    C     C_R   0.942091 0.177802 0.005546 -0.161442
C10   C     C_R   0.304119 0.579764 0.782890 -0.145891
C11   C     C_R   0.259958 0.416523 0.046995 -0.157357
C12   C     C_R   0.679513 0.478195 0.218496 -0.120529
C13   C     C_R   0.056539 0.275109 0.684584 -0.035848
C14   C     C_R   0.362681 0.435640 0.975318 0.149822
C15   C     C_R   0.054873 0.167735 0.681532 0.016833
C16   C     C_R   0.305338 0.532437 0.680725 0.072091
C17   C     C_R   0.995832 0.159874 0.058569 0.083471
C18   C     C_R   0.439183 0.780594 0.123359 -0.102958
C19   C     C_R   0.339012 0.806187 0.219565 -0.146629
C20   C     C_R   0.285178 0.919488 0.287385 0.101057
C21   C     C_R   0.335239 0.006639 0.257703 -0.138562
C22   C     C_R   0.435567 0.980660 0.161411 -0.114270
C23   C     C_R   0.755477 0.519869 0.893454 -0.139278
C24   C     C_R   0.487373 0.867707 0.094216 -0.101803
C25   C     C_R   0.170555 0.040778 0.486899 -0.192040
C26   C     C_R   0.078413 0.057686 0.586641 0.100660
C27   C     C_R   0.999465 0.974762 0.591476 0.037479
C28   C     C_R   0.002990 0.888904 0.496887 -0.236709
C29   C     C_R   0.088625 0.876268 0.396863 0.072227
C30   C     C_R   0.179600 0.946398 0.390578 0.038594
C31   C     C_R   0.926927 0.922521 0.743854 -0.213546
C32   C     C_R   0.841097 0.930301 0.842535 -0.151464
C33   C     C_R   0.734706 0.992869 0.890117 -0.128521
C34   C     C_R   0.016567 0.697836 0.301268 -0.172240
C35   C     C_R   0.713474 0.046943 0.838497 -0.130438
C36   C     C_R   0.798683 0.038915 0.739351 -0.119302
C37   C     C_R   0.906186 0.977674 0.692259 0.094447
C38   C     C_R   0.890801 0.543945 0.470113 -0.023540
C39   C     C_R   0.790237 0.511265 0.458352 -0.060804
C40   C     C_R   0.693182 0.592278 0.520289 0.070703
C41   C     C_R   0.691396 0.696980 0.604490 -0.164276
C42   C     C_R   0.787848 0.723770 0.622314 -0.123520
C43   C     C_R   0.889583 0.650713 0.552428 -0.176112
C44   C     C_R   0.498804 0.554324 0.584590 -0.236556
C45   C     C_R   0.677525 0.422188 0.989787 -0.127132
C46   C     C_R   0.391191 0.544652 0.587479 0.059257
C47   C     C_R   0.372553 0.546504 0.503612 0.042303
C48   C     C_R   0.464350 0.564968 0.422482 -0.256394
C49   C     C_R   0.573426 0.574248 0.420299 0.072746
C50   C     C_R   0.589202 0.569765 0.503864 0.031686
C51   C     C_R   0.281771 0.394212 0.401472 -0.256516
C52   C     C_R   0.184718 0.338196 0.399054 -0.281084
C53   C     C_R   0.075501 0.390500 0.481295 0.623803
C54   C     C_R   0.063238 0.504585 0.559523 -0.343793
C55   C     C_R   0.160097 0.564270 0.557634 -0.242129
C56   C     C_R   0.093108 0.800451 0.210292 -0.110039
C57   C     C_R   0.270345 0.505158 0.484431 0.153369
C58   C     C_2   0.476712 0.395394 0.947658 -0.217792
C59   C     C_2   0.568463 0.439530 0.896962 -0.163762
C60   C     C_2   0.823107 0.954394 0.103177 -0.224193
C61   C     C_2   0.818200 0.041458 0.194888 -0.123052
C62   C     C_R   0.781596 0.577509 0.307824 -0.144574
C63   C     C_R   0.896444 0.747511 0.962229 -0.160416
C64   C     C_R   0.906814 0.851228 0.039797 0.137009
H1    H     H_    0.025372 0.893016 0.116028 0.104577
H2    H     H_    0.983469 0.120788 0.814325 0.134213
H3    H     H_    0.182460 0.433394 0.624295 0.123644
H4    H     H_    0.083267 0.281022 0.150276 0.122341
H5    H     H_    0.881133 0.124754 0.981223 0.128622
H6    H     H_    0.360827 0.638686 0.810047 0.094085
H7    H     H_    0.249678 0.361272 0.084635 0.099925
H8    H     H_    0.090623 0.291861 0.615286 0.120683
H9    H     H_    0.565100 0.847631 0.019820 0.095645
H10   H     H_    0.479773 0.693260 0.071680 0.116930
H11   H     H_    0.303991 0.737642 0.241456 0.115431
H12   H     H_    0.610507 0.440970 0.197509 0.091961
H13   H     H_    0.296546 0.094491 0.308701 0.112989
H14   H     H_    0.473207 0.048257 0.139037 0.099449
H15   H     H_    0.234667 0.101123 0.484867 0.117396
H16   H     H_    0.932930 0.835537 0.502260 0.143247
H17   H     H_    0.009475 0.875057 0.708310 0.124286
H18   H     H_    0.857450 0.888077 0.881872 0.122622
H19   H     H_    0.668902 0.999660 0.967010 0.100175
H20   H     H_    0.631206 0.095464 0.875539 0.112313
H21   H     H_    0.782157 0.082172 0.700490 0.146396
H22   H     H_    0.967139 0.677814 0.561525 0.130657
H23   H     H_    0.777367 0.548748 0.832211 0.124784
H24   H     H_    0.969958 0.488040 0.413917 0.138027
H25   H     H_    0.790864 0.428220 0.395123 0.130109
H26   H     H_    0.614994 0.757977 0.656393 0.123077
H27   H     H_    0.782132 0.802930 0.688965 0.165474
H28   H     H_    0.514540 0.547654 0.645684 0.140424
H29   H     H_    0.452535 0.563322 0.356344 0.131329
H30   H     H_    0.366073 0.347970 0.342985 0.142110
H31   H     H_    0.194952 0.251549 0.336645 0.163187
H32   H     H_    0.979720 0.545360 0.625343 0.179820
H33   H     H_    0.002265 0.658477 0.353304 0.108243
H34   H     H_    0.149600 0.649839 0.622012 0.144163
H35   H     H_    0.480738 0.349109 0.989447 0.124071
H36   H     H_    0.565704 0.481878 0.851552 0.135418
H37   H     H_    0.758934 0.957779 0.077454 0.134307
H38   H     H_    0.877269 0.043230 0.227606 0.149366
H39   H     H_    0.631895 0.359804 0.016384 0.084034
H40   H     H_    0.145214 0.858929 0.181374 0.109390
H41   H     H_    0.806370 0.642831 0.366893 0.129196
H42   H     H_    0.830380 0.730939 0.934709 0.097833
H43   H     H_    0.396477 0.556012 0.902609 0.090550
N1    N     N_R   0.037320 0.720000 0.995830 -0.047459
N2    N     N_R   0.946240 0.290870 0.848020 -0.040983
N3    N     N_R   0.146160 0.501170 0.788610 -0.044101
N4    N     N_R   0.025750 0.332680 0.063570 -0.043367
N5    N     N_R   0.962680 0.280000 0.004170 -0.044398
N6    N     N_R   0.209230 0.553860 0.848010 -0.039218
N7    N     N_R   0.175100 0.482030 0.063570 -0.042422
N8    N     N_R   0.996810 0.351820 0.788610 -0.045175
N9    N     N_R   0.790770 0.446140 0.151990 -0.040010
N10   N     N_R   0.824900 0.517970 0.936430 -0.044229
N11   N     N_R   0.003190 0.648180 0.211390 -0.037967
N12   N     N_R   0.774330 0.457010 0.995830 -0.043259
N13   N     N_R   0.053760 0.709130 0.151980 -0.043187
N14   N     N_R   0.853840 0.498830 0.211390 -0.044160
N15   N     N_R   0.974250 0.667320 0.936430 -0.040796
N16   N     N_R   0.225670 0.542990 0.004170 -0.044867
Ni1   Ni    Ni4+2 0.130310 0.630310 0.000000 0.213118
Ni2   Ni    Ni4+2 0.869690 0.369690 0.000000 0.220353
Ni3   Ni    Ni4+2 0.985660 0.509480 0.863750 0.232251
Ni4   Ni    Ni4+2 0.014340 0.490520 0.136250 0.211640
S1    S     S_3+6 0.956662 0.309867 0.487754 -0.095535
O1    O     O_2   0.978096 0.204195 0.494603 -0.312079
O2    O     O_2   0.848895 0.379986 0.585165 -0.323223
O3    O     O_3   0.941352 0.268768 0.373968 -0.590912
H44   H     H_    0.865873 0.237732 0.388515 0.369032

loop_
_geom_bond_atom_site_label_1
_geom_bond_atom_site_label_2
_ccdc_geom_bond_type
C34   N11   A    
S1    O3    S    
C41   C42   A    
C3    C23   A    
C19   C20   A    
C2    C12   A    
S1    O1    D    
N16   Ni1   S    
C62   H41   S    
C20   C30   S    
C53   C54   A    
C26   C27   A    
N8    Ni3   S    
C18   C24   A    
C28   C29   A    
C53   S1    S    
C9    H5    S    
N14   Ni4   S    
N10   N12   A    
C38   C39   A    
C11   C14   A    
C11   H7    S    
C24   H9    S    
C44   C50   A    
C34   H33   S    
C52   H31   S    
C18   C19   A    
C11   N7    A    
C45   H39   S    
C6    C15   A    
C46   C47   A    
N13   Ni1   S    
C47   C48   A    
C1    H1    S    
C51   C57   A    
N10   Ni3   S    
C54   H32   S    
C4    C29   S    
C44   H28   S    
C45   N12   A    
C9    N5    A    
C41   H26   S    
C18   H10   S    
C23   H23   S    
C21   C22   A    
C4    C56   A    
C59   H36   S    
C56   N13   A    
N1    Ni1   S    
C44   C46   A    
C14   C58   S    
C4    C34   A    
C48   H29   S    
C51   C52   A    
C56   H40   S    
N9    N14   A    
C8    N4    A    
C16   C46   S    
C39   C40   A    
C15   C26   S    
C51   H30   S    
C58   C59   D    
C3    C45   A    
C31   C37   A    
C38   H24   S    
C60   C61   D    
C35   C36   A    
N15   Ni3   S    
C29   C30   A    
C2    C49   S    
C47   C57   S    
C31   C32   A    
N5    Ni2   S    
C63   H42   S    
C33   H19   S    
N3    N6    A    
C22   H14   S    
C5    C14   A    
C13   N8    A    
C10   N6    A    
N3    Ni3   S    
N7    N16   A    
N12   Ni2   S    
N2    Ni2   S    
C40   C41   A    
C8    H4    S    
N9    Ni2   S    
C55   C57   A    
C12   H12   S    
N4    Ni4   S    
C6    N2    A    
C22   C24   A    
N11   Ni4   S    
C60   H37   S    
C1    C64   A    
C10   H6    S    
C63   N15   A    
C52   C53   A    
C5    H43   S    
C9    C17   A    
C25   C30   A    
C54   C55   A    
C48   C49   A    
N4    N5    A    
C25   H15   S    
C43   H22   S    
C7    C16   A    
C58   H35   S    
N1    N15   A    
S1    O2    D    
C23   N10   A    
C35   H20   S    
C13   H8    S    
C36   H21   S    
C32   H18   S    
C5    N16   A    
C8    C17   A    
C31   H17   S    
C7    N3    A    
C60   C64   S    
C32   C33   A    
C13   C15   A    
C61   H38   S    
C25   C26   A    
C38   C43   A    
C10   C16   A    
N7    Ni4   S    
N6    Ni1   S    
C27   C37   S    
C40   C50   S    
C55   H34   S    
C19   H11   S    
C33   C35   A    
O3    H44   S    
C28   H16   S    
N11   N13   A    
N2    N8    A    
C1    N1    A    
C7    H3    S    
C63   C64   A    
C2    C62   A    
C6    H2    S    
C20   C21   A    
C36   C37   A    
C49   C50   A    
C42   C43   A    
C21   H13   S    
C27   C28   A    
C39   H25   S    
C62   N14   A    
C42   H27   S    
C12   N9    A    
C3    C59   S    
