data_mof_unit_49857.cif
_audit_creation_date              2012-12-11T15:32:02-0500
_audit_creation_method            fapswitch 2.2
_symmetry_space_group_name_H-M    P1
_symmetry_Int_Tables_number       1
_space_group_crystal_system       triclinic
_cell_length_a                    13.587422
_cell_length_b                    13.578825
_cell_length_c                    27.621673
_cell_angle_alpha                 90.288336
_cell_angle_beta                  90.291623
_cell_angle_gamma                 120.128071
_cell_volume                      4407.53341066

loop_
_atom_site_label
_atom_site_type_symbol
_atom_type_description
_atom_site_fract_x
_atom_site_fract_y
_atom_site_fract_z
_atom_type_partial_charge
C1    C     C_R   0.619510 0.898156 0.431345 0.545942
C2    C     C_R   0.631222 0.234270 0.208806 -0.103527
C3    C     C_R   0.620675 0.217216 0.258806 -0.100748
C4    C     C_R   0.666623 0.310780 0.290749 0.042054
C5    C     C_R   0.688009 0.345065 0.190615 0.042154
C6    C     C_1   0.694275 0.364596 0.139357 -0.054240
C7    C     C_1   0.650714 0.291185 0.341922 -0.055050
C8    C     C_1   0.701445 0.390125 0.097316 -0.009861
C9    C     C_1   0.231871 0.862573 0.382831 -0.010690
C10   C     C_R   0.276294 0.893608 0.257610 -0.100778
C11   C     C_R   0.257644 0.884540 0.207544 -0.103560
C12   C     C_R   0.599827 0.218783 0.431393 0.544500
C13   C     C_R   0.053898 0.785305 0.220958 -0.100965
C14   C     C_R   0.072544 0.794254 0.271021 -0.103928
C15   C     C_R   0.183829 0.847951 0.289429 0.042045
C16   C     C_R   0.146337 0.829881 0.189134 0.042121
C17   C     C_1   0.125009 0.814676 0.137823 -0.054245
C18   C     C_1   0.204931 0.854198 0.340737 -0.055016
C19   C     C_1   0.097655 0.795045 0.095773 -0.010263
C20   C     C_1   0.634476 0.865508 0.383744 -0.010985
C21   C     C_R   0.600032 0.873738 0.258181 -0.100855
C22   C     C_R   0.607663 0.862102 0.208220 -0.103266
C23   C     C_R   0.279139 0.878648 0.430634 0.545162
C24   C     C_R   0.708283 0.759490 0.222849 -0.101078
C25   C     C_R   0.700757 0.771234 0.272815 -0.103854
C26   C     C_R   0.647031 0.828857 0.290572 0.041968
C27   C     C_R   0.662248 0.805338 0.190455 0.042171
C28   C     C_1   0.675396 0.796745 0.139213 -0.054503
C29   C     C_1   0.641935 0.845559 0.341784 -0.055024
C30   C     C_1   0.692846 0.787133 0.097196 -0.010810
C31   C     C_R   0.641095 0.278304 0.615528 0.025952
C32   C     C_R   0.719912 0.260308 0.641335 -0.127034
C33   C     C_R   0.731580 0.277734 0.690779 -0.125406
C34   C     C_R   0.621039 0.901170 0.569128 0.543305
C35   C     C_R   0.668550 0.318400 0.714890 0.033688
C36   C     C_R   0.600005 0.349389 0.688197 -0.121013
C37   C     C_R   0.585072 0.327925 0.638689 -0.128063
C38   C     C_R   0.574327 0.302944 0.793671 -0.118051
C39   C     C_R   0.582012 0.324876 0.843059 -0.123697
C40   C     C_R   0.779953 0.373590 0.842309 -0.129514
C41   C     C_R   0.773533 0.355924 0.792805 -0.120174
C42   C     C_R   0.671966 0.325181 0.767803 0.037604
C43   C     C_R   0.686912 0.366991 0.866949 0.023924
C44   C     C_R   0.214858 0.857666 0.613100 0.022305
C45   C     C_R   0.602007 0.223055 0.568487 0.541381
C46   C     C_R   0.205255 0.944216 0.636848 -0.124816
C47   C     C_R   0.165738 0.928808 0.684244 -0.122446
C48   C     C_R   0.135780 0.826913 0.708285 0.033718
C49   C     C_R   0.138717 0.738165 0.683265 -0.116213
C50   C     C_R   0.176831 0.753012 0.636021 -0.123177
C51   C     C_R   0.026485 0.707281 0.777347 -0.129874
C52   C     C_R   0.010861 0.688873 0.826545 -0.126864
C53   C     C_R   0.152101 0.886113 0.842901 -0.136560
C54   C     C_R   0.170774 0.904009 0.793194 -0.114758
C55   C     C_R   0.108688 0.813961 0.760136 0.026563
C56   C     C_R   0.278983 0.880956 0.568064 0.543461
C57   C     C_R   0.074145 0.777384 0.859578 0.025113
C58   C     C_R   0.647153 0.863362 0.614622 0.011824
C59   C     C_R   0.588490 0.748937 0.628543 -0.133326
C60   C     C_R   0.609631 0.717927 0.673908 -0.133629
C61   C     C_R   0.687991 0.801162 0.706180 0.017729
C62   C     C_R   0.746376 0.916609 0.692105 -0.002553
C63   C     C_R   0.727086 0.946085 0.646388 -0.125566
C64   C     C_R   0.811224 0.809966 0.775132 -0.094895
C65   C     C_R   0.825278 0.801474 0.824494 -0.121257
C66   C     C_R   0.620496 0.695362 0.834203 -0.116308
C67   C     C_1   0.631404 0.265188 0.383859 -0.010757
C68   C     C_R   0.606404 0.707718 0.784961 -0.120693
C69   C     C_R   0.701910 0.768639 0.755509 0.029314
C70   C     C_R   0.730355 0.746263 0.854502 0.022124
C71   C     C_R   0.049653 0.761385 0.048142 0.548128
C72   C     C_R   0.714180 0.435504 0.049636 0.547005
C73   C     C_R   0.723452 0.770861 0.049476 0.557403
C74   C     C_R   0.042576 0.755009 0.910163 0.526929
C75   C     C_R   0.707202 0.427313 0.912910 0.531325
C76   C     C_R   0.749100 0.742649 0.906534 0.555914
C77   C     C_R   0.724461 0.421573 0.272576 -0.103967
C78   C     C_R   0.735129 0.438630 0.222570 -0.100923
Cr1   Cr    Cr6+3 0.417720 0.831920 0.499820 1.026370
Cr2   Cr    Cr6+3 0.668190 0.085770 0.500360 1.024509
Cr3   Cr    Cr6+3 0.414060 0.082260 0.499840 1.025683
Cr4   Cr    Cr6+3 0.908000 0.821090 0.979770 1.028987
Cr5   Cr    Cr6+3 0.912420 0.571130 0.979880 1.022517
Cr6   Cr    Cr6+3 0.657970 0.566940 0.980940 1.025887
H1    H     H_    0.759996 0.494424 0.296910 0.103476
H2    H     H_    0.572207 0.898256 0.183575 0.104550
H3    H     H_    0.751093 0.715764 0.209452 0.098407
H4    H     H_    0.737653 0.736515 0.297459 0.103589
H5    H     H_    0.764943 0.222559 0.624327 0.131352
H6    H     H_    0.493429 0.273597 0.775468 0.102560
H7    H     H_    0.508286 0.316495 0.861716 0.129487
H8    H     H_    0.784672 0.252550 0.710232 0.123934
H9    H     H_    0.850257 0.373412 0.773997 0.107245
H10   H     H_    0.861329 0.403503 0.860200 0.133298
H11   H     H_    0.554345 0.385694 0.705818 0.101860
H12   H     H_    0.778738 0.524743 0.208787 0.098707
H13   H     H_    0.525164 0.343893 0.619195 0.122922
H14   H     H_    0.233591 0.025676 0.619804 0.130039
H15   H     H_    0.974596 0.637531 0.752767 0.111416
H16   H     H_    0.945931 0.606096 0.838873 0.126572
H17   H     H_    0.161961 0.997547 0.702535 0.107158
H18   H     H_    0.235289 0.987038 0.780771 0.110356
H19   H     H_    0.198819 0.955928 0.868153 0.113340
H20   H     H_    0.117604 0.659084 0.700981 0.107065
H21   H     H_    0.182839 0.684624 0.618569 0.132573
H22   H     H_    0.525933 0.684018 0.604607 0.120904
H23   H     H_    0.593992 0.161429 0.184459 0.104207
H24   H     H_    0.885937 0.854411 0.752694 0.126274
H25   H     H_    0.910442 0.839983 0.839468 0.135031
H26   H     H_    0.563395 0.629171 0.684235 0.107532
H27   H     H_    0.521294 0.674755 0.770403 0.111494
H28   H     H_    0.545849 0.650864 0.856629 0.132470
H29   H     H_    0.770847 0.035288 0.636544 0.125226
H30   H     H_    0.575505 0.131116 0.272567 0.098644
H31   H     H_    0.362772 0.935062 0.271528 0.098525
H32   H     H_    0.329653 0.918820 0.183327 0.104215
H33   H     H_    0.967391 0.742402 0.207037 0.098616
H34   H     H_    0.000499 0.758383 0.295232 0.103327
H35   H     H_    0.558535 0.918768 0.271570 0.098430
O1    O     O_R   0.302900 0.805360 0.446400 -0.504892
O2    O     O_R   0.657980 0.180990 0.549630 -0.508077
O3    O     O_R   0.503420 0.197810 0.553190 -0.517523
O4    O     O_R   0.320350 0.978840 0.548910 -0.502026
O5    O     O_3   0.499990 0.999990 0.500010 -0.246277
O6    O     O_R   0.819150 0.845650 0.033320 -0.498287
O7    O     O_R   0.006060 0.815720 0.028680 -0.492550
O8    O     O_R   0.028100 0.664460 0.032550 -0.499791
O9    O     O_R   0.811290 0.477490 0.029660 -0.489539
O10   O     O_R   0.638120 0.455970 0.034270 -0.503327
O11   O     O_R   0.667540 0.672320 0.030160 -0.487444
O12   O     O_R   0.522090 0.841370 0.450730 -0.494437
O13   O     O_R   0.814460 0.840990 0.926980 -0.498338
O14   O     O_R   0.001710 0.811400 0.930110 -0.520684
O15   O     O_R   0.023410 0.659800 0.926210 -0.512087
O16   O     O_R   0.806940 0.473170 0.931090 -0.510943
O17   O     O_R   0.633420 0.451310 0.927930 -0.524334
O18   O     O_R   0.663190 0.668000 0.931580 -0.501244
O19   O     O_3   0.826130 0.653050 0.980200 -0.272736
O20   O     O_R   0.693280 0.995650 0.447220 -0.503015
O21   O     O_R   0.657260 0.178740 0.451050 -0.493122
O22   O     O_R   0.502640 0.195380 0.446850 -0.504717
O23   O     O_R   0.319630 0.976590 0.450330 -0.493059
O24   O     O_R   0.303680 0.807790 0.552740 -0.519014
O25   O     O_R   0.522820 0.843620 0.549310 -0.498016
O26   O     O_R   0.694060 0.998080 0.553560 -0.522295
C79   C     C_1   0.819900 0.007987 0.724870 0.176004
N1    N     N_1   0.878645 0.081278 0.751042 -0.315029

loop_
_geom_bond_atom_site_label_1
_geom_bond_atom_site_label_2
_ccdc_geom_bond_type
C48   C55   S    
C66   C68   A    
C21   C26   A    
C47   H17   S    
C15   C18   S    
C41   C42   A    
C2    H23   S    
C19   C71   S    
C35   C36   A    
C24   C27   A    
Cr5   O9    S    
C49   H20   S    
C37   H13   S    
C72   O10   A    
C66   C70   A    
C77   C78   A    
C34   O25   A    
Cr3   O4    S    
C36   C37   A    
C38   C42   A    
C10   C15   A    
C38   C39   A    
C34   O26   A    
C75   O16   A    
C16   C17   S    
C44   C50   A    
C65   C70   A    
C74   O14   A    
Cr6   O10   S    
C12   O22   A    
C35   C42   S    
Cr4   O7    S    
Cr5   O15   S    
C77   H1    S    
C73   O11   A    
C46   C47   A    
C56   O24   A    
C40   C43   A    
Cr1   O24   S    
C31   C32   A    
C78   H12   S    
C68   C69   A    
C14   H34   S    
Cr6   O17   S    
C50   H21   S    
C12   O21   A    
C23   O23   A    
Cr5   O16   S    
C1    O20   A    
Cr2   O2    S    
Cr3   O22   S    
C46   H14   S    
Cr6   O19   S    
C59   C60   A    
C21   C22   A    
C43   C75   S    
C71   O8    A    
C4    C7    S    
C39   H7    S    
C44   C46   A    
C64   H24   S    
C20   C29   T    
C51   H15   S    
C12   C67   S    
C41   H9    S    
C8    C72   S    
C59   H22   S    
Cr3   O5    S    
C51   C52   A    
C56   O4    A    
C60   H26   S    
C24   C25   A    
C52   C57   A    
C33   H8    S    
C40   H10   S    
C23   O1    A    
C30   C73   S    
C53   C57   A    
C75   O17   A    
C9    C23   S    
C6    C8    T    
C45   O2    A    
C58   C59   A    
C53   C54   A    
C52   H16   S    
C25   H4    S    
C31   C37   A    
C60   C61   A    
C68   H27   S    
C57   C74   S    
Cr4   O6    S    
C62   C63   A    
C11   C16   A    
C44   C56   S    
C47   C48   A    
C73   O6    A    
Cr1   O12   S    
Cr1   O1    S    
C71   O7    A    
C64   C69   A    
C11   H32   S    
C65   H25   S    
Cr3   O23   S    
C72   O9    A    
Cr6   O18   S    
C22   C27   A    
C32   H5    S    
C70   C76   S    
C2    C5    A    
Cr4   O13   S    
C3    C4    A    
C79   N1    T    
Cr2   O5    S    
C61   C69   S    
C58   C63   A    
C54   C55   A    
C40   C41   A    
C1    C20   S    
C54   H18   S    
C76   O18   A    
Cr5   O8    S    
C1    O12   A    
C3    H30   S    
C13   H33   S    
C31   C45   S    
C45   O3    A    
Cr2   O20   S    
Cr1   O5    S    
C38   H6    S    
Cr1   O25   S    
Cr3   O3    S    
C64   C65   A    
Cr4   O14   S    
C28   C30   T    
C2    C3    A    
C25   C26   A    
C4    C77   A    
C21   H35   S    
Cr2   O21   S    
C32   C33   A    
C76   O13   A    
C36   H11   S    
C5    C6    S    
C53   H19   S    
C48   C49   A    
C74   O15   A    
Cr6   O11   S    
C33   C35   A    
C51   C55   A    
C22   H2    S    
C61   C62   A    
C24   H3    S    
Cr2   O26   S    
C10   C11   A    
C7    C67   T    
C63   H29   S    
C17   C19   T    
C9    C18   T    
C39   C43   A    
C26   C29   S    
Cr4   O19   S    
C49   C50   A    
C62   C79   S    
C13   C16   A    
C27   C28   S    
C34   C58   S    
C14   C15   A    
C66   H28   S    
C5    C78   A    
C13   C14   A    
Cr5   O19   S    
C10   H31   S    
