data_mof_unit_64781.cif
_audit_creation_date              2012-12-10T18:59:44-0500
_audit_creation_method            fapswitch 2.2
_symmetry_space_group_name_H-M    P1
_symmetry_Int_Tables_number       1
_space_group_crystal_system       triclinic
_cell_length_a                    26.18806
_cell_length_b                    34.56532
_cell_length_c                    34.544031
_cell_angle_alpha                 90.002494
_cell_angle_beta                  89.999542
_cell_angle_gamma                 90.000025
_cell_volume                      31269.2110279

loop_
_atom_site_label
_atom_site_type_symbol
_atom_type_description
_atom_site_fract_x
_atom_site_fract_y
_atom_site_fract_z
_atom_type_partial_charge
C1    C     C_R   0.611435 0.000084 0.250124 0.852854
C2    C     C_R   0.611434 0.000086 0.749874 0.856595
C3    C     C_R   0.388565 0.999849 0.249889 0.850151
C4    C     C_R   0.388566 0.999852 0.750109 0.860411
C5    C     C_R   0.111435 0.500084 0.250124 0.852852
C6    C     C_R   0.111435 0.499852 0.750109 0.857583
C7    C     C_R   0.888565 0.499850 0.249889 0.850152
C8    C     C_R   0.888565 0.500086 0.749874 0.859527
C9    C     C_R   0.111435 0.999849 0.749888 0.850241
C10   C     C_R   0.111434 0.000086 0.249873 0.859983
C11   C     C_R   0.888565 0.000085 0.750124 0.856379
C12   C     C_R   0.888566 0.999851 0.250110 0.853410
C13   C     C_R   0.611435 0.499849 0.749888 0.850229
C14   C     C_R   0.611435 0.499852 0.250108 0.860391
C15   C     C_R   0.388565 0.500085 0.750124 0.856386
C16   C     C_R   0.388565 0.500085 0.249875 0.853146
C17   C     C_R   0.791425 0.667879 0.234339 -0.178119
C18   C     C_R   0.791504 0.667874 0.765531 -0.178796
C19   C     C_R   0.208550 0.667875 0.234373 -0.180422
C20   C     C_R   0.208562 0.667880 0.765635 -0.176523
C21   C     C_R   0.291398 0.167880 0.234297 -0.178129
C22   C     C_R   0.291461 0.167876 0.765604 -0.178948
C23   C     C_R   0.708553 0.167875 0.234367 -0.180406
C24   C     C_R   0.708563 0.167880 0.765636 -0.176369
C25   C     C_R   0.291469 0.667875 0.734401 -0.177302
C26   C     C_R   0.291419 0.667880 0.265663 -0.179467
C27   C     C_R   0.708483 0.667872 0.734486 -0.178101
C28   C     C_R   0.708588 0.667881 0.265679 -0.178986
C29   C     C_R   0.791468 0.167875 0.734399 -0.177313
C30   C     C_R   0.791415 0.167881 0.265669 -0.179619
C31   C     C_R   0.208526 0.167874 0.734414 -0.178076
C32   C     C_R   0.208615 0.167882 0.265720 -0.178839
C33   C     C_R   0.750004 0.647496 0.250006 -0.001934
C34   C     C_R   0.749996 0.647491 0.750006 -0.001705
C35   C     C_R   0.249990 0.647494 0.250011 -0.001212
C36   C     C_R   0.250009 0.647494 0.750011 -0.002585
C37   C     C_R   0.250005 0.147496 0.250006 -0.002022
C38   C     C_R   0.249995 0.147492 0.750007 -0.001690
C39   C     C_R   0.749990 0.147494 0.250011 -0.001156
C40   C     C_R   0.750010 0.147494 0.750011 -0.002645
C41   C     C_R   0.750010 0.728658 0.250011 0.112028
C42   C     C_R   0.749991 0.728651 0.750011 0.110814
C43   C     C_R   0.249970 0.728656 0.250033 0.111670
C44   C     C_R   0.250030 0.728656 0.750033 0.111174
C45   C     C_R   0.250010 0.228659 0.250011 0.112026
C46   C     C_R   0.249990 0.228653 0.750011 0.110857
C47   C     C_R   0.749970 0.228656 0.250033 0.111687
C48   C     C_R   0.750030 0.228656 0.750033 0.111159
C49   C     C_2   0.528081 0.522805 0.271853 -0.160325
C50   C     C_2   0.528081 0.522782 0.728122 -0.160224
C51   C     C_2   0.471919 0.521869 0.272792 -0.159418
C52   C     C_2   0.471919 0.521841 0.727181 -0.165422
C53   C     C_2   0.028081 0.021868 0.272793 -0.162426
C54   C     C_2   0.028081 0.022781 0.728122 -0.160224
C55   C     C_2   0.971919 0.022807 0.271852 -0.157783
C56   C     C_2   0.971919 0.021841 0.727181 -0.165414
C57   C     C_2   0.028081 0.522798 0.771861 -0.161379
C58   C     C_2   0.028081 0.521852 0.227191 -0.160170
C59   C     C_2   0.971919 0.521862 0.772799 -0.162968
C60   C     C_2   0.971919 0.522789 0.228129 -0.161003
C61   C     C_2   0.528081 0.021857 0.772804 -0.164687
C62   C     C_2   0.528081 0.021852 0.227191 -0.160174
C63   C     C_2   0.471919 0.022799 0.771860 -0.159578
C64   C     C_2   0.471919 0.022788 0.228129 -0.160994
C65   C     C_2   0.556107 0.498327 0.250495 -0.272515
C66   C     C_2   0.556106 0.498315 0.749491 -0.276183
C67   C     C_2   0.443893 0.500475 0.248343 -0.277182
C68   C     C_2   0.443893 0.500478 0.751657 -0.273245
C69   C     C_2   0.056107 0.000482 0.248337 -0.273997
C70   C     C_2   0.056106 0.998316 0.749492 -0.276188
C71   C     C_2   0.943894 0.998321 0.250502 -0.275942
C72   C     C_2   0.943893 0.000478 0.751657 -0.273244
C73   C     C_2   0.056107 0.498325 0.750497 -0.270105
C74   C     C_2   0.056106 0.500473 0.251653 -0.279637
C75   C     C_2   0.943893 0.500479 0.748339 -0.271353
C76   C     C_2   0.943893 0.498318 0.249494 -0.278459
C77   C     C_2   0.556107 0.000482 0.748337 -0.270845
C78   C     C_2   0.556106 0.000473 0.251653 -0.279638
C79   C     C_2   0.443894 0.998322 0.750500 -0.270343
C80   C     C_2   0.443893 0.998318 0.249494 -0.278460
C81   C     C_R   0.735584 0.966204 0.458394 0.644785
C82   C     C_R   0.705553 0.988881 0.541582 0.648266
C83   C     C_R   0.264411 0.966202 0.458393 0.644731
C84   C     C_R   0.294443 0.988877 0.541581 0.648272
C85   C     C_R   0.235589 0.466202 0.458394 0.644769
C86   C     C_R   0.205557 0.488878 0.541582 0.648216
C87   C     C_R   0.764414 0.466203 0.458394 0.644742
C88   C     C_R   0.794446 0.488880 0.541582 0.648327
C89   C     C_R   0.235589 0.966202 0.958393 0.645121
C90   C     C_R   0.205556 0.988877 0.041582 0.648323
C91   C     C_R   0.794444 0.988881 0.958417 0.648270
C92   C     C_R   0.764414 0.966203 0.041603 0.645162
C93   C     C_R   0.735594 0.466200 0.958393 0.645106
C94   C     C_R   0.705559 0.488873 0.041582 0.648277
C95   C     C_R   0.294446 0.488882 0.958416 0.648255
C96   C     C_R   0.264418 0.466204 0.041603 0.645155
C97   C     C_R   0.735235 0.966206 0.418069 0.532442
C98   C     C_R   0.705520 0.988647 0.581907 0.533387
C99   C     C_R   0.264760 0.966204 0.418069 0.532639
C100  C     C_R   0.294477 0.988643 0.581906 0.533431
C101  C     C_R   0.235239 0.466205 0.418069 0.532444
C102  C     C_R   0.205523 0.488644 0.581906 0.533528
C103  C     C_R   0.764763 0.466205 0.418069 0.532631
C104  C     C_R   0.794479 0.488646 0.581906 0.533288
C105  C     C_R   0.235240 0.966204 0.918069 0.533472
C106  C     C_R   0.205522 0.988643 0.081906 0.531828
C107  C     C_R   0.794478 0.988648 0.918093 0.531934
C108  C     C_R   0.764765 0.966205 0.081928 0.533381
C109  C     C_R   0.735244 0.466203 0.918068 0.533483
C110  C     C_R   0.705525 0.488639 0.081906 0.531968
C111  C     C_R   0.294479 0.488649 0.918092 0.531940
C112  C     C_R   0.264768 0.466206 0.081928 0.533304
C113  C     C_R   0.750662 0.999369 0.397588 -0.234746
C114  C     C_R   0.749225 0.000450 0.602406 -0.237455
C115  C     C_R   0.249336 0.999368 0.397588 -0.234846
C116  C     C_R   0.250773 0.000449 0.602406 -0.237663
C117  C     C_R   0.250663 0.499368 0.397588 -0.234781
C118  C     C_R   0.249227 0.500449 0.602406 -0.237598
C119  C     C_R   0.749337 0.499369 0.397588 -0.234807
C120  C     C_R   0.750775 0.500449 0.602406 -0.237521
C121  C     C_R   0.250663 0.999368 0.897588 -0.234721
C122  C     C_R   0.249226 0.000449 0.102406 -0.236920
C123  C     C_R   0.750773 0.000452 0.897594 -0.236802
C124  C     C_R   0.749340 0.999368 0.102412 -0.234762
C125  C     C_R   0.750664 0.499368 0.897588 -0.234764
C126  C     C_R   0.749227 0.500449 0.102406 -0.237064
C127  C     C_R   0.250774 0.500452 0.897594 -0.236872
C128  C     C_R   0.249341 0.499368 0.102412 -0.234727
C129  C     C_R   0.766837 0.032251 0.417979 -0.269901
C130  C     C_R   0.792602 0.012776 0.582028 -0.270867
C131  C     C_R   0.233162 0.032250 0.417979 -0.270211
C132  C     C_R   0.207398 0.012776 0.582029 -0.270593
C133  C     C_R   0.266837 0.532251 0.417979 -0.270108
C134  C     C_R   0.292602 0.512777 0.582028 -0.270875
C135  C     C_R   0.733162 0.532251 0.417979 -0.270008
C136  C     C_R   0.707398 0.512776 0.582029 -0.270581
C137  C     C_R   0.266835 0.032251 0.917979 -0.269930
C138  C     C_R   0.292601 0.012778 0.082028 -0.270098
C139  C     C_R   0.707396 0.012778 0.917973 -0.270401
C140  C     C_R   0.733165 0.032250 0.082024 -0.270004
C141  C     C_R   0.766835 0.532251 0.917979 -0.270126
C142  C     C_R   0.792602 0.512779 0.082028 -0.270101
C143  C     C_R   0.207397 0.512778 0.917973 -0.270257
C144  C     C_R   0.233165 0.532250 0.082024 -0.270037
C145  C     C_R   0.766483 0.032404 0.458269 -0.254545
C146  C     C_R   0.792840 0.012480 0.541738 -0.257702
C147  C     C_R   0.233515 0.032403 0.458269 -0.254475
C148  C     C_R   0.207159 0.012480 0.541738 -0.257778
C149  C     C_R   0.266484 0.532403 0.458269 -0.254541
C150  C     C_R   0.292841 0.512480 0.541738 -0.257710
C151  C     C_R   0.733516 0.532403 0.458269 -0.254480
C152  C     C_R   0.707160 0.512480 0.541738 -0.257775
C153  C     C_R   0.266482 0.032404 0.958269 -0.254498
C154  C     C_R   0.292839 0.012482 0.041738 -0.257851
C155  C     C_R   0.707158 0.012481 0.958263 -0.257793
C156  C     C_R   0.733516 0.032403 0.041734 -0.254542
C157  C     C_R   0.766482 0.532403 0.958269 -0.254491
C158  C     C_R   0.792841 0.512483 0.041738 -0.257854
C159  C     C_R   0.207159 0.512481 0.958264 -0.257815
C160  C     C_R   0.233517 0.532403 0.041734 -0.254557
C161  C     C_R   0.749799 0.999807 0.144838 0.882717
C162  C     C_R   0.750232 0.000136 0.855164 0.882017
C163  C     C_R   0.249767 0.000135 0.144836 0.882095
C164  C     C_R   0.250202 0.999807 0.855162 0.882715
C165  C     C_R   0.249800 0.499807 0.144838 0.882531
C166  C     C_R   0.250232 0.500136 0.855164 0.882047
C167  C     C_R   0.749768 0.500135 0.144836 0.882273
C168  C     C_R   0.750202 0.499807 0.855162 0.882685
C169  C     C_R   0.250232 0.000135 0.644836 0.882359
C170  C     C_R   0.249798 0.999807 0.355162 0.882521
C171  C     C_R   0.749767 0.000135 0.644836 0.882170
C172  C     C_R   0.750201 0.999807 0.355162 0.882342
C173  C     C_R   0.750233 0.500135 0.644836 0.882179
C174  C     C_R   0.749798 0.499807 0.355162 0.882549
C175  C     C_R   0.249767 0.500135 0.644836 0.882345
C176  C     C_R   0.250201 0.499807 0.355162 0.882303
C177  C     C_R   0.750425 0.999559 0.478729 -0.052306
C178  C     C_R   0.749550 0.000210 0.521263 -0.054416
C179  C     C_R   0.249572 0.999557 0.478728 -0.052271
C180  C     C_R   0.250447 0.000208 0.521263 -0.054449
C181  C     C_R   0.250428 0.499557 0.478728 -0.052286
C182  C     C_R   0.249553 0.500209 0.521263 -0.054420
C183  C     C_R   0.749575 0.499558 0.478729 -0.052289
C184  C     C_R   0.750450 0.500210 0.521263 -0.054446
C185  C     C_R   0.250427 0.999558 0.978728 -0.052362
C186  C     C_R   0.249551 0.000209 0.021263 -0.054184
C187  C     C_R   0.750447 0.000210 0.978737 -0.054162
C188  C     C_R   0.749572 0.999557 0.021271 -0.052364
C189  C     C_R   0.750430 0.499556 0.978728 -0.052345
C190  C     C_R   0.749554 0.500208 0.021263 -0.054188
C191  C     C_R   0.250449 0.500211 0.978737 -0.054177
C192  C     C_R   0.249575 0.499559 0.021271 -0.052349
C193  C     C_R   0.749999 0.105125 0.250001 0.787336
C194  C     C_R   0.750001 0.105125 0.750001 0.793642
C195  C     C_R   0.250001 0.105126 0.250001 0.790327
C196  C     C_R   0.249999 0.105124 0.750002 0.790610
C197  C     C_R   0.249999 0.605125 0.250001 0.787383
C198  C     C_R   0.250001 0.605125 0.750001 0.793615
C199  C     C_R   0.750001 0.605125 0.250002 0.790268
C200  C     C_R   0.749999 0.605124 0.750002 0.790614
C201  C     C_R   0.750001 0.894848 0.250000 0.792296
C202  C     C_R   0.749999 0.894846 0.750000 0.776696
C203  C     C_R   0.249995 0.894848 0.250003 0.784624
C204  C     C_R   0.250005 0.894848 0.750004 0.783933
C205  C     C_R   0.250001 0.394849 0.250000 0.792476
C206  C     C_R   0.249999 0.394847 0.750000 0.776453
C207  C     C_R   0.749995 0.394848 0.250004 0.784417
C208  C     C_R   0.750004 0.394848 0.750004 0.784145
C209  C     C_R   0.729882 0.791843 0.281618 -0.166764
C210  C     C_R   0.729649 0.791829 0.718476 -0.167580
C211  C     C_R   0.270149 0.791843 0.281619 -0.167603
C212  C     C_R   0.270244 0.791832 0.718450 -0.166752
C213  C     C_R   0.229925 0.291844 0.281633 -0.166736
C214  C     C_R   0.229731 0.291832 0.718446 -0.167589
C215  C     C_R   0.770143 0.291843 0.281621 -0.167625
C216  C     C_R   0.770242 0.291832 0.718449 -0.166726
C217  C     C_R   0.229821 0.791842 0.781608 -0.167290
C218  C     C_R   0.229786 0.791833 0.218439 -0.167035
C219  C     C_R   0.770334 0.791835 0.781538 -0.168185
C220  C     C_R   0.770136 0.791837 0.218397 -0.166133
C221  C     C_R   0.729823 0.291842 0.781609 -0.167266
C222  C     C_R   0.729791 0.291833 0.218437 -0.167055
C223  C     C_R   0.270251 0.291838 0.781568 -0.168193
C224  C     C_R   0.270092 0.291839 0.218381 -0.166106
C225  C     C_R   0.729538 0.832105 0.281481 -0.159462
C226  C     C_R   0.729310 0.832091 0.718609 -0.169602
C227  C     C_R   0.270498 0.832106 0.281476 -0.159093
C228  C     C_R   0.270578 0.832094 0.718577 -0.170204
C229  C     C_R   0.229580 0.332106 0.281496 -0.159452
C230  C     C_R   0.229391 0.332094 0.718580 -0.169721
C231  C     C_R   0.770493 0.332106 0.281478 -0.159116
C232  C     C_R   0.770576 0.332094 0.718576 -0.170090
C233  C     C_R   0.229473 0.832105 0.781465 -0.159053
C234  C     C_R   0.229451 0.832094 0.218566 -0.170131
C235  C     C_R   0.770677 0.832097 0.781399 -0.169698
C236  C     C_R   0.770475 0.832099 0.218528 -0.159453
C237  C     C_R   0.729474 0.332105 0.781466 -0.159027
C238  C     C_R   0.729455 0.332094 0.218565 -0.170243
C239  C     C_R   0.270595 0.332100 0.781429 -0.169728
C240  C     C_R   0.270432 0.332101 0.218513 -0.159347
C241  C     C_R   0.750005 0.852483 0.250003 -0.019439
C242  C     C_R   0.749995 0.852477 0.750003 -0.008236
C243  C     C_R   0.249982 0.852482 0.250015 -0.013708
C244  C     C_R   0.250018 0.852481 0.750015 -0.013784
C245  C     C_R   0.250004 0.352484 0.250003 -0.019477
C246  C     C_R   0.249995 0.352480 0.750003 -0.008120
C247  C     C_R   0.749981 0.352482 0.250015 -0.013649
C248  C     C_R   0.750018 0.352481 0.750015 -0.013846
C249  C     C_R   0.750010 0.771324 0.250009 0.100452
C250  C     C_R   0.749991 0.771316 0.750008 0.103829
C251  C     C_R   0.249966 0.771322 0.250032 0.102183
C252  C     C_R   0.250034 0.771321 0.750032 0.102131
C253  C     C_R   0.250010 0.271325 0.250009 0.100450
C254  C     C_R   0.249990 0.271319 0.750009 0.103824
C255  C     C_R   0.749966 0.271322 0.250032 0.102183
C256  C     C_R   0.750034 0.271321 0.750031 0.102130
C257  C     C_R   0.791605 0.708141 0.234598 -0.167503
C258  C     C_R   0.791681 0.708136 0.765273 -0.168759
C259  C     C_R   0.208361 0.708137 0.234642 -0.168401
C260  C     C_R   0.208395 0.708142 0.765388 -0.167861
C261  C     C_R   0.291579 0.208142 0.234556 -0.167494
C262  C     C_R   0.291637 0.208138 0.765347 -0.168746
C263  C     C_R   0.708364 0.208137 0.234637 -0.168425
C264  C     C_R   0.708395 0.208142 0.765389 -0.167893
C265  C     C_R   0.291657 0.708137 0.734670 -0.167515
C266  C     C_R   0.291587 0.708143 0.265415 -0.168801
C267  C     C_R   0.708301 0.708133 0.734749 -0.168621
C268  C     C_R   0.708413 0.708144 0.265424 -0.167590
C269  C     C_R   0.791656 0.208137 0.734668 -0.167495
C270  C     C_R   0.791584 0.208143 0.265422 -0.168771
C271  C     C_R   0.208345 0.208136 0.734675 -0.168663
C272  C     C_R   0.208439 0.208145 0.265466 -0.167632
H1    H     H_    0.714974 0.776807 0.306684 0.144475
H2    H     H_    0.714568 0.776790 0.693472 0.142109
H3    H     H_    0.285099 0.776810 0.306671 0.144541
H4    H     H_    0.285221 0.776791 0.693410 0.142041
H5    H     H_    0.215052 0.276810 0.306711 0.144475
H6    H     H_    0.214717 0.276794 0.693419 0.142104
H7    H     H_    0.785088 0.276810 0.306675 0.144538
H8    H     H_    0.785218 0.276791 0.693409 0.142040
H9    H     H_    0.214847 0.776809 0.806652 0.144977
H10   H     H_    0.214834 0.776792 0.193391 0.141612
H11   H     H_    0.785413 0.776800 0.806544 0.141616
H12   H     H_    0.785045 0.776797 0.193333 0.144981
H13   H     H_    0.714850 0.276809 0.806653 0.144981
H14   H     H_    0.714843 0.276792 0.193388 0.141612
H15   H     H_    0.285263 0.276804 0.806598 0.141607
H16   H     H_    0.284967 0.276799 0.193305 0.144978
H17   H     H_    0.778134 0.058335 0.473509 0.187340
H18   H     H_    0.827044 0.021374 0.526509 0.185323
H19   H     H_    0.221866 0.058334 0.473510 0.187337
H20   H     H_    0.172955 0.021376 0.526511 0.185336
H21   H     H_    0.278133 0.558334 0.473509 0.187339
H22   H     H_    0.327045 0.521376 0.526510 0.185297
H23   H     H_    0.721867 0.558335 0.473510 0.187341
H24   H     H_    0.672956 0.521374 0.526510 0.185361
H25   H     H_    0.278130 0.058336 0.973509 0.187297
H26   H     H_    0.327043 0.021378 0.026509 0.185376
H27   H     H_    0.672953 0.021375 0.973493 0.185314
H28   H     H_    0.721866 0.058334 0.026496 0.187291
H29   H     H_    0.778128 0.558335 0.973510 0.187299
H30   H     H_    0.827043 0.521381 0.026510 0.185351
H31   H     H_    0.172955 0.521375 0.973493 0.185349
H32   H     H_    0.221865 0.558334 0.026496 0.187296
H33   H     H_    0.713928 0.847278 0.306235 0.185105
H34   H     H_    0.713527 0.847257 0.693915 0.173150
H35   H     H_    0.286154 0.847280 0.306212 0.184965
H36   H     H_    0.286254 0.847258 0.693844 0.173226
H37   H     H_    0.214006 0.347280 0.306262 0.185100
H38   H     H_    0.213673 0.347260 0.693863 0.173103
H39   H     H_    0.786145 0.347280 0.306215 0.184965
H40   H     H_    0.786251 0.347258 0.693842 0.173229
H41   H     H_    0.213794 0.847279 0.806194 0.185218
H42   H     H_    0.213799 0.847259 0.193825 0.172975
H43   H     H_    0.786463 0.847266 0.806091 0.172912
H44   H     H_    0.786083 0.847268 0.193772 0.185337
H45   H     H_    0.713797 0.347279 0.806195 0.185219
H46   H     H_    0.713806 0.347259 0.193823 0.172969
H47   H     H_    0.286315 0.347270 0.806145 0.172870
H48   H     H_    0.286005 0.347270 0.193744 0.185336
H49   H     H_    0.824594 0.723178 0.223172 0.137838
H50   H     H_    0.824738 0.723174 0.776578 0.137502
H51   H     H_    0.175356 0.723171 0.223241 0.137629
H52   H     H_    0.175384 0.723182 0.776774 0.137706
H53   H     H_    0.324548 0.223178 0.223097 0.137851
H54   H     H_    0.324662 0.223176 0.776711 0.137460
H55   H     H_    0.675362 0.223172 0.223231 0.137616
H56   H     H_    0.675385 0.223182 0.776776 0.137749
H57   H     H_    0.324675 0.723171 0.723290 0.137723
H58   H     H_    0.324585 0.723182 0.276823 0.137634
H59   H     H_    0.675243 0.723170 0.723444 0.137484
H60   H     H_    0.675426 0.723182 0.276851 0.137821
H61   H     H_    0.824673 0.223171 0.723288 0.137739
H62   H     H_    0.824579 0.223182 0.276834 0.137595
H63   H     H_    0.175318 0.223171 0.723313 0.137470
H64   H     H_    0.175471 0.223183 0.276926 0.137858
H65   H     H_    0.824001 0.652712 0.222380 0.159960
H66   H     H_    0.824153 0.652707 0.777370 0.160122
H67   H     H_    0.175963 0.652707 0.222431 0.159857
H68   H     H_    0.175955 0.652715 0.777547 0.160269
H69   H     H_    0.323954 0.152714 0.222304 0.160000
H70   H     H_    0.324076 0.152710 0.777502 0.159890
H71   H     H_    0.675970 0.152707 0.222420 0.159851
H72   H     H_    0.675956 0.152715 0.777550 0.160547
H73   H     H_    0.324069 0.652706 0.722481 0.160340
H74   H     H_    0.324012 0.652716 0.277597 0.160060
H75   H     H_    0.675835 0.652702 0.722646 0.159840
H76   H     H_    0.676010 0.652716 0.277637 0.159974
H77   H     H_    0.824068 0.152706 0.722479 0.160351
H78   H     H_    0.824006 0.152716 0.277609 0.159794
H79   H     H_    0.175912 0.152706 0.722515 0.159876
H80   H     H_    0.176058 0.152718 0.277712 0.160268
H81   H     H_    0.546749 0.544295 0.289920 0.177527
H82   H     H_    0.546748 0.544264 0.710047 0.176593
H83   H     H_    0.453252 0.539968 0.294260 0.178088
H84   H     H_    0.453251 0.539912 0.705691 0.176718
H85   H     H_    0.046747 0.039958 0.294268 0.178177
H86   H     H_    0.046748 0.044263 0.710046 0.176591
H87   H     H_    0.953251 0.044304 0.289911 0.177544
H88   H     H_    0.953252 0.039912 0.705692 0.176720
H89   H     H_    0.046749 0.544282 0.789936 0.176798
H90   H     H_    0.046748 0.539940 0.205716 0.177749
H91   H     H_    0.953252 0.539950 0.794276 0.177870
H92   H     H_    0.953251 0.544273 0.210057 0.176747
H93   H     H_    0.546747 0.039935 0.794289 0.177045
H94   H     H_    0.546748 0.039939 0.205716 0.177747
H95   H     H_    0.453252 0.044288 0.789928 0.177361
H96   H     H_    0.453251 0.044272 0.210056 0.176749
H97   H     H_    0.539152 0.475834 0.232965 0.161901
H98   H     H_    0.539149 0.475825 0.767022 0.160473
H99   H     H_    0.460849 0.482919 0.225865 0.163385
H100  H     H_    0.460850 0.482952 0.774157 0.165700
H101  H     H_    0.039150 0.982939 0.225849 0.165559
H102  H     H_    0.039149 0.975826 0.767024 0.160473
H103  H     H_    0.960852 0.975819 0.232984 0.160638
H104  H     H_    0.960850 0.982951 0.774156 0.165695
H105  H     H_    0.039151 0.475836 0.732962 0.163118
H106  H     H_    0.039150 0.482928 0.274137 0.160928
H107  H     H_    0.960849 0.482934 0.725852 0.167856
H108  H     H_    0.960849 0.475829 0.267026 0.159378
H109  H     H_    0.539150 0.982950 0.725841 0.168039
H110  H     H_    0.539150 0.982928 0.274138 0.160927
H111  H     H_    0.460852 0.975826 0.732975 0.162938
H112  H     H_    0.460849 0.975828 0.267026 0.159375
H113  H     H_    0.778912 0.058079 0.402760 0.201225
H114  H     H_    0.826646 0.022009 0.597257 0.199309
H115  H     H_    0.221089 0.058079 0.402761 0.201131
H116  H     H_    0.173354 0.022011 0.597258 0.199628
H117  H     H_    0.278911 0.558079 0.402760 0.201206
H118  H     H_    0.326646 0.522011 0.597257 0.199307
H119  H     H_    0.721088 0.558079 0.402760 0.201154
H120  H     H_    0.673354 0.522009 0.597258 0.199632
H121  H     H_    0.278907 0.058080 0.902760 0.201041
H122  H     H_    0.326644 0.022014 0.097257 0.199871
H123  H     H_    0.673352 0.022011 0.902745 0.199522
H124  H     H_    0.721091 0.058079 0.097245 0.201072
H125  H     H_    0.778905 0.558081 0.902760 0.201028
H126  H     H_    0.826643 0.522017 0.097257 0.199872
H127  H     H_    0.173353 0.522011 0.902745 0.199770
H128  H     H_    0.221089 0.558078 0.097245 0.201077
O1    O     O_3   0.750000 0.999990 0.250000 -0.504366
O2    O     O_3   0.750000 0.999990 0.750000 -0.504477
O3    O     O_3   0.250000 0.999990 0.250000 -0.504273
O4    O     O_3   0.250000 0.999990 0.750000 -0.504617
O5    O     O_3   0.250000 0.499990 0.250000 -0.504354
O6    O     O_3   0.250000 0.499990 0.750000 -0.504511
O7    O     O_3   0.750000 0.499990 0.250000 -0.504298
O8    O     O_3   0.750000 0.499990 0.750000 -0.504591
O9    O     O_R   0.635430 0.977260 0.272720 -0.633582
O10   O     O_R   0.635430 0.977260 0.727280 -0.619679
O11   O     O_R   0.364570 0.977260 0.272720 -0.633637
O12   O     O_R   0.364570 0.977260 0.727280 -0.619190
O13   O     O_R   0.135430 0.477260 0.272720 -0.633589
O14   O     O_R   0.135430 0.477260 0.727280 -0.619328
O15   O     O_R   0.864570 0.477260 0.272720 -0.633623
O16   O     O_R   0.864570 0.477260 0.727280 -0.619502
O17   O     O_R   0.135430 0.977260 0.772720 -0.632544
O18   O     O_R   0.135430 0.977260 0.227280 -0.620375
O19   O     O_R   0.864570 0.977260 0.772720 -0.620696
O20   O     O_R   0.864570 0.977260 0.227280 -0.632324
O21   O     O_R   0.635430 0.477260 0.772720 -0.632557
O22   O     O_R   0.635430 0.477260 0.227280 -0.620140
O23   O     O_R   0.364570 0.477260 0.772720 -0.620672
O24   O     O_R   0.364570 0.477260 0.227280 -0.632443
O25   O     O_R   0.719960 0.022730 0.163260 -0.658576
O26   O     O_R   0.719960 0.022730 0.836740 -0.657871
O27   O     O_R   0.280040 0.022730 0.163260 -0.657153
O28   O     O_R   0.280040 0.022730 0.836740 -0.658860
O29   O     O_R   0.219960 0.522730 0.163260 -0.658543
O30   O     O_R   0.219960 0.522730 0.836740 -0.657675
O31   O     O_R   0.780040 0.522730 0.163260 -0.657160
O32   O     O_R   0.780040 0.522730 0.836740 -0.659087
O33   O     O_R   0.219960 0.022730 0.663260 -0.657350
O34   O     O_R   0.219960 0.022730 0.336740 -0.658702
O35   O     O_R   0.780040 0.022730 0.663260 -0.657968
O36   O     O_R   0.780040 0.022730 0.336740 -0.658003
O37   O     O_R   0.719960 0.522730 0.663260 -0.657331
O38   O     O_R   0.719960 0.522730 0.336740 -0.658462
O39   O     O_R   0.280040 0.522730 0.663260 -0.657979
O40   O     O_R   0.280040 0.522730 0.336740 -0.658251
O41   O     O_R   0.719950 0.086720 0.227250 -0.646809
O42   O     O_R   0.719950 0.086720 0.772750 -0.643658
O43   O     O_R   0.280050 0.086720 0.227250 -0.643978
O44   O     O_R   0.280050 0.086720 0.772750 -0.646897
O45   O     O_R   0.219950 0.586720 0.227250 -0.646852
O46   O     O_R   0.219950 0.586720 0.772750 -0.643853
O47   O     O_R   0.780050 0.586720 0.227250 -0.643918
O48   O     O_R   0.780050 0.586720 0.772750 -0.646683
O49   O     O_R   0.219950 0.086720 0.727250 -0.643845
O50   O     O_R   0.219950 0.086720 0.272750 -0.646799
O51   O     O_R   0.780050 0.086720 0.727250 -0.643809
O52   O     O_R   0.780050 0.086720 0.272750 -0.646923
O53   O     O_R   0.719950 0.586720 0.727250 -0.643871
O54   O     O_R   0.719950 0.586720 0.272750 -0.646985
O55   O     O_R   0.280050 0.586720 0.727250 -0.643760
O56   O     O_R   0.280050 0.586720 0.272750 -0.646719
O57   O     O_R   0.719970 0.913260 0.272730 -0.631196
O58   O     O_R   0.719970 0.913260 0.727270 -0.641386
O59   O     O_R   0.280030 0.913260 0.272730 -0.630642
O60   O     O_R   0.280030 0.913260 0.727270 -0.642577
O61   O     O_R   0.219970 0.413260 0.272730 -0.631217
O62   O     O_R   0.219970 0.413260 0.727270 -0.641705
O63   O     O_R   0.780030 0.413260 0.272730 -0.630611
O64   O     O_R   0.780030 0.413260 0.727270 -0.642241
O65   O     O_R   0.219970 0.913260 0.772730 -0.630644
O66   O     O_R   0.219970 0.913260 0.227270 -0.642220
O67   O     O_R   0.780030 0.913260 0.772730 -0.641617
O68   O     O_R   0.780030 0.913260 0.227270 -0.631315
O69   O     O_R   0.719970 0.413260 0.772730 -0.630673
O70   O     O_R   0.719970 0.413260 0.227270 -0.642544
O71   O     O_R   0.280030 0.413260 0.772730 -0.641571
O72   O     O_R   0.280030 0.413260 0.227270 -0.630990
O73   O     O_R   0.780040 0.977250 0.163260 -0.575605
O74   O     O_R   0.780040 0.977250 0.836740 -0.577264
O75   O     O_R   0.219960 0.977250 0.163260 -0.577797
O76   O     O_R   0.219960 0.977250 0.836740 -0.575177
O77   O     O_R   0.280040 0.477250 0.163260 -0.575916
O78   O     O_R   0.280040 0.477250 0.836740 -0.577308
O79   O     O_R   0.719960 0.477250 0.163260 -0.577522
O80   O     O_R   0.719960 0.477250 0.836740 -0.575120
O81   O     O_R   0.280040 0.977250 0.663260 -0.577206
O82   O     O_R   0.280040 0.977250 0.336740 -0.575831
O83   O     O_R   0.719960 0.977250 0.663260 -0.576959
O84   O     O_R   0.719960 0.977250 0.336740 -0.576666
O85   O     O_R   0.780040 0.477250 0.663260 -0.577479
O86   O     O_R   0.780040 0.477250 0.336740 -0.575891
O87   O     O_R   0.219960 0.477250 0.663260 -0.576691
O88   O     O_R   0.219960 0.477250 0.336740 -0.576607
O89   O     O_R   0.635420 0.022730 0.227240 -0.645444
O90   O     O_R   0.635420 0.022730 0.772760 -0.649886
O91   O     O_R   0.364580 0.022730 0.227240 -0.648200
O92   O     O_R   0.364580 0.022730 0.772760 -0.647783
O93   O     O_R   0.135420 0.522730 0.227240 -0.645437
O94   O     O_R   0.135420 0.522730 0.772760 -0.650417
O95   O     O_R   0.864580 0.522730 0.227240 -0.648211
O96   O     O_R   0.864580 0.522730 0.772760 -0.647301
O97   O     O_R   0.135420 0.022730 0.727240 -0.648663
O98   O     O_R   0.135420 0.022730 0.272760 -0.647023
O99   O     O_R   0.864580 0.022730 0.727240 -0.649868
O100  O     O_R   0.864580 0.022730 0.272760 -0.645667
O101  O     O_R   0.635420 0.522730 0.727240 -0.648661
O102  O     O_R   0.635420 0.522730 0.272760 -0.647331
O103  O     O_R   0.364580 0.522730 0.727240 -0.649876
O104  O     O_R   0.364580 0.522730 0.272760 -0.645451
Zn1   Zn    Zn3+2 0.792920 0.967500 0.217510 1.031070
Zn2   Zn    Zn3+2 0.792920 0.967500 0.782490 1.025861
Zn3   Zn    Zn3+2 0.207080 0.967500 0.217510 1.029868
Zn4   Zn    Zn3+2 0.207080 0.967500 0.782490 1.026855
Zn5   Zn    Zn3+2 0.292920 0.467500 0.217510 1.031044
Zn6   Zn    Zn3+2 0.292920 0.467500 0.782490 1.025743
Zn7   Zn    Zn3+2 0.707080 0.467500 0.217510 1.029916
Zn8   Zn    Zn3+2 0.707080 0.467500 0.782490 1.026977
Zn9   Zn    Zn3+2 0.292920 0.967500 0.717510 1.030885
Zn10  Zn    Zn3+2 0.292920 0.967500 0.282490 1.025688
Zn11  Zn    Zn3+2 0.707080 0.967500 0.717510 1.027400
Zn12  Zn    Zn3+2 0.707080 0.967500 0.282490 1.029083
Zn13  Zn    Zn3+2 0.792920 0.467500 0.717510 1.030827
Zn14  Zn    Zn3+2 0.792920 0.467500 0.282490 1.025570
Zn15  Zn    Zn3+2 0.207080 0.467500 0.717510 1.027470
Zn16  Zn    Zn3+2 0.207080 0.467500 0.282490 1.029190
Zn17  Zn    Zn3+2 0.707080 0.032480 0.217500 0.965981
Zn18  Zn    Zn3+2 0.707080 0.032480 0.782500 0.970345
Zn19  Zn    Zn3+2 0.292920 0.032480 0.217500 0.966472
Zn20  Zn    Zn3+2 0.292920 0.032480 0.782500 0.969709
Zn21  Zn    Zn3+2 0.207080 0.532480 0.217500 0.965895
Zn22  Zn    Zn3+2 0.207080 0.532480 0.782500 0.970201
Zn23  Zn    Zn3+2 0.792920 0.532480 0.217500 0.966569
Zn24  Zn    Zn3+2 0.792920 0.532480 0.782500 0.969814
Zn25  Zn    Zn3+2 0.207080 0.032480 0.717500 0.966620
Zn26  Zn    Zn3+2 0.207080 0.032480 0.282500 0.969782
Zn27  Zn    Zn3+2 0.792920 0.032480 0.717500 0.969840
Zn28  Zn    Zn3+2 0.792920 0.032480 0.282500 0.966449
Zn29  Zn    Zn3+2 0.707080 0.532480 0.717500 0.966536
Zn30  Zn    Zn3+2 0.707080 0.532480 0.282500 0.969734
Zn31  Zn    Zn3+2 0.292920 0.532480 0.717500 0.969931
Zn32  Zn    Zn3+2 0.292920 0.532480 0.282500 0.966472
F1    F     F_    0.722626 0.933334 0.477560 -0.581858
F2    F     F_    0.662220 0.978959 0.522401 -0.571756
F3    F     F_    0.277367 0.933331 0.477559 -0.581864
F4    F     F_    0.337775 0.978953 0.522399 -0.571696
F5    F     F_    0.222632 0.433331 0.477559 -0.581868
F6    F     F_    0.162225 0.478954 0.522400 -0.571724
F7    F     F_    0.777372 0.433333 0.477559 -0.581859
F8    F     F_    0.837779 0.478957 0.522400 -0.571726
F9    F     F_    0.222634 0.933331 0.977560 -0.581680
F10   F     F_    0.162224 0.978952 0.022400 -0.572052
F11   F     F_    0.837776 0.978958 0.977598 -0.572059
F12   F     F_    0.777370 0.933332 0.022434 -0.581680
F13   F     F_    0.722642 0.433328 0.977559 -0.581685
F14   F     F_    0.662229 0.478946 0.022399 -0.572020
F15   F     F_    0.337779 0.478960 0.977597 -0.572081
F16   F     F_    0.277376 0.433334 0.022434 -0.581684
F17   F     F_    0.721097 0.933464 0.399162 -0.601799
F18   F     F_    0.662329 0.977848 0.600793 -0.590606
F19   F     F_    0.278897 0.933462 0.399161 -0.601651
F20   F     F_    0.337668 0.977842 0.600790 -0.590311
F21   F     F_    0.221102 0.433462 0.399161 -0.601809
F22   F     F_    0.162332 0.477843 0.600792 -0.590237
F23   F     F_    0.778900 0.433463 0.399161 -0.601650
F24   F     F_    0.837671 0.477847 0.600791 -0.590669
F25   F     F_    0.221105 0.933462 0.899161 -0.601080
F26   F     F_    0.162332 0.977841 0.100792 -0.593163
F27   F     F_    0.837670 0.977849 0.899206 -0.593102
F28   F     F_    0.778903 0.933463 0.100832 -0.601178
F29   F     F_    0.721111 0.433460 0.899161 -0.601082
F30   F     F_    0.662336 0.477835 0.100791 -0.592805
F31   F     F_    0.337671 0.477851 0.899205 -0.593096
F32   F     F_    0.278908 0.433464 0.100832 -0.601211

loop_
_geom_bond_atom_site_label_1
_geom_bond_atom_site_label_2
_ccdc_geom_bond_type
C197  O56   A    
C272  H64   S    
C96   F16   S    
C130  C146  A    
C195  O50   A    
C210  C226  A    
C213  C253  A    
C193  O52   A    
C53   C69   D    
C72   H104  S    
C3    O11   A    
O33   Zn25  S    
O38   Zn30  S    
C147  H19   S    
C1    O9    A    
C24   H72   S    
O3    Zn3   S    
O72   Zn5   S    
O2    Zn2   S    
C151  H23   S    
C152  H24   S    
C16   O24   A    
C205  C245  S    
C20   H68   S    
C19   C259  A    
C57   C59   S    
C102  F22   S    
C33   C199  S    
C58   C60   S    
C8    O16   A    
C167  O31   A    
C5    C74   S    
C84   C180  A    
C230  H38   S    
C62   C64   S    
C45   C253  S    
C236  H44   S    
C237  H45   S    
C49   C51   S    
C62   H94   S    
C238  C247  A    
C50   C52   S    
C10   O98   A    
C206  O62   A    
O27   Zn19  S    
C217  C252  A    
C144  C160  A    
C173  O37   A    
O5    Zn16  S    
C25   H73   S    
C230  C246  A    
O42   Zn18  S    
C194  O42   A    
C221  C256  A    
C117  C133  A    
O23   Zn6   S    
C63   H95   S    
C172  O84   A    
C142  C158  A    
C64   H96   S    
C143  H127  S    
C136  C152  A    
C124  C140  A    
C17   H65   S    
C269  H61   S    
O50   Zn26  S    
C191  C192  S    
C150  H22   S    
C91   C107  A    
C125  C168  S    
C9    C70   S    
C234  H42   S    
C43   C266  A    
O3    Zn19  S    
C126  C167  S    
C217  C233  A    
C11   C72   S    
C90   C186  A    
C181  C182  S    
C60   C76   D    
C221  C237  A    
C13   O101  A    
C183  C184  S    
C94   C190  A    
C54   C70   D    
C23   C263  A    
C61   H93   S    
C82   C178  A    
C137  C153  A    
C220  H12   S    
C127  C143  A    
C27   H75   S    
C128  C144  A    
C91   F11   S    
C198  O55   A    
C5    O93   A    
C140  C156  A    
C75   H107  S    
C18   C258  A    
C141  C157  A    
C130  H114  S    
C12   C71   S    
C87   F7    S    
C28   C33   A    
C34   C200  S    
C240  C245  A    
C100  F20   S    
C89   F9    S    
C165  O29   A    
O66   Zn3   S    
C213  C229  A    
C110  F30   S    
C6    C73   S    
O7    Zn7   S    
C124  C161  S    
C153  H25   S    
O11   Zn10  S    
O63   Zn14  S    
C67   H99   S    
O88   Zn16  S    
C206  C246  S    
C65   H97   S    
C231  C247  A    
C7    O95   A    
C207  C247  S    
C204  O65   A    
C44   C265  A    
C226  H34   S    
O101  Zn29  S    
C114  C130  A    
C29   C269  A    
C164  O76   A    
O20   Zn1   S    
O57   Zn12  S    
C222  H14   S    
C155  C187  A    
O1    Zn17  S    
O37   Zn29  S    
C47   C270  A    
O96   Zn24  S    
C22   C262  A    
C222  C238  A    
C194  O51   A    
C270  H62   S    
C51   H83   S    
C21   H69   S    
O104  Zn32  S    
O3    Zn26  S    
C98   C114  A    
C25   C36   A    
C10   C69   S    
C147  C179  A    
C26   C35   A    
C97   F17   S    
C56   H88   S    
C2    O10   A    
C136  H120  S    
O92   Zn20  S    
O47   Zn23  S    
O69   Zn8   S    
C19   C35   A    
O68   Zn1   S    
C158  H30   S    
C55   C71   D    
O10   Zn11  S    
C58   H90   S    
C22   C38   A    
O86   Zn14  S    
O26   Zn18  S    
O2    Zn18  S    
C13   O21   A    
C162  O26   A    
O4    Zn9   S    
C223  C239  A    
C92   F12   S    
C204  O60   A    
O41   Zn17  S    
C28   H76   S    
C154  C186  A    
C167  O79   A    
C173  O85   A    
O44   Zn20  S    
C239  C246  A    
C37   C195  S    
C4    O12   A    
C171  O83   A    
C5    O13   A    
C158  C190  A    
C119  C174  S    
C87   C183  A    
C19   H67   S    
C88   C184  A    
O49   Zn25  S    
C202  C242  S    
C123  C139  A    
C146  C178  A    
C168  O32   A    
O5    Zn32  S    
O97   Zn25  S    
C66   H98   S    
O7    Zn14  S    
C217  H9    S    
C54   H86   S    
C61   C77   D    
O56   Zn32  S    
C219  C250  A    
O54   Zn30  S    
C131  C147  A    
C118  C134  A    
O83   Zn11  S    
C229  C245  A    
C196  O44   A    
O1    Zn12  S    
C29   H77   S    
O74   Zn2   S    
C24   C264  A    
C265  H57   S    
C90   F10   S    
C115  C170  S    
C31   H79   S    
C69   H101  S    
C88   C104  A    
C113  C172  S    
C13   C66   S    
C22   H70   S    
O91   Zn19  S    
C114  C171  S    
C27   C267  A    
C83   F3    S    
C95   C111  A    
C219  C235  A    
C109  F29   S    
O8    Zn8   S    
C56   C72   D    
C238  H46   S    
O64   Zn13  S    
C232  C248  A    
C212  C228  A    
C236  C241  A    
C57   H89   S    
C208  C248  S    
C43   C251  S    
C44   C260  A    
C50   C66   D    
C45   C261  A    
C116  C132  A    
C139  C155  A    
C106  C122  A    
C215  C255  A    
C174  O86   A    
C165  O77   A    
C16   C67   S    
C51   C67   D    
C32   C37   A    
C41   C257  A    
C224  C240  A    
C110  C126  A    
C207  O63   A    
O76   Zn4   S    
C128  C165  S    
C26   H74   S    
C17   C257  A    
C86   C102  A    
C55   H87   S    
C58   C74   D    
C46   C262  A    
C109  C125  A    
C91   C187  A    
C85   C181  A    
C3    O91   A    
O70   Zn7   S    
C89   C185  A    
C62   C78   D    
C259  H51   S    
C1    O89   A    
C48   C269  A    
O17   Zn4   S    
O84   Zn12  S    
C151  C183  A    
C7    C76   S    
C145  C177  A    
C93   C189  A    
C218  H10   S    
O62   Zn15  S    
C111  C127  A    
O25   Zn17  S    
C83   C179  A    
C100  C116  A    
O4    Zn20  S    
O3    Zn10  S    
C268  H60   S    
C81   C177  A    
C42   C258  A    
C23   H71   S    
C133  H117  S    
C266  H58   S    
C138  C154  A    
C168  O80   A    
C131  H115  S    
C29   C40   A    
C144  H128  S    
C14   C65   S    
C38   C196  S    
C30   C39   A    
C129  H113  S    
C16   O104  A    
C166  O30   A    
C175  O87   A    
C212  H4    S    
O79   Zn7   S    
O13   Zn16  S    
C154  H26   S    
C148  C180  A    
C89   C105  A    
O100  Zn28  S    
O4    Zn25  S    
C26   C266  A    
C200  O53   A    
C210  C250  A    
C93   C109  A    
O8    Zn13  S    
C45   C272  A    
C227  H35   S    
C196  O49   A    
C59   C75   D    
C214  C254  A    
C82   C98   A    
C218  C251  A    
C30   C270  A    
C107  C123  A    
O82   Zn10  S    
C150  C182  A    
C222  C255  A    
C35   C197  S    
C17   C33   A    
C68   H100  S    
O1    Zn1   S    
C32   H80   S    
O7    Zn30  S    
C195  O43   A    
C99   C115  A    
C193  O41   A    
O90   Zn18  S    
C12   O20   A    
C225  C241  A    
C148  H20   S    
C155  H27   S    
C77   H109  S    
C21   C37   A    
O94   Zn22  S    
C176  O88   A    
C4    O92   A    
C208  O64   A    
C49   C65   D    
C271  H63   S    
O7    Zn23  S    
C135  H119  S    
C205  O61   A    
C212  C252  A    
O52   Zn28  S    
O6    Zn15  S    
O53   Zn29  S    
C94   F14   S    
C156  C188  A    
C216  C256  A    
C83   C99   A    
C220  C249  A    
C149  C181  A    
C1    C78   S    
C64   C80   D    
C209  C225  A    
O46   Zn22  S    
C3    C80   S    
C43   C259  A    
C204  C244  S    
C156  H28   S    
C224  C253  A    
O77   Zn5   S    
O78   Zn6   S    
C213  H5    S    
O4    Zn4   S    
C264  H56   S    
C198  O46   A    
C159  C191  A    
C122  C138  A    
C199  O54   A    
O2    Zn27  S    
C53   H85   S    
C260  H52   S    
C63   C79   D    
C12   O100  A    
C126  C142  A    
O71   Zn6   S    
C119  C135  A    
C14   O102  A    
C84   C100  A    
C9    O17   A    
C239  H47   S    
O18   Zn3   S    
C161  O73   A    
C240  H48   S    
C11   O99   A    
O60   Zn9   S    
C233  C244  A    
C225  H33   S    
O35   Zn27  S    
C9    O97   A    
O1    Zn28  S    
C92   C188  A    
C134  H118  S    
C159  H31   S    
O39   Zn31  S    
C160  H32   S    
C160  C192  A    
C85   F5    S    
C170  O34   A    
C231  H39   S    
C232  H40   S    
C88   F8    S    
C31   C271  A    
C215  C231  A    
C32   C272  A    
O40   Zn32  S    
C214  C230  A    
C235  H43   S    
C229  H37   S    
O80   Zn8   S    
O12   Zn9   S    
O87   Zn15  S    
C39   C193  S    
C138  H122  S    
C199  O47   A    
C2    O90   A    
C200  O48   A    
C205  O72   A    
C15   O103  A    
C60   H92   S    
C203  O66   A    
C143  C159  A    
C201  O68   A    
C101  F21   S    
C31   C38   A    
O95   Zn23  S    
O21   Zn8   S    
C101  C117  A    
C103  F23   S    
C84   F4    S    
O81   Zn9   S    
C187  C188  S    
C104  F24   S    
C2    C77   S    
O58   Zn11  S    
C223  C254  A    
C96   C192  A    
C185  C186  S    
O98   Zn26  S    
C127  C166  S    
C135  C151  A    
C94   C110  A    
C108  C124  A    
C169  O81   A    
C8    O96   A    
O103  Zn31  S    
C189  C190  S    
C50   H82   S    
O6    Zn6   S    
O8    Zn29  S    
C18   H66   S    
C90   C106  A    
O89   Zn17  S    
C179  C180  S    
C76   H108  S    
C81   F1    S    
C42   C250  S    
C132  H116  S    
C177  C178  S    
C105  F25   S    
C162  O74   A    
C86   C182  A    
C41   C268  A    
O93   Zn21  S    
O48   Zn24  S    
C107  F27   S    
O9    Zn12  S    
O5    Zn5   S    
C46   C254  S    
C207  O70   A    
C59   H91   S    
C163  O75   A    
C104  C120  A    
C98   F18   S    
C140  H124  S    
C219  H11   S    
C46   C271  A    
C141  H125  S    
C86   F6    S    
C218  C234  A    
C171  O35   A    
O6    Zn22  S    
C11   O19   A    
C93   F13   S    
O30   Zn22  S    
C40   C194  S    
C47   C255  S    
C197  O45   A    
C96   C112  A    
C208  O69   A    
C113  C129  A    
C211  H3    S    
O45   Zn21  S    
O8    Zn24  S    
C73   H105  S    
C170  O82   A    
C227  C243  A    
C115  C131  A    
C164  O28   A    
C203  C243  S    
O24   Zn5   S    
C121  C137  A    
C134  C150  A    
C263  H55   S    
C201  C241  S    
C226  C242  A    
C175  O39   A    
C233  H41   S    
O102  Zn30  S    
C203  O59   A    
O6    Zn31  S    
C6    O14   A    
C79   H111  S    
C210  H2    S    
C201  O57   A    
C44   C252  S    
C220  C236  A    
C10   O18   A    
C112  C128  A    
C228  C244  A    
C261  H53   S    
C209  C249  A    
C152  C184  A    
C202  O58   A    
C120  C136  A    
C102  C118  A    
O59   Zn10  S    
C71   H103  S    
C234  C243  A    
O34   Zn26  S    
C82   F2    S    
C30   H78   S    
O75   Zn3   S    
C52   H84   S    
C216  H8    S    
C174  O38   A    
O2    Zn11  S    
O73   Zn1   S    
C70   H102  S    
C153  C185  A    
C92   C108  A    
C53   C55   S    
C27   C34   A    
O15   Zn14  S    
O36   Zn28  S    
O55   Zn31  S    
C99   F19   S    
C149  H21   S    
C49   H81   S    
C132  C148  A    
C133  C149  A    
C108  F28   S    
C4    C79   S    
C125  C141  A    
C123  C162  S    
C20   C36   A    
C47   C263  A    
C121  C164  S    
C48   C264  A    
C8    C75   S    
C122  C163  S    
C237  C248  A    
C206  O71   A    
C221  H13   S    
C235  C242  A    
C215  H7    S    
C6    O94   A    
C257  H49   S    
O43   Zn19  S    
C202  O67   A    
C166  O78   A    
C61   C63   S    
O22   Zn7   S    
C105  C121  A    
C18   C34   A    
C145  H17   S    
C20   C260  A    
C223  H15   S    
C117  C176  S    
C21   C261  A    
C224  H16   S    
C118  C175  S    
C209  H1    S    
C214  H6    S    
O51   Zn27  S    
O16   Zn13  S    
C87   C103  A    
C48   C256  S    
C97   C113  A    
O99   Zn27  S    
C85   C101  A    
O32   Zn24  S    
C262  H54   S    
C95   C191  A    
C57   C73   D    
C106  F26   S    
O19   Zn2   S    
C103  C119  A    
O28   Zn20  S    
C157  H29   S    
C258  H50   S    
C52   C68   D    
C25   C265  A    
C142  H126  S    
C54   C56   S    
O61   Zn16  S    
O85   Zn13  S    
C14   O22   A    
C163  O27   A    
C28   C268  A    
C161  O25   A    
C172  O36   A    
C111  F31   S    
C42   C267  A    
O5    Zn21  S    
C112  F32   S    
C267  H59   S    
O29   Zn21  S    
C146  H18   S    
C15   O23   A    
C81   C97   A    
C23   C39   A    
C15   C68   S    
C169  O33   A    
C24   C40   A    
C116  C169  S    
C129  C145  A    
O67   Zn2   S    
C36   C198  S    
C157  C189  A    
C176  O40   A    
O65   Zn4   S    
C120  C173  S    
C7    O15   A    
O14   Zn15  S    
C41   C249  S    
C139  H123  S    
C216  C232  A    
C211  C227  A    
O31   Zn23  S    
C80   H112  S    
C211  C251  A    
C137  H121  S    
C95   F15   S    
C74   H106  S    
C78   H110  S    
C228  H36   S    
