data_mof_unit_27601.cif
_audit_creation_date              2012-12-11T14:24:52-0500
_audit_creation_method            fapswitch 2.2
_symmetry_space_group_name_H-M    P1
_symmetry_Int_Tables_number       1
_space_group_crystal_system       triclinic
_cell_length_a                    19.293962
_cell_length_b                    10.966295
_cell_length_c                    18.864112
_cell_angle_alpha                 90.584445
_cell_angle_beta                  92.157233
_cell_angle_gamma                 89.224704
_cell_volume                      3987.9492627

loop_
_atom_site_label
_atom_site_type_symbol
_atom_type_description
_atom_site_fract_x
_atom_site_fract_y
_atom_site_fract_z
_atom_type_partial_charge
Br1   Br    Br    0.909800 0.984973 0.940952 -0.576851
Br2   Br    Br    0.090059 0.982421 0.055849 -0.589210
Br3   Br    Br    0.409814 0.484874 0.940958 -0.576896
Br4   Br    Br    0.590062 0.482348 0.055777 -0.589216
C1    C     C_R   0.726689 0.371124 0.144221 0.555562
C2    C     C_R   0.238184 0.900108 0.069421 0.008036
C3    C     C_R   0.619701 0.519627 0.438388 -0.086721
C4    C     C_R   0.864781 0.173683 0.568878 -0.114366
C5    C     C_R   0.059514 0.023991 0.476737 -0.145237
C6    C     C_R   0.364781 0.673684 0.568878 -0.114366
C7    C     C_R   0.559514 0.523991 0.476737 -0.145237
C8    C     C_R   0.889599 0.158952 0.501153 -0.151548
C9    C     C_R   0.059485 0.976061 0.544602 -0.117616
C10   C     C_R   0.389599 0.658952 0.501153 -0.151547
C11   C     C_R   0.559485 0.476061 0.544602 -0.117615
C12   C     C_R   0.859338 0.075333 0.454236 -0.083387
C13   C     C_R   0.260242 0.416746 0.927049 0.007615
C14   C     C_R   0.120981 0.930509 0.575468 -0.075367
C15   C     C_R   0.359338 0.575334 0.454236 -0.083387
C16   C     C_R   0.620981 0.430509 0.575468 -0.075368
C17   C     C_R   0.763774 0.927076 0.426882 -0.003994
C18   C     C_R   0.248696 0.924912 0.572220 -0.001572
C19   C     C_R   0.263774 0.427076 0.426882 -0.003993
C20   C     C_R   0.748696 0.424912 0.572220 -0.001567
C21   C     C_R   0.729653 0.382278 0.353836 0.540887
C22   C     C_R   0.269232 0.376780 0.645301 0.523766
C23   C     C_R   0.229653 0.882278 0.353836 0.540879
C24   C     C_R   0.738172 0.400081 0.069403 0.008038
C25   C     C_R   0.769232 0.876780 0.645301 0.523761
C26   C     C_R   0.538827 0.156818 0.356450 0.537236
C27   C     C_R   0.437305 0.151149 0.638735 0.553051
C28   C     C_R   0.038827 0.656818 0.356450 0.537232
C29   C     C_R   0.937305 0.651149 0.638735 0.553050
C30   C     C_R   0.744866 0.970309 0.355583 0.532646
C31   C     C_R   0.257441 0.969465 0.644143 0.525353
C32   C     C_R   0.244866 0.470309 0.355583 0.532646
C33   C     C_R   0.757441 0.469465 0.644143 0.525332
C34   C     C_3   0.517374 0.238510 0.969868 -0.048218
C35   C     C_R   0.697416 0.890137 0.957779 -0.012738
C36   C     C_3   0.471359 0.272198 0.033265 -0.050917
C37   C     C_3   0.017423 0.738470 0.969857 -0.048286
C38   C     C_3   0.971412 0.772252 0.033245 -0.050901
C39   C     C_3   0.546727 0.127021 0.010613 -0.108865
C40   C     C_3   0.412404 0.192147 0.000885 -0.134594
C41   C     C_3   0.046720 0.626955 0.010622 -0.108884
C42   C     C_3   0.912424 0.692263 0.000869 -0.134578
C43   C     C_3   0.500621 0.161444 0.072620 0.035920
C44   C     C_3   0.458892 0.158400 0.938915 0.046687
C45   C     C_3   0.000619 0.661469 0.072620 0.035903
C46   C     C_R   0.300122 0.863106 0.037355 -0.010809
C47   C     C_3   0.958906 0.658417 0.938910 0.046709
C48   C     C_R   0.197417 0.390150 0.957779 -0.012752
C49   C     C_R   0.800129 0.363156 0.037355 -0.010812
C50   C     C_R   0.695165 0.877553 0.032275 0.002684
C51   C     C_R   0.303106 0.860520 0.962256 0.013058
C52   C     C_R   0.195164 0.377558 0.032274 0.002674
C53   C     C_R   0.272435 0.375734 0.854104 0.540852
C54   C     C_R   0.803134 0.360556 0.962258 0.013134
C55   C     C_R   0.811512 0.956788 0.044000 -0.126700
C56   C     C_R   0.186916 0.945495 0.952941 -0.121742
C57   C     C_R   0.311517 0.456756 0.044005 -0.126689
C58   C     C_R   0.686906 0.445288 0.952901 -0.121749
C59   C     C_R   0.817650 0.952094 0.971581 0.127550
C60   C     C_R   0.180934 0.938740 0.025227 0.133122
C61   C     C_R   0.317659 0.452049 0.971587 0.127572
C62   C     C_R   0.680917 0.438615 0.025191 0.133160
C63   C     C_R   0.638261 0.864595 0.915113 -0.086204
C64   C     C_R   0.226705 0.871163 0.144235 0.555535
C65   C     C_R   0.359021 0.825024 0.078197 -0.096426
C66   C     C_R   0.138263 0.364622 0.915109 -0.086222
C67   C     C_R   0.859030 0.325186 0.078214 -0.096418
C68   C     C_R   0.086974 0.294765 0.941359 -0.119409
C69   C     C_R   0.913981 0.268491 0.047237 -0.111456
C70   C     C_R   0.586967 0.794758 0.941373 -0.119332
C71   C     C_R   0.413944 0.768259 0.047198 -0.111483
C72   C     C_R   0.587710 0.769057 0.013331 -0.101998
C73   C     C_R   0.414692 0.757970 0.974107 -0.099741
C74   C     C_R   0.087714 0.269052 0.013316 -0.102090
C75   C     C_R   0.772433 0.875739 0.854102 0.540854
C76   C     C_R   0.914736 0.258082 0.974160 -0.099815
C77   C     C_R   0.639473 0.813890 0.059430 -0.064077
C78   C     C_R   0.360286 0.802806 0.931556 -0.065881
C79   C     C_R   0.139469 0.313891 0.059422 -0.064095
C80   C     C_R   0.860347 0.302883 0.931590 -0.065880
C81   C     C_R   0.530966 0.155426 0.145087 0.552732
C82   C     C_R   0.437401 0.151693 0.862521 0.574516
C83   C     C_R   0.030965 0.655430 0.145087 0.552737
C84   C     C_R   0.937408 0.651696 0.862521 0.574526
C85   C     C_R   0.750387 0.923299 0.075722 -0.040976
C86   C     C_3   0.442176 0.081848 0.042355 -0.137915
C87   C     C_R   0.248514 0.914119 0.920789 -0.038328
C88   C     C_R   0.250387 0.423290 0.075724 -0.040966
C89   C     C_R   0.748520 0.414042 0.920766 -0.038309
C90   C     C_R   0.458611 0.147736 0.564617 -0.000583
C91   C     C_R   0.515133 0.159814 0.429846 0.007300
C92   C     C_R   0.958611 0.647736 0.564617 -0.000582
C93   C     C_R   0.015133 0.659814 0.429846 0.007300
C94   C     C_R   0.491552 0.041521 0.535287 0.036257
C95   C     C_R   0.528151 0.056094 0.473491 0.020504
C96   C     C_R   0.991552 0.541521 0.535287 0.036257
C97   C     C_3   0.487780 0.047149 0.979595 -0.107386
C98   C     C_R   0.028151 0.556094 0.473491 0.020504
C99   C     C_R   0.474703 0.256568 0.454826 -0.145728
C100  C     C_R   0.448932 0.252422 0.522898 -0.161241
C101  C     C_R   0.974703 0.756568 0.454826 -0.145727
C102  C     C_R   0.948932 0.752422 0.522898 -0.161241
C103  C     C_R   0.492206 0.921580 0.565434 -0.093820
C104  C     C_R   0.576083 0.963647 0.455951 -0.077644
C105  C     C_R   0.992206 0.421580 0.565434 -0.093819
C106  C     C_R   0.076083 0.463647 0.455951 -0.077643
C107  C     C_R   0.032918 0.327618 0.540325 -0.149221
C108  C     C_3   0.942138 0.581943 0.042360 -0.137908
C109  C     C_R   0.073365 0.347770 0.483934 -0.124797
C110  C     C_R   0.532918 0.827618 0.540325 -0.149221
C111  C     C_R   0.573365 0.847770 0.483934 -0.124798
C112  C     C_R   0.751391 0.909258 0.572680 0.007349
C113  C     C_R   0.240286 0.929409 0.425503 0.003410
C114  C     C_R   0.251391 0.409259 0.572680 0.007349
C115  C     C_R   0.740286 0.429409 0.425503 0.003408
C116  C     C_R   0.783997 0.010573 0.544995 0.019353
C117  C     C_R   0.180962 0.961684 0.466215 0.037108
C118  C     C_R   0.283997 0.510573 0.544995 0.019354
C119  C     C_3   0.987739 0.547145 0.979610 -0.107347
C120  C     C_R   0.680962 0.461684 0.466215 0.037108
C121  C     C_R   0.802191 0.005333 0.474078 0.039702
C122  C     C_R   0.183187 0.933460 0.538189 0.021237
C123  C     C_R   0.302192 0.505333 0.474078 0.039703
C124  C     C_R   0.683187 0.433460 0.538189 0.021239
C125  C     C_R   0.731205 0.826781 0.453882 -0.186208
C126  C     C_R   0.308470 0.920270 0.531967 -0.144756
C127  C     C_R   0.231205 0.326780 0.453882 -0.186208
C128  C     C_R   0.808470 0.420270 0.531967 -0.144755
C129  C     C_R   0.741119 0.969649 0.148369 0.537729
C130  C     C_R   0.760237 0.916759 0.927045 0.007593
C131  C     C_R   0.258677 0.967778 0.850689 0.534516
C132  C     C_R   0.241119 0.469648 0.148369 0.537738
C133  C     C_R   0.758660 0.467705 0.850662 0.534462
C134  C     C_R   0.727445 0.815221 0.526936 -0.148532
C135  C     C_R   0.304161 0.911831 0.459300 -0.152349
C136  C     C_R   0.227445 0.315221 0.526936 -0.148532
C137  C     C_R   0.804160 0.411830 0.459300 -0.152351
C138  C     C_R   0.809283 0.105649 0.589265 -0.073090
C139  C     C_R   0.119701 0.019627 0.438388 -0.086721
C140  C     C_R   0.309283 0.605649 0.589265 -0.073090
Cr1   Cr    Cr6+3 0.772820 0.169820 0.252640 1.009071
Cr2   Cr    Cr6+3 0.383280 0.011130 0.749340 0.980791
Cr3   Cr    Cr6+3 0.116720 0.511130 0.250660 1.002665
Cr4   Cr    Cr6+3 0.883280 0.511130 0.749340 0.980793
Cr5   Cr    Cr6+3 0.227180 0.169820 0.747360 1.010407
Cr6   Cr    Cr6+3 0.272820 0.669820 0.252640 1.009037
Cr7   Cr    Cr6+3 0.727180 0.669820 0.747360 1.010428
Cr8   Cr    Cr6+3 0.615040 0.323610 0.249150 1.048185
Cr9   Cr    Cr6+3 0.384960 0.323610 0.750850 1.049216
Cr10  Cr    Cr6+3 0.115040 0.823610 0.249150 1.048222
Cr11  Cr    Cr6+3 0.884960 0.823610 0.750850 1.049237
Cr12  Cr    Cr6+3 0.616720 0.011130 0.250660 1.002651
H1    H     H_    0.602368 0.100316 0.015827 0.131855
H2    H     H_    0.615877 0.981105 0.420709 0.177799
H3    H     H_    0.959707 0.391171 0.606149 0.142611
H4    H     H_    0.115877 0.481105 0.420709 0.177798
H5    H     H_    0.031851 0.238252 0.564071 0.120521
H6    H     H_    0.102462 0.273050 0.462287 0.116922
H7    H     H_    0.531851 0.738251 0.564071 0.120520
H8    H     H_    0.602462 0.773050 0.462287 0.116921
H9    H     H_    0.708177 0.759168 0.418366 0.113126
H10   H     H_    0.358915 0.925257 0.556684 0.130527
H11   H     H_    0.208177 0.259168 0.418366 0.113126
H12   H     H_    0.356275 0.214525 0.995639 0.127973
H13   H     H_    0.858915 0.425256 0.556684 0.130528
H14   H     H_    0.790852 0.119248 0.642367 0.124775
H15   H     H_    0.117832 0.065401 0.387834 0.132766
H16   H     H_    0.290852 0.619248 0.642367 0.124775
H17   H     H_    0.617832 0.565400 0.387834 0.132762
H18   H     H_    0.706377 0.732191 0.547538 0.157556
H19   H     H_    0.350364 0.894157 0.429692 0.131869
H20   H     H_    0.206377 0.232191 0.547538 0.157556
H21   H     H_    0.850364 0.394157 0.429692 0.131870
H22   H     H_    0.888437 0.236557 0.606371 0.103309
H23   H     H_    0.102350 0.600170 0.015846 0.131877
H24   H     H_    0.013009 0.064346 0.453209 0.099822
H25   H     H_    0.388437 0.736558 0.606371 0.103308
H26   H     H_    0.513009 0.564346 0.453209 0.099820
H27   H     H_    0.931345 0.213531 0.483667 0.113866
H28   H     H_    0.012638 0.979007 0.574385 0.126936
H29   H     H_    0.431344 0.713532 0.483667 0.113865
H30   H     H_    0.512638 0.479007 0.574385 0.126934
H31   H     H_    0.884492 0.061718 0.404535 0.136570
H32   H     H_    0.120550 0.898110 0.629498 0.134756
H33   H     H_    0.384492 0.561718 0.404535 0.136566
H34   H     H_    0.856302 0.714701 0.995610 0.128007
H35   H     H_    0.620549 0.398110 0.629498 0.134747
H36   H     H_    0.548018 0.302141 0.938582 0.171318
H37   H     H_    0.463193 0.360683 0.060667 0.190780
H38   H     H_    0.048108 0.802052 0.938579 0.171224
H39   H     H_    0.963261 0.860765 0.060630 0.190873
H40   H     H_    0.412016 0.027666 0.078370 0.124154
H41   H     H_    0.491935 0.955751 0.955597 0.145901
H42   H     H_    0.911918 0.527876 0.078381 0.124111
H43   H     H_    0.991878 0.455725 0.955618 0.145893
H44   H     H_    0.855752 0.988347 0.075824 0.174953
H45   H     H_    0.463661 0.335514 0.422064 0.127389
H46   H     H_    0.142893 0.980884 0.921756 0.182695
H47   H     H_    0.355758 0.488305 0.075832 0.174899
H48   H     H_    0.642878 0.480528 0.921692 0.182622
H49   H     H_    0.633551 0.890334 0.859901 0.137709
H50   H     H_    0.366355 0.844491 0.134070 0.133933
H51   H     H_    0.133558 0.390366 0.859898 0.137721
H52   H     H_    0.866336 0.344706 0.134083 0.133910
H53   H     H_    0.047818 0.260907 0.904393 0.115490
H54   H     H_    0.954873 0.232312 0.081564 0.126992
H55   H     H_    0.547800 0.760913 0.904416 0.115468
H56   H     H_    0.420509 0.330637 0.542810 0.139593
H57   H     H_    0.454807 0.731892 0.081520 0.127040
H58   H     H_    0.049110 0.212060 0.033303 0.165390
H59   H     H_    0.956391 0.210787 0.950024 0.160625
H60   H     H_    0.549105 0.712077 0.033326 0.165348
H61   H     H_    0.456343 0.710687 0.949950 0.160669
H62   H     H_    0.638314 0.788426 0.114529 0.154225
H63   H     H_    0.362062 0.784087 0.875367 0.153282
H64   H     H_    0.138307 0.288424 0.114521 0.154253
H65   H     H_    0.862171 0.284166 0.875412 0.153299
H66   H     H_    0.963661 0.835514 0.422064 0.127390
H67   H     H_    0.920509 0.830637 0.542810 0.139593
H68   H     H_    0.459707 0.891171 0.606149 0.142611
O1    O     O_R   0.788190 0.043000 0.172520 -0.518539
O2    O     O_R   0.454170 0.051610 0.669840 -0.533814
O3    O     O_R   0.045830 0.551610 0.330160 -0.535980
O4    O     O_R   0.954170 0.551610 0.669840 -0.533814
O5    O     O_R   0.681920 0.959720 0.327070 -0.527049
O6    O     O_R   0.318080 0.959720 0.672930 -0.536804
O7    O     O_R   0.181920 0.459720 0.327070 -0.527047
O8    O     O_R   0.818080 0.459720 0.672930 -0.536814
O9    O     O_3   0.668190 0.168190 0.250820 -0.257544
O10   O     O_3   0.331810 0.168190 0.749180 -0.291909
O11   O     O_3   0.168190 0.668190 0.250820 -0.257531
O12   O     O_R   0.211810 0.043000 0.827480 -0.511771
O13   O     O_3   0.831810 0.668190 0.749180 -0.291895
O14   O     O_R   0.766240 0.292300 0.176860 -0.522132
O15   O     O_R   0.233760 0.292300 0.823140 -0.512683
O16   O     O_R   0.266240 0.792300 0.176860 -0.522150
O17   O     O_R   0.733760 0.792300 0.823140 -0.512656
O18   O     O_R   0.670310 0.409160 0.168720 -0.460033
O19   O     O_R   0.329690 0.409160 0.831280 -0.464279
O20   O     O_R   0.170310 0.909160 0.168720 -0.459984
O21   O     O_R   0.829690 0.909160 0.831280 -0.464274
O22   O     O_R   0.556160 0.251900 0.173380 -0.474216
O23   O     O_R   0.288190 0.543000 0.172520 -0.518552
O24   O     O_R   0.443840 0.251900 0.826620 -0.459941
O25   O     O_R   0.056160 0.751900 0.173380 -0.474199
O26   O     O_R   0.943840 0.751900 0.826620 -0.459941
O27   O     O_R   0.545410 0.050140 0.168240 -0.523607
O28   O     O_R   0.454590 0.050140 0.831760 -0.530082
O29   O     O_R   0.045410 0.550140 0.168240 -0.523599
O30   O     O_R   0.954590 0.550140 0.831760 -0.530086
O31   O     O_R   0.681530 0.958350 0.176970 -0.511222
O32   O     O_R   0.318470 0.958350 0.823030 -0.530786
O33   O     O_R   0.181530 0.458350 0.176970 -0.511219
O34   O     O_R   0.711810 0.543000 0.827480 -0.511705
O35   O     O_R   0.818470 0.458350 0.823030 -0.530763
O36   O     O_R   0.788610 0.044480 0.334450 -0.529156
O37   O     O_R   0.211390 0.044480 0.665550 -0.520074
O38   O     O_R   0.288610 0.544480 0.334450 -0.529159
O39   O     O_R   0.711390 0.544480 0.665550 -0.520088
O40   O     O_R   0.766630 0.293670 0.326970 -0.496292
O41   O     O_R   0.233370 0.293670 0.673030 -0.503938
O42   O     O_R   0.266630 0.793670 0.326970 -0.496300
O43   O     O_R   0.733370 0.793670 0.673030 -0.503942
O44   O     O_R   0.670730 0.410640 0.330640 -0.537970
O45   O     O_R   0.556550 0.253260 0.323480 -0.501866
O46   O     O_R   0.329270 0.410640 0.669360 -0.533096
O47   O     O_R   0.170730 0.910640 0.330640 -0.537968
O48   O     O_R   0.829270 0.910640 0.669360 -0.533096
O49   O     O_R   0.443450 0.253260 0.676520 -0.491036
O50   O     O_R   0.056550 0.753260 0.323480 -0.501863
O51   O     O_R   0.943450 0.753260 0.676520 -0.491036
O52   O     O_R   0.545830 0.051610 0.330160 -0.535981

loop_
_geom_bond_atom_site_label_1
_geom_bond_atom_site_label_2
_ccdc_geom_bond_type
C33   O8    A    
C23   O47   A    
Cr2   O10   S    
C28   O50   A    
C26   O52   A    
Cr1   O9    S    
C36   C43   S    
C47   C119  S    
C37   C38   S    
C45   C83   S    
C135  H19   S    
Cr9   O46   S    
Cr4   O4    S    
Cr5   O41   S    
C3    C120  A    
C76   C80   A    
C29   O4    A    
C87   C131  S    
Cr5   O10   S    
C129  O31   A    
C16   H35   S    
C33   O39   A    
Cr11  O48   S    
C5    C139  A    
Cr12  O27   S    
C106  H4    S    
C86   C97   S    
C88   C132  S    
C115  C120  A    
C41   C119  S    
C3    C7    A    
C18   C31   S    
C7    H26   S    
C65   H50   S    
C26   C91   S    
C70   C72   A    
C9    C14   A    
C137  H21   S    
C43   C81   S    
C104  C111  A    
C19   C123  A    
C21   O44   A    
C34   C36   S    
C54   C89   A    
C129  O1    A    
C16   C124  A    
C42   C108  S    
C80   H65   S    
C105  C107  A    
C114  C118  A    
C97   H41   S    
C18   C122  A    
C23   O42   A    
C104  H2    S    
C90   C94   A    
Cr6   O11   S    
C19   C32   S    
Cr9   O24   S    
C21   C115  S    
C111  H8    S    
C28   C93   S    
C83   O25   A    
C38   C42   S    
C2    C60   A    
C118  C123  A    
Cr10  O50   S    
C113  C117  A    
C5    C9    A    
C127  C136  A    
C4    H22   S    
C109  H6    S    
C22   O46   A    
C48   C52   A    
Cr3   O7    S    
C74   C79   A    
C108  H42   S    
C55   C85   A    
C125  C134  A    
C8    C12   A    
C91   C99   A    
C107  H5    S    
Cr10  O11   S    
C134  H18   S    
C51   C87   A    
C27   O2    A    
Cr4   O8    S    
C118  C140  A    
C131  O32   A    
C12   C121  A    
C55   H44   S    
C36   C40   S    
C34   C44   S    
C93   C98   A    
C63   H49   S    
Cr12  O31   S    
C136  H20   S    
C35   C50   A    
C120  C124  A    
C22   O41   A    
C93   C101  A    
C126  H10   S    
C2    C64   S    
C48   C66   A    
C90   C100  A    
C96   C105  A    
C18   C126  A    
Cr1   O36   S    
C74   H58   S    
C113  C135  A    
C26   O45   A    
C7    C11   A    
C29   C92   S    
C42   H34   S    
C114  C136  A    
C126  C135  A    
Cr12  O5    S    
C13   C48   A    
Cr5   O37   S    
Cr11  O26   S    
Br2   C60   S    
C110  C111  A    
C76   H59   S    
C112  C134  A    
C36   H37   S    
Cr11  O21   S    
C117  C122  A    
C82   O28   A    
C11   C16   A    
Br3   C61   S    
C11   H30   S    
Cr10  O20   S    
C25   O43   A    
Cr5   O12   S    
C85   C129  S    
C1    O14   A    
C58   C62   A    
C19   C127  A    
Cr4   O13   S    
C59   C130  A    
C69   H54   S    
C116  C138  A    
C108  C119  S    
Cr11  O51   S    
C6    C10   A    
C67   C69   A    
C21   O40   A    
C40   H12   S    
C116  C121  A    
C84   O30   A    
Cr8   O9    S    
C29   O51   A    
C66   H51   S    
C133  O34   A    
Cr1   O1    S    
C42   C47   S    
C71   H57   S    
Cr8   O44   S    
C94   C103  A    
C112  C116  A    
C132  O23   A    
Cr2   O28   S    
Cr6   O23   S    
C32   O38   A    
Cr3   O33   S    
C49   C67   A    
C24   C62   A    
C39   C97   S    
C103  C110  A    
Cr8   O18   S    
C37   H38   S    
C95   C104  A    
C54   C80   A    
Cr7   O17   S    
C1    C24   S    
C20   C128  A    
C68   H53   S    
C28   O3    A    
C41   C45   S    
Cr12  O9    S    
C4    C8    A    
C9    H28   S    
C58   H48   S    
Cr1   O14   S    
C34   C39   S    
Cr1   O40   S    
C96   C98   A    
C20   C33   S    
C30   O36   A    
C107  C109  A    
C63   C70   A    
C6    C140  A    
C2    C46   A    
C51   C78   A    
C71   C73   A    
C106  C109  A    
C17   C125  A    
C53   O15   A    
C133  O35   A    
C15   H33   S    
C117  C139  A    
C82   O24   A    
C56   H46   S    
C67   H52   S    
C25   C112  S    
Cr6   O38   S    
C81   O27   A    
Cr6   O16   S    
C45   C108  S    
C64   O16   A    
C81   O22   A    
C1    O18   A    
C43   C86   S    
C44   C82   S    
C55   C59   A    
C98   C106  A    
C30   O5    A    
C128  H13   S    
C100  H56   S    
Cr4   O35   S    
C17   C121  A    
Cr10  O47   S    
C27   O49   A    
C78   H63   S    
C75   O21   A    
C99   C100  A    
C34   H36   S    
C40   C86   S    
C52   C79   A    
C84   O26   A    
C103  H68   S    
Cr2   O6    S    
C56   C87   A    
Cr7   O43   S    
C128  C137  A    
C10   H29   S    
C75   C130  S    
C92   C102  A    
Cr6   O42   S    
Br1   C59   S    
Cr3   O3    S    
Cr8   O45   S    
Cr2   O32   S    
C25   O48   A    
Cr8   O22   S    
C10   C15   A    
C46   C65   A    
C102  H67   S    
C22   C114  S    
Cr9   O10   S    
C39   H1    S    
C12   H31   S    
C72   C77   A    
C119  H43   S    
C66   C68   A    
C49   C54   A    
C57   C88   A    
C17   C30   S    
Cr10  O25   S    
Cr7   O39   S    
C27   C90   S    
C35   C63   A    
C101  C102  A    
C140  H16   S    
C13   C61   A    
C46   C51   A    
C125  H9    S    
C70   H55   S    
C56   C60   A    
C31   O6    A    
C5    H24   S    
Cr7   O13   S    
C31   O37   A    
Cr9   O19   S    
C72   H60   S    
C139  H15   S    
C99   H45   S    
C53   O19   A    
Cr4   O30   S    
C57   H47   S    
Br4   C62   S    
C79   H64   S    
C73   H61   S    
C110  H7    S    
C47   C84   S    
C39   C43   S    
C73   C78   A    
C64   O20   A    
C32   O7    A    
C115  C137  A    
C44   C97   S    
C3    H17   S    
C14   H32   S    
Cr5   O15   S    
C69   C76   A    
Cr3   O29   S    
C50   C85   A    
C65   C71   A    
C91   C95   A    
C75   O17   A    
C57   C61   A    
C92   C96   A    
C38   H39   S    
Cr12  O52   S    
C89   C133  S    
C41   H23   S    
C38   C45   S    
C127  H11   S    
C8    H27   S    
C105  H3    S    
C40   C44   S    
C83   O29   A    
C86   H40   S    
Cr11  O13   S    
C94   C95   A    
C58   C89   A    
C68   C74   A    
C132  O33   A    
C20   C124  A    
C6    H25   S    
C37   C41   S    
C131  O12   A    
C37   C47   S    
C4    C138  A    
C23   C113  S    
C77   H62   S    
Cr9   O49   S    
C13   C53   S    
C52   C88   A    
Cr2   O2    S    
C15   C123  A    
C50   C77   A    
C14   C122  A    
C138  H14   S    
C101  H66   S    
Cr7   O34   S    
C24   C49   A    
C35   C130  A    
Cr3   O11   S    
