data_mof_unit_61827.cif
_audit_creation_date              2012-12-10T18:57:38-0500
_audit_creation_method            fapswitch 2.2
_symmetry_space_group_name_H-M    P1
_symmetry_Int_Tables_number       1
_space_group_crystal_system       triclinic
_cell_length_a                    37.253313
_cell_length_b                    30.266921
_cell_length_c                    21.548394
_cell_angle_alpha                 89.999978
_cell_angle_beta                  54.354645
_cell_angle_gamma                 89.99992
_cell_volume                      19744.497626

loop_
_atom_site_label
_atom_site_type_symbol
_atom_type_description
_atom_site_fract_x
_atom_site_fract_y
_atom_site_fract_z
_atom_type_partial_charge
C1    C     C_R   0.913763 0.500049 0.585439 0.863346
C2    C     C_R   0.086236 0.500048 0.414561 0.863343
C3    C     C_R   0.413763 0.000048 0.585438 0.863336
C4    C     C_R   0.586236 0.000048 0.414562 0.863334
C5    C     C_3   0.953518 0.484970 0.261302 -0.412326
C6    C     C_3   0.046482 0.484968 0.738699 -0.412325
C7    C     C_3   0.453523 0.984951 0.261296 -0.412332
C8    C     C_3   0.546477 0.984950 0.738704 -0.412332
C9    C     C_R   0.797400 0.465330 0.730697 -0.197886
C10   C     C_R   0.202600 0.465330 0.269303 -0.197886
C11   C     C_R   0.297399 0.965334 0.730697 -0.197867
C12   C     C_R   0.702601 0.965334 0.269302 -0.197866
C13   C     C_R   0.843125 0.466244 0.685212 -0.228530
C14   C     C_R   0.156875 0.466245 0.314788 -0.228530
C15   C     C_R   0.343125 0.966247 0.685213 -0.228539
C16   C     C_R   0.656875 0.966247 0.314787 -0.228540
C17   C     C_R   0.865818 0.500251 0.631904 -0.078177
C18   C     C_R   0.134182 0.500251 0.368097 -0.078177
C19   C     C_R   0.365818 0.000251 0.631898 -0.078178
C20   C     C_R   0.634182 0.000250 0.368102 -0.078178
C21   C     C_R   0.842258 0.533438 0.623578 -0.006943
C22   C     C_R   0.157742 0.533438 0.376424 -0.006942
C23   C     C_R   0.342259 0.033435 0.623563 -0.006935
C24   C     C_R   0.657740 0.033434 0.376437 -0.006935
C25   C     C_R   0.796415 0.532334 0.669695 -0.215757
C26   C     C_R   0.203585 0.532333 0.330306 -0.215755
C27   C     C_R   0.296417 0.032332 0.669681 -0.215751
C28   C     C_R   0.703583 0.032331 0.330320 -0.215752
C29   C     C_R   0.773971 0.498448 0.723241 0.098160
C30   C     C_R   0.226029 0.498448 0.276760 0.098160
C31   C     C_R   0.273972 0.998451 0.723235 0.098163
C32   C     C_R   0.726028 0.998450 0.276765 0.098163
C33   C     C_R   0.702803 0.505824 0.739906 -0.206232
C34   C     C_R   0.297197 0.505824 0.260095 -0.206230
C35   C     C_R   0.202802 0.005826 0.739903 -0.206229
C36   C     C_R   0.797197 0.005825 0.260097 -0.206230
C37   C     C_R   0.657081 0.506883 0.786443 -0.188704
C38   C     C_R   0.342919 0.506882 0.213557 -0.188705
C39   C     C_R   0.157080 0.006884 0.786442 -0.188719
C40   C     C_R   0.842920 0.006882 0.213558 -0.188717
C41   C     C_R   0.634134 0.499769 0.865172 -0.022754
C42   C     C_R   0.365866 0.499769 0.134828 -0.022754
C43   C     C_R   0.134134 0.999772 0.865171 -0.022773
C44   C     C_R   0.865866 0.999771 0.134829 -0.022771
C45   C     C_R   0.000315 0.499934 0.378302 0.842063
C46   C     C_R   0.999685 0.499934 0.621698 0.842062
C47   C     C_R   0.500313 0.999934 0.378303 0.842059
C48   C     C_R   0.499687 0.999934 0.621696 0.842058
C49   C     C_R   0.657319 0.491807 0.896987 -0.209779
C50   C     C_R   0.342681 0.491808 0.103013 -0.209779
C51   C     C_R   0.157320 0.991814 0.896986 -0.209782
C52   C     C_R   0.842680 0.991813 0.103014 -0.209779
C53   C     C_R   0.703080 0.490953 0.850418 -0.185970
C54   C     C_R   0.296920 0.490953 0.149582 -0.185969
C55   C     C_R   0.203081 0.990960 0.850416 -0.185960
C56   C     C_R   0.796918 0.990959 0.149585 -0.185960
C57   C     C_R   0.725929 0.498040 0.771798 0.124036
C58   C     C_R   0.274070 0.498040 0.228202 0.124035
C59   C     C_R   0.225930 0.998045 0.771795 0.124037
C60   C     C_R   0.774070 0.998044 0.228205 0.124037
C61   C     C_R   1.000000 0.586201 0.000000 0.890689
C62   C     C_R   0.500000 0.086201 0.000000 0.890692
C63   C     C_R   0.999810 0.499847 0.121584 0.858630
C64   C     C_R   0.000190 0.499847 0.878416 0.858630
C65   C     C_R   0.499810 0.999846 0.121584 0.858623
C66   C     C_R   0.500190 0.999846 0.878416 0.858622
C67   C     C_R   0.000000 0.413665 1.000000 0.860165
C68   C     C_R   0.500000 0.913665 1.000000 0.860158
C69   C     C_R   0.500000 0.413975 0.000000 0.886712
C70   C     C_R   0.000000 0.913975 0.000000 0.886696
C71   C     C_R   0.586171 0.500011 0.913662 0.874831
C72   C     C_R   0.413829 0.500011 0.086338 0.874830
C73   C     C_R   0.086171 0.000011 0.913662 0.874825
C74   C     C_R   0.913829 0.000011 0.086338 0.874823
C75   C     C_R   0.500000 0.586198 1.000000 0.863173
C76   C     C_R   1.000000 0.086198 1.000000 0.863171
C77   C     C_R   0.040079 0.702924 0.962579 -0.217816
C78   C     C_R   0.959920 0.702924 0.037421 -0.217814
C79   C     C_R   0.540079 0.202925 0.962600 -0.217816
C80   C     C_R   0.459921 0.202925 0.037400 -0.217815
C81   C     C_3   0.011271 0.546698 0.274649 -0.435441
C82   C     C_3   0.988730 0.546698 0.725349 -0.435438
C83   C     C_3   0.511253 0.046702 0.274667 -0.435429
C84   C     C_3   0.488747 0.046702 0.725333 -0.435428
C85   C     C_R   0.040099 0.657180 0.962410 -0.192134
C86   C     C_R   0.959900 0.657179 0.037590 -0.192135
C87   C     C_R   0.540099 0.157180 0.962432 -0.192154
C88   C     C_R   0.459901 0.157180 0.037568 -0.192155
C89   C     C_R   1.000000 0.634120 0.000000 0.000345
C90   C     C_R   0.500000 0.134120 0.000000 0.000326
C91   C     C_R   0.999999 0.725984 0.000000 0.124737
C92   C     C_R   0.500000 0.225984 0.000000 0.124712
C93   C     C_R   0.468813 0.297073 0.066765 -0.222729
C94   C     C_R   0.531187 0.297073 0.933235 -0.222729
C95   C     C_R   0.968819 0.797073 0.066770 -0.222734
C96   C     C_R   0.031179 0.797072 0.933230 -0.222734
C97   C     C_R   0.468081 0.342948 0.067019 -0.022846
C98   C     C_R   0.531919 0.342948 0.932981 -0.022846
C99   C     C_R   0.968087 0.842948 0.067025 -0.022842
C100  C     C_R   0.031913 0.842948 0.932975 -0.022842
C101  C     C_R   0.500000 0.366095 0.000000 -0.119889
C102  C     C_R   1.000000 0.866095 0.000000 -0.119900
C103  C     C_R   0.500000 0.274110 0.000000 0.079851
C104  C     C_R   0.999999 0.774109 0.000000 0.079850
C105  C     C_R   0.037884 0.296846 0.980452 -0.181442
C106  C     C_R   0.962116 0.296846 0.019548 -0.181442
C107  C     C_R   0.537884 0.796846 0.980451 -0.181441
C108  C     C_R   0.462116 0.796846 0.019548 -0.181441
C109  C     C_R   0.037990 0.342649 0.979996 -0.200316
C110  C     C_R   0.962010 0.342649 0.020004 -0.200316
C111  C     C_R   0.537991 0.842649 0.979995 -0.200318
C112  C     C_R   0.462010 0.842649 0.020004 -0.200318
C113  C     C_R   0.000000 0.365705 1.000000 -0.030343
C114  C     C_R   0.500000 0.865705 1.000000 -0.030340
C115  C     C_3   0.013185 0.546815 0.201341 -0.152572
C116  C     C_3   0.986816 0.546816 0.798657 -0.152576
C117  C     C_3   0.513167 0.046819 0.201359 -0.152587
C118  C     C_3   0.486834 0.046819 0.798640 -0.152587
C119  C     C_R   0.000000 0.273932 1.000000 0.112959
C120  C     C_R   0.500000 0.773932 1.000000 0.112959
C121  C     C_R   0.487570 0.703069 0.958913 -0.181164
C122  C     C_R   0.512430 0.703069 0.041086 -0.181165
C123  C     C_R   0.987570 0.203069 0.958913 -0.181165
C124  C     C_R   0.012430 0.203069 0.041086 -0.181166
C125  C     C_R   0.487814 0.657264 0.958525 -0.193354
C126  C     C_R   0.512186 0.657264 0.041474 -0.193354
C127  C     C_R   0.987814 0.157264 0.958525 -0.193353
C128  C     C_R   0.012186 0.157264 0.041475 -0.193353
C129  C     C_R   0.500000 0.634189 1.000000 -0.027023
C130  C     C_R   1.000000 0.134189 1.000000 -0.027023
C131  C     C_R   0.500000 0.725983 1.000000 0.113103
C132  C     C_R   0.000000 0.225983 1.000000 0.113103
C133  C     C_3   0.035758 0.467738 0.249331 -0.408822
C134  C     C_3   0.964241 0.467739 0.750670 -0.408826
C135  C     C_3   0.535767 0.967750 0.249323 -0.408834
C136  C     C_3   0.464233 0.967751 0.750677 -0.408834
C137  C     C_3   0.952613 0.487344 0.333649 -0.155037
C138  C     C_3   0.047386 0.487342 0.666351 -0.155038
C139  C     C_3   0.452616 0.987327 0.333646 -0.155036
C140  C     C_3   0.547384 0.987326 0.666354 -0.155036
C141  C     C_3   0.999791 0.499669 0.310726 0.116649
C142  C     C_3   0.000209 0.499669 0.689274 0.116649
C143  C     C_3   0.499789 0.999669 0.310728 0.116650
C144  C     C_3   0.500211 0.999669 0.689272 0.116650
C145  C     C_3   0.999374 0.500159 0.190117 0.113104
C146  C     C_3   0.000626 0.500159 0.809883 0.113105
C147  C     C_3   0.499374 0.000157 0.190118 0.113109
C148  C     C_3   0.500626 0.000157 0.809882 0.113109
C149  C     C_3   0.033740 0.466003 0.180029 -0.439339
C150  C     C_3   0.966259 0.466004 0.819972 -0.439337
C151  C     C_3   0.533752 0.966014 0.180018 -0.439325
C152  C     C_3   0.466248 0.966015 0.819982 -0.439325
H1    H     H_    0.043827 0.557578 0.260562 0.167210
H2    H     H_    0.956174 0.557579 0.739437 0.167211
H3    H     H_    0.543806 0.057593 0.260581 0.167223
H4    H     H_    0.456195 0.057594 0.739418 0.167223
H5    H     H_    0.947027 0.450794 0.251151 0.168510
H6    H     H_    0.052971 0.450792 0.748851 0.168509
H7    H     H_    0.447046 0.950772 0.251133 0.168495
H8    H     H_    0.552953 0.950771 0.748868 0.168494
H9    H     H_    0.032516 0.434061 0.272282 0.183034
H10   H     H_    0.967482 0.434062 0.727719 0.183034
H11   H     H_    0.532535 0.934071 0.272265 0.183031
H12   H     H_    0.467464 0.934072 0.727736 0.183031
H13   H     H_    0.024878 0.432075 0.173431 0.160909
H14   H     H_    0.975119 0.432076 0.826571 0.160909
H15   H     H_    0.524904 0.932083 0.173406 0.160910
H16   H     H_    0.475095 0.932084 0.826595 0.160910
H17   H     H_    0.780309 0.438677 0.771354 0.131206
H18   H     H_    0.219691 0.438678 0.228645 0.131206
H19   H     H_    0.280308 0.938684 0.771360 0.131205
H20   H     H_    0.719692 0.938684 0.228639 0.131204
H21   H     H_    0.860809 0.440485 0.691942 0.154439
H22   H     H_    0.139191 0.440486 0.308057 0.154438
H23   H     H_    0.360808 0.940490 0.691949 0.154433
H24   H     H_    0.639192 0.940490 0.308051 0.154433
H25   H     H_    0.778132 0.558035 0.664211 0.136271
H26   H     H_    0.221867 0.558034 0.335791 0.136270
H27   H     H_    0.278135 0.058031 0.664191 0.136267
H28   H     H_    0.721865 0.058030 0.335810 0.136267
H29   H     H_    0.720113 0.510825 0.679030 0.129969
H30   H     H_    0.279887 0.510825 0.320971 0.129968
H31   H     H_    0.220112 0.010825 0.679027 0.129971
H32   H     H_    0.779888 0.010823 0.320974 0.129970
H33   H     H_    0.639770 0.512955 0.760731 0.158099
H34   H     H_    0.360230 0.512955 0.239269 0.158099
H35   H     H_    0.139769 0.012954 0.760730 0.158107
H36   H     H_    0.860231 0.012953 0.239270 0.158106
H37   H     H_    0.640173 0.486121 0.957645 0.155969
H38   H     H_    0.359827 0.486122 0.042355 0.155968
H39   H     H_    0.140175 0.986129 0.957644 0.155970
H40   H     H_    0.859825 0.986129 0.042356 0.155969
H41   H     H_    0.986559 0.570963 0.316978 0.194032
H42   H     H_    0.013443 0.570963 0.683019 0.194032
H43   H     H_    0.486532 0.070958 0.317004 0.194028
H44   H     H_    0.513468 0.070958 0.682995 0.194028
H45   H     H_    0.720641 0.485405 0.875830 0.131859
H46   H     H_    0.279359 0.485405 0.124171 0.131859
H47   H     H_    0.220643 0.985414 0.875826 0.131856
H48   H     H_    0.779357 0.985413 0.124174 0.131856
H49   H     H_    0.071295 0.720233 0.934477 0.132997
H50   H     H_    0.928703 0.720232 0.065524 0.132997
H51   H     H_    0.571294 0.220233 0.934515 0.133003
H52   H     H_    0.428706 0.220233 0.065485 0.133004
H53   H     H_    0.071413 0.639975 0.933323 0.155174
H54   H     H_    0.928586 0.639975 0.066677 0.155175
H55   H     H_    0.571412 0.139975 0.933362 0.155177
H56   H     H_    0.428588 0.139975 0.066638 0.155178
H57   H     H_    0.444771 0.279291 0.118698 0.132583
H58   H     H_    0.555229 0.279291 0.881302 0.132583
H59   H     H_    0.944783 0.779291 0.118707 0.132575
H60   H     H_    0.055216 0.779291 0.881293 0.132575
H61   H     H_    0.067389 0.279259 0.964862 0.131846
H62   H     H_    0.932611 0.279259 0.035137 0.131846
H63   H     H_    0.567389 0.779259 0.964862 0.131846
H64   H     H_    0.432611 0.779259 0.035138 0.131846
H65   H     H_    0.067554 0.359971 0.964698 0.151544
H66   H     H_    0.932446 0.359971 0.035302 0.151545
H67   H     H_    0.567554 0.859971 0.964698 0.151544
H68   H     H_    0.432446 0.859971 0.035302 0.151545
H69   H     H_    0.478152 0.720657 0.926652 0.129917
H70   H     H_    0.521848 0.720657 0.073347 0.129918
H71   H     H_    0.978153 0.220657 0.926652 0.129918
H72   H     H_    0.021848 0.220657 0.073347 0.129918
H73   H     H_    0.478147 0.639965 0.926409 0.152909
H74   H     H_    0.521853 0.639965 0.073591 0.152909
H75   H     H_    0.978147 0.139965 0.926409 0.152909
H76   H     H_    0.021853 0.139965 0.073591 0.152909
H77   H     H_    0.048811 0.550425 0.153245 0.137019
H78   H     H_    0.951191 0.550426 0.846753 0.137018
H79   H     H_    0.548790 0.050443 0.153264 0.137008
H80   H     H_    0.451210 0.050443 0.846735 0.137008
H81   H     H_    0.068964 0.479694 0.230464 0.158411
H82   H     H_    0.931035 0.479696 0.769536 0.158412
H83   H     H_    0.568969 0.979716 0.230463 0.158412
H84   H     H_    0.431031 0.979717 0.769537 0.158411
H85   H     H_    0.067277 0.473049 0.127519 0.186185
H86   H     H_    0.932722 0.473051 0.872481 0.186186
H87   H     H_    0.567287 0.973074 0.127514 0.186189
H88   H     H_    0.432712 0.973075 0.872487 0.186190
H89   H     H_    0.930984 0.515847 0.367494 0.114949
H90   H     H_    0.069016 0.515845 0.632505 0.114949
H91   H     H_    0.430977 0.015824 0.367498 0.114941
H92   H     H_    0.569023 0.015823 0.632502 0.114941
H93   H     H_    0.926023 0.504644 0.269350 0.168367
H94   H     H_    0.073977 0.504641 0.730649 0.168367
H95   H     H_    0.426021 0.004613 0.269351 0.168373
H96   H     H_    0.573979 0.004611 0.730649 0.168373
O1    O     O_R   0.934520 0.536930 0.565470 -0.610286
O2    O     O_R   0.065480 0.536930 0.434530 -0.610285
O3    O     O_R   0.434520 0.036930 0.565470 -0.610283
O4    O     O_R   0.565480 0.036930 0.434530 -0.610282
O5    O     O_R   0.565440 0.499980 0.882290 -0.618152
O6    O     O_R   0.434560 0.499980 0.117710 -0.618151
O7    O     O_R   0.065440 0.999980 0.882290 -0.618149
O8    O     O_R   0.934560 0.999980 0.117710 -0.618148
O9    O     O_R   0.565450 0.499990 0.986830 -0.632410
O10   O     O_R   0.434550 0.499990 0.013170 -0.632409
O11   O     O_R   0.065450 0.999990 0.986830 -0.632410
O12   O     O_R   0.934550 0.999990 0.013170 -0.632408
O13   O     O_R   0.500010 0.565460 0.947720 -0.627430
O14   O     O_R   0.499990 0.565460 0.052280 -0.627430
O15   O     O_R   0.000010 0.065460 0.947720 -0.627430
O16   O     O_R   0.999990 0.065460 0.052280 -0.627430
O17   O     O_R   0.934480 0.463010 0.565510 -0.618851
O18   O     O_R   0.065520 0.463010 0.434490 -0.618852
O19   O     O_R   0.434480 0.963010 0.565510 -0.618856
O20   O     O_R   0.565520 0.963010 0.434490 -0.618856
O21   O     O_R   0.999990 0.536930 0.407410 -0.629627
O22   O     O_R   0.000010 0.536930 0.592590 -0.629627
O23   O     O_R   0.499990 0.036930 0.407410 -0.629625
O24   O     O_R   0.500010 0.036930 0.592590 -0.629626
O25   O     O_R   0.999940 0.463010 0.407450 -0.618085
O26   O     O_R   0.000060 0.463010 0.592550 -0.618085
O27   O     O_R   0.499940 0.963010 0.407450 -0.618077
O28   O     O_R   0.500060 0.963010 0.592550 -0.618077
O29   O     O_R   0.963000 0.565420 0.036990 -0.628124
O30   O     O_R   0.037000 0.565420 0.963010 -0.628123
O31   O     O_R   0.463000 0.065420 0.036990 -0.628116
O32   O     O_R   0.537000 0.065420 0.963010 -0.628116
O33   O     O_R   0.963020 0.499940 0.129580 -0.625185
O34   O     O_R   0.036980 0.499940 0.870420 -0.625185
O35   O     O_R   0.463020 0.999940 0.129580 -0.625178
O36   O     O_R   0.536980 0.999940 0.870420 -0.625178
O37   O     O_R   0.036940 0.500000 0.055660 -0.638185
O38   O     O_R   0.963060 0.500000 0.944340 -0.638185
O39   O     O_R   0.536940 1.000000 0.055660 -0.638186
O40   O     O_R   0.463060 1.000000 0.944340 -0.638186
O41   O     O_R   0.963020 0.434470 0.036970 -0.627005
O42   O     O_R   0.036980 0.434470 0.963030 -0.627005
O43   O     O_R   0.463020 0.934470 0.036970 -0.627007
O44   O     O_R   0.536980 0.934470 0.963030 -0.627007
O45   O     O_R   0.499930 0.434510 0.947790 -0.616441
O46   O     O_R   0.500070 0.434510 0.052210 -0.616442
O47   O     O_R   0.999930 0.934510 0.947790 -0.616430
O48   O     O_R   0.000070 0.934510 0.052210 -0.616435
Zn1   Zn    Zn3+2 0.000000 0.549330 0.500000 0.971586
Zn2   Zn    Zn3+2 0.500000 0.049330 0.500000 0.971584
Zn3   Zn    Zn3+2 0.000000 0.450610 0.500000 0.957246
Zn4   Zn    Zn3+2 0.500000 0.950610 0.500000 0.957255
Zn5   Zn    Zn3+2 0.950610 0.499940 0.049380 0.929877
Zn6   Zn    Zn3+2 0.049390 0.499940 0.950620 0.929877
Zn7   Zn    Zn3+2 0.450610 0.999940 0.049380 0.929882
Zn8   Zn    Zn3+2 0.549390 0.999940 0.950620 0.929882
Zn9   Zn    Zn3+2 0.499970 0.499980 0.930220 0.943979
Zn10  Zn    Zn3+2 0.500030 0.499980 0.069780 0.943979
Zn11  Zn    Zn3+2 0.999970 0.999980 0.930220 0.943990
Zn12  Zn    Zn3+2 0.000030 0.999980 0.069780 0.943986
C153  C     C_1   0.864006 0.567681 0.566233 0.146805
N1    N     N_1   0.881411 0.595018 0.520189 -0.217137
C154  C     C_1   0.135994 0.567680 0.433770 0.146804
N2    N     N_1   0.118588 0.595017 0.479814 -0.217138
C155  C     C_1   0.364009 0.067672 0.566208 0.146793
N3    N     N_1   0.381416 0.095005 0.520157 -0.217141
C156  C     C_1   0.635991 0.067671 0.433793 0.146792
N4    N     N_1   0.618584 0.095004 0.479844 -0.217141
C157  C     C_R   0.432006 0.365590 0.136683 0.127334
C158  C     C_R   0.434976 0.372964 0.197821 -0.114108
C159  C     C_R   0.400077 0.393269 0.264538 -0.147702
C160  C     C_R   0.361923 0.405678 0.270824 -0.108739
C161  C     C_R   0.358681 0.397950 0.210295 -0.127728
C162  C     C_R   0.393755 0.378292 0.143088 -0.177198
H97   H     H_    0.464239 0.363058 0.193686 0.120736
H98   H     H_    0.402498 0.399151 0.311522 0.122102
H99   H     H_    0.334855 0.421225 0.322588 0.121779
H100  H     H_    0.329043 0.407330 0.215347 0.145348
H101  H     H_    0.390965 0.372531 0.096444 0.124946
C163  C     C_R   0.567994 0.365590 0.863317 0.127334
C164  C     C_R   0.565024 0.372963 0.802179 -0.114109
C165  C     C_R   0.599923 0.393269 0.735461 -0.147702
C166  C     C_R   0.638077 0.405678 0.729176 -0.108738
C167  C     C_R   0.641318 0.397950 0.789706 -0.127727
C168  C     C_R   0.606245 0.378292 0.856912 -0.177198
H102  H     H_    0.535761 0.363058 0.806314 0.120736
H103  H     H_    0.597502 0.399150 0.688478 0.122102
H104  H     H_    0.665145 0.421225 0.677413 0.121779
H105  H     H_    0.670956 0.407331 0.784654 0.145348
H106  H     H_    0.609035 0.372531 0.903557 0.124945
C169  C     C_R   0.932016 0.865589 0.136693 0.127361
C170  C     C_R   0.934990 0.872953 0.197829 -0.114134
C171  C     C_R   0.900095 0.893258 0.264552 -0.147700
C172  C     C_R   0.861941 0.905677 0.270845 -0.108744
C173  C     C_R   0.858695 0.897958 0.210318 -0.127735
C174  C     C_R   0.893765 0.878301 0.143106 -0.177174
H107  H     H_    0.964254 0.863041 0.193689 0.120733
H108  H     H_    0.902520 0.899133 0.311534 0.122105
H109  H     H_    0.834876 0.921223 0.322612 0.121774
H110  H     H_    0.829057 0.907345 0.215376 0.145354
H111  H     H_    0.890972 0.872547 0.096463 0.124935
C175  C     C_R   0.067984 0.865589 0.863307 0.127369
C176  C     C_R   0.065013 0.872947 0.802166 -0.114151
C177  C     C_R   0.099909 0.893250 0.735443 -0.147701
C178  C     C_R   0.138060 0.905673 0.729154 -0.108745
C179  C     C_R   0.141303 0.897960 0.789686 -0.127736
C180  C     C_R   0.106232 0.878305 0.856898 -0.177168
H112  H     H_    0.035751 0.863031 0.806303 0.120734
H113  H     H_    0.097487 0.899121 0.688457 0.122107
H114  H     H_    0.165126 0.921218 0.677386 0.121774
H115  H     H_    0.170940 0.907350 0.784631 0.145357
H116  H     H_    0.109023 0.872555 0.903544 0.124931
C181  C     C_R   0.989471 0.587406 0.199034 0.124357
C182  C     C_R   0.014799 0.621264 0.146137 -0.180732
C183  C     C_R   0.995632 0.661888 0.150464 -0.107655
C184  C     C_R   0.950572 0.668736 0.205030 -0.104318
C185  C     C_R   0.924816 0.635422 0.257143 -0.147314
C186  C     C_R   0.944168 0.595433 0.255340 -0.123390
H117  H     H_    0.049918 0.617061 0.103277 0.117977
H118  H     H_    0.015829 0.688207 0.111560 0.146312
H119  H     H_    0.935774 0.700084 0.207590 0.122497
H120  H     H_    0.890054 0.641135 0.300748 0.128219
H121  H     H_    0.923917 0.572343 0.300805 0.117262
C187  C     C_R   0.010532 0.587405 0.800964 0.124359
C188  C     C_R   0.985204 0.621264 0.853859 -0.180731
C189  C     C_R   0.004373 0.661888 0.849531 -0.107656
C190  C     C_R   0.049433 0.668734 0.794964 -0.104321
C191  C     C_R   0.075188 0.635419 0.742852 -0.147312
C192  C     C_R   0.055835 0.595431 0.744657 -0.123389
H122  H     H_    0.950086 0.617062 0.896719 0.117977
H123  H     H_    0.984177 0.688208 0.888435 0.146314
H124  H     H_    0.064232 0.700082 0.792404 0.122495
H125  H     H_    0.109951 0.641131 0.699248 0.128218
H126  H     H_    0.076085 0.572340 0.699192 0.117262
C193  C     C_R   0.489436 0.087400 0.199068 0.124373
C194  C     C_R   0.514751 0.121269 0.146185 -0.180738
C195  C     C_R   0.495566 0.161884 0.150525 -0.107652
C196  C     C_R   0.450503 0.168712 0.205090 -0.104349
C197  C     C_R   0.424760 0.135388 0.257191 -0.147298
C198  C     C_R   0.444130 0.095408 0.255375 -0.123359
H127  H     H_    0.549871 0.117080 0.103326 0.117973
H128  H     H_    0.515752 0.188211 0.111632 0.146332
H129  H     H_    0.435692 0.200053 0.207659 0.122496
H130  H     H_    0.389995 0.141086 0.300795 0.128215
H131  H     H_    0.423888 0.072311 0.300832 0.117256
C199  C     C_R   0.510566 0.087400 0.800931 0.124374
C200  C     C_R   0.485251 0.121269 0.853813 -0.180739
C201  C     C_R   0.504436 0.161884 0.849473 -0.107652
C202  C     C_R   0.549500 0.168711 0.794907 -0.104351
C203  C     C_R   0.575242 0.135387 0.742807 -0.147297
C204  C     C_R   0.555871 0.095407 0.744623 -0.123357
H132  H     H_    0.450131 0.117081 0.896672 0.117973
H133  H     H_    0.484251 0.188212 0.888366 0.146333
H134  H     H_    0.564312 0.200052 0.792338 0.122496
H135  H     H_    0.610007 0.141084 0.699202 0.128215
H136  H     H_    0.576113 0.072309 0.699167 0.117255
C205  C     C_R   0.931243 0.446314 0.383880 0.153806
C206  C     C_R   0.946744 0.403233 0.356064 -0.120838
C207  C     C_R   0.926311 0.366554 0.403677 -0.153189
C208  C     C_R   0.889810 0.372179 0.479200 -0.120426
C209  C     C_R   0.873431 0.414485 0.507086 -0.108513
C210  C     C_R   0.893908 0.451279 0.459854 -0.150828
H137  H     H_    0.973852 0.397517 0.297280 0.115229
H138  H     H_    0.938556 0.333663 0.381703 0.124410
H139  H     H_    0.873926 0.343719 0.515859 0.119846
H140  H     H_    0.844714 0.418775 0.565291 0.140152
H141  H     H_    0.880433 0.483700 0.482649 0.106822
C211  C     C_R   0.068755 0.446312 0.616121 0.153806
C212  C     C_R   0.053254 0.403231 0.643939 -0.120839
C213  C     C_R   0.073684 0.366552 0.596326 -0.153190
C214  C     C_R   0.110186 0.372175 0.520803 -0.120427
C215  C     C_R   0.126566 0.414481 0.492915 -0.108511
C216  C     C_R   0.106090 0.451275 0.540146 -0.150824
H142  H     H_    0.026145 0.397516 0.702723 0.115229
H143  H     H_    0.061439 0.333661 0.618301 0.124410
H144  H     H_    0.126069 0.343715 0.484144 0.119845
H145  H     H_    0.155282 0.418770 0.434709 0.140151
H146  H     H_    0.119565 0.483697 0.517351 0.106821
C217  C     C_R   0.431259 0.946292 0.383867 0.153808
C218  C     C_R   0.446772 0.903216 0.356039 -0.120837
C219  C     C_R   0.426354 0.866531 0.403645 -0.153193
C220  C     C_R   0.389854 0.872146 0.479172 -0.120442
C221  C     C_R   0.373463 0.914448 0.507070 -0.108493
C222  C     C_R   0.393926 0.951247 0.459845 -0.150794
H147  H     H_    0.473881 0.897507 0.297253 0.115226
H148  H     H_    0.438608 0.833644 0.381663 0.124410
H149  H     H_    0.373981 0.843682 0.515827 0.119846
H150  H     H_    0.344749 0.918730 0.565280 0.140136
H151  H     H_    0.380443 0.983665 0.482650 0.106809
C223  C     C_R   0.568740 0.946291 0.616134 0.153807
C224  C     C_R   0.553227 0.903215 0.643962 -0.120838
C225  C     C_R   0.573645 0.866530 0.596356 -0.153192
C226  C     C_R   0.610144 0.872144 0.520829 -0.120444
C227  C     C_R   0.626535 0.914446 0.492930 -0.108492
C228  C     C_R   0.606074 0.951245 0.540155 -0.150791
H152  H     H_    0.526118 0.897506 0.702748 0.115226
H153  H     H_    0.561390 0.833643 0.618339 0.124410
H154  H     H_    0.626016 0.843680 0.484175 0.119846
H155  H     H_    0.655250 0.918728 0.434720 0.140135
H156  H     H_    0.619557 0.983663 0.517350 0.106808

loop_
_geom_bond_atom_site_label_1
_geom_bond_atom_site_label_2
_ccdc_geom_bond_type
C217  C218  A    
C11   H19   S    
C55   C59   A    
C61   O30   A    
C108  C120  A    
C9    H17   S    
C196  H129  S    
C79   C87   A    
C12   H20   S    
C13   H21   S    
C117  C193  S    
C46   O26   A    
C158  H97   S    
C215  C216  A    
C172  H109  S    
C6    C146  S    
C95   C99   A    
C7    H7    S    
C35   H31   S    
C47   C143  S    
C65   O39   A    
C187  C188  A    
C48   C144  S    
C31   C59   S    
C23   C155  S    
C9    C13   A    
C146  C150  S    
C11   C15   A    
C37   H33   S    
C12   C16   A    
C149  H85   S    
C164  H102  S    
C3    C19   S    
C65   C147  S    
O9    Zn10  S    
C66   C148  S    
C212  H142  S    
C137  H89   S    
C126  H74   S    
C88   H56   S    
C41   C49   A    
C136  C152  S    
C25   C29   A    
C165  C166  A    
C27   C31   A    
C28   C32   A    
C170  C171  A    
C4    O4    A    
C176  H112  S    
C30   C58   S    
C126  C129  A    
O48   Zn12  S    
C123  H71   S    
C17   C21   A    
C140  H92   S    
C80   C92   A    
C19   C23   A    
C205  C210  A    
C163  C168  A    
C10   C30   A    
C116  H78   S    
C98   C163  S    
C200  C201  A    
C177  C178  A    
C97   C157  S    
C133  C149  S    
C193  C194  A    
C44   C74   S    
C28   H28   S    
C202  H134  S    
C69   C101  S    
C96   C104  A    
O5    Zn9   S    
C4    O20   A    
C197  C198  A    
C107  C120  A    
C24   C28   A    
C136  H12   S    
C216  H146  S    
C174  H111  S    
C77   C91   A    
C64   C146  S    
C135  H11   S    
C6    H94   S    
C190  C191  A    
C73   O11   A    
C5    C137  S    
O46   Zn10  S    
C74   O12   A    
C67   O41   A    
C100  C175  S    
C8    C140  S    
C53   H45   S    
C211  C212  A    
C83   C117  S    
C66   O40   A    
C192  H126  S    
C80   C88   A    
C205  C206  A    
C83   C143  S    
C84   H4    S    
C151  H15   S    
C51   C55   A    
C189  H123  S    
C83   H43   S    
C175  C176  A    
C199  C200  A    
C63   O37   A    
C81   H41   S    
C213  H143  S    
C4    C20   S    
C125  C129  A    
C107  H63   S    
C136  C144  S    
C161  C162  A    
C122  H70   S    
C68   O43   A    
C34   C58   A    
C69   O46   A    
O11   Zn12  S    
C99   C169  S    
C209  C210  A    
O26   Zn3   S    
C186  H121  S    
C56   H48   S    
C26   C30   A    
C43   C73   S    
C181  C186  A    
C75   O13   A    
C122  C126  A    
C123  C132  A    
C183  H118  S    
O38   Zn5   S    
C139  C143  S    
C214  C215  A    
C93   C103  A    
C112  C114  A    
C85   H53   S    
C226  H154  S    
C219  C220  A    
C3    O3    A    
C49   C53   A    
C83   H3    S    
C182  C183  A    
C84   C144  S    
C2    O18   A    
C7    H95   S    
C81   H1    S    
C184  C185  A    
C124  C132  A    
C193  C198  A    
C76   C130  S    
C157  C162  A    
C124  H72   S    
C22   C154  S    
C139  H91   S    
C166  H104  S    
C41   C71   S    
C44   C52   A    
C135  C143  S    
C169  C174  A    
C76   O16   A    
C77   C85   A    
C46   O22   A    
O13   Zn9   S    
C215  H145  S    
C111  H67   S    
C6    H6    S    
C7    C147  S    
C112  H68   S    
C106  H62   S    
C55   H47   S    
O3    Zn2   S    
C5    C145  S    
C187  C192  A    
C149  H13   S    
C167  C168  A    
C10   C14   A    
O34   Zn6   S    
C38   H34   S    
C184  H119  S    
C147  C151  S    
C121  C125  A    
O10   Zn9   S    
C64   O34   A    
C200  H132  S    
C123  C127  A    
C221  C222  A    
C128  H76   S    
C134  H82   S    
C70   O47   A    
C42   C50   A    
C48   O28   A    
C94   H58   S    
O39   Zn8   S    
O40   Zn7   S    
C170  H107  S    
C93   C97   A    
C122  C131  A    
C51   H39   S    
C218  C219  A    
C105  C109  A    
C208  H139  S    
O18   Zn3   S    
C18   C22   A    
C61   O29   A    
C148  C152  S    
O23   Zn2   S    
C72   O6    A    
C163  C164  A    
C77   H49   S    
C167  H105  S    
C139  C217  S    
C40   H36   S    
C71   O9    A    
C1    C17   S    
C13   C17   A    
C165  H103  S    
C95   H59   S    
O7    Zn11  S    
O20   Zn4   S    
C202  C203  A    
C116  C146  S    
C9    C29   A    
C137  C205  S    
C175  C180  A    
C84   H44   S    
C45   O25   A    
C96   C100  A    
O6    Zn10  S    
C223  C228  A    
C37   C41   A    
C140  C223  S    
C109  H65   S    
C47   O23   A    
C40   C44   A    
C48   O24   A    
C84   C118  S    
C179  C180  A    
C62   O31   A    
C227  C228  A    
C220  H149  S    
C63   C145  S    
C218  H147  S    
O47   Zn11  S    
C96   H60   S    
O24   Zn2   S    
C106  C119  A    
C120  C131  S    
O41   Zn5   S    
C82   C142  S    
O43   Zn7   S    
C178  C179  A    
C46   C142  S    
C191  C192  A    
C15   C19   A    
C50   C54   A    
C27   H27   S    
C199  C204  A    
C54   C58   A    
C25   H25   S    
C94   C98   A    
C64   O38   A    
C161  H100  S    
C225  C226  A    
C35   C59   A    
C209  H140  S    
C223  C224  A    
C71   O5    A    
C21   C25   A    
C152  H16   S    
C176  C177  A    
C183  C184  A    
C124  C128  A    
C16   H24   S    
C156  N4    T    
C127  H75   S    
C8    C148  S    
C107  C111  A    
C125  H73   S    
O28   Zn4   S    
O29   Zn5   S    
C182  H117  S    
C204  H136  S    
O31   Zn7   S    
O12   Zn11  S    
C138  C211  S    
C3    O19   A    
C201  C202  A    
C138  C142  S    
C85   C89   A    
C191  H125  S    
C198  H131  S    
C190  H124  S    
C117  H79   S    
C33   C37   A    
C56   C60   A    
C35   C39   A    
C224  C225  A    
O25   Zn3   S    
C134  C142  S    
C169  C170  A    
C115  C181  S    
O2    Zn1   S    
C133  H81   S    
C160  H99   S    
O14   Zn10  S    
C228  H156  S    
C108  H64   S    
C45   C141  S    
O22   Zn1   S    
C29   C57   S    
C94   C103  A    
C5    H5    S    
C206  H137  S    
C68   O44   A    
C33   H29   S    
C135  H83   S    
C32   C60   S    
C8    H8    S    
O27   Zn4   S    
C195  C196  A    
C137  C141  S    
C159  H98   S    
C53   C57   A    
C211  C216  A    
C172  C173  A    
C203  H135  S    
C140  C144  S    
C5    H93   S    
C86   C89   A    
C128  C130  A    
C201  H133  S    
C185  C186  A    
C171  H108  S    
C116  C187  S    
C221  H150  S    
O8    Zn12  S    
C10   H18   S    
C98   C101  A    
C151  H87   S    
C217  C222  A    
C115  C145  S    
C133  C141  S    
C117  C147  S    
C118  C148  S    
C196  C197  A    
C82   C116  S    
C210  H141  S    
C14   H22   S    
C118  C199  S    
C224  H152  S    
C43   C51   A    
C155  N3    T    
C80   H52   S    
C168  H106  S    
C135  C151  S    
C111  C114  A    
C1    O1    A    
C225  H153  S    
C50   H38   S    
C82   H42   S    
C159  C160  A    
C108  C112  A    
C99   C102  A    
C208  C209  A    
C8    H96   S    
C22   C26   A    
C87   C90   A    
C121  H69   S    
C206  C207  A    
C105  C119  A    
C194  H127  S    
C145  C149  S    
C150  H14   S    
O1    Zn1   S    
C173  C174  A    
C72   O10   A    
C2    C18   S    
C164  C165  A    
C14   C18   A    
C91   C104  S    
C166  C167  A    
C194  C195  A    
C86   H54   S    
O21   Zn1   S    
C212  C213  A    
C153  N1    T    
C45   O21   A    
C67   O42   A    
C38   C42   A    
C2    O2    A    
C47   O27   A    
C49   H37   S    
C179  H115  S    
C134  C150  S    
C136  H84   S    
C52   H40   S    
C227  H155  S    
C220  C221  A    
C92   C103  S    
C189  C190  A    
C20   C24   A    
C118  H80   S    
C150  H86   S    
C207  C208  A    
C34   H30   S    
C70   C102  S    
O42   Zn6   S    
C23   C27   A    
O16   Zn12  S    
C178  H114  S    
C138  H90   S    
C16   C20   A    
C39   H35   S    
C78   C86   A    
C81   C141  S    
C180  H116  S    
C75   O14   A    
C11   C31   A    
C73   O7    A    
C173  H110  S    
C12   C32   A    
C62   O32   A    
C121  C131  A    
C24   C156  S    
C42   C72   S    
C61   C89   S    
C26   H26   S    
C222  H151  S    
O17   Zn3   S    
C105  H61   S    
O32   Zn8   S    
C36   C40   A    
O4    Zn2   S    
C197  H130  S    
C39   C43   A    
C154  N2    T    
C134  H10   S    
C6    C138  S    
C188  H122  S    
C158  C159  A    
O45   Zn9   S    
C162  H101  S    
C152  H88   S    
C81   C115  S    
C100  C102  A    
C119  C132  S    
O19   Zn4   S    
C65   O35   A    
C207  H138  S    
C66   O36   A    
C110  C113  A    
C87   H55   S    
C79   C92   A    
C185  H120  S    
C36   H32   S    
O30   Zn6   S    
C76   O15   A    
C70   O48   A    
C93   H57   S    
O33   Zn5   S    
C95   C104  A    
C63   O33   A    
C213  C214  A    
C106  C110  A    
O35   Zn7   S    
O36   Zn8   S    
C33   C57   A    
C34   C38   A    
C78   H50   S    
C88   C90   A    
C36   C60   A    
C133  H9    S    
C109  C113  A    
C78   C91   A    
C181  C182  A    
C54   H46   S    
C15   H23   S    
O37   Zn6   S    
C79   H51   S    
C160  C161  A    
C214  H144  S    
C67   C113  S    
C127  C130  A    
O15   Zn11  S    
C188  C189  A    
C7    C139  S    
C226  C227  A    
C219  H148  S    
C62   C90   S    
O44   Zn8   S    
C69   O45   A    
C157  C158  A    
C110  H66   S    
C97   C101  A    
C115  H77   S    
C195  H128  S    
C82   H2    S    
C75   C129  S    
C1    O17   A    
C171  C172  A    
C203  C204  A    
C177  H113  S    
C21   C153  S    
C74   O8    A    
C52   C56   A    
C68   C114  S    
