data_mof_unit_60111.cif
_audit_creation_date              2012-12-10T17:33:09-0500
_audit_creation_method            fapswitch 2.2
_symmetry_space_group_name_H-M    P1
_symmetry_Int_Tables_number       1
_space_group_crystal_system       triclinic
_cell_length_a                    21.408753
_cell_length_b                    25.048804
_cell_length_c                    25.054776
_cell_angle_alpha                 100.513648
_cell_angle_beta                  115.286774
_cell_angle_gamma                 64.700806
_cell_volume                      10983.3626773

loop_
_atom_site_label
_atom_site_type_symbol
_atom_type_description
_atom_site_fract_x
_atom_site_fract_y
_atom_site_fract_z
_atom_type_partial_charge
C1    C     C_R   0.999992 0.919874 0.419862 0.830992
C2    C     C_3   0.073202 0.686559 0.264726 -0.376127
C3    C     C_3   0.999923 0.708723 0.208555 0.326965
C4    C     C_R   0.879366 0.999984 0.500028 0.785645
C5    C     C_3   0.932298 0.725585 0.225767 -0.373214
C6    C     C_3   0.932317 0.774051 0.274274 -0.377360
C7    C     C_1   0.999906 0.662643 0.162438 -0.116950
C8    C     C_1   0.999973 0.837318 0.337259 -0.117640
C9    C     C_1   0.999984 0.875004 0.374972 -0.182919
C10   C     C_3   0.209943 0.053799 0.515017 -0.153638
C11   C     C_3   0.231420 0.039597 0.460889 -0.147800
C12   C     C_3   0.749547 0.013997 0.554375 -0.163404
C13   C     C_3   0.311211 0.999735 0.500273 0.025314
C14   C     C_3   0.290860 0.013931 0.554409 -0.163373
C15   C     C_3   0.269134 0.959947 0.539565 -0.167119
C16   C     C_R   0.000007 0.080127 0.580137 0.830991
C17   C     C_3   0.290480 0.945747 0.485432 -0.163516
C18   C     C_3   0.209567 0.985615 0.446043 -0.153921
C19   C     C_3   0.189232 0.999828 0.500160 0.025318
C20   C     C_3   0.005160 0.186677 0.765018 -0.374606
C21   C     C_3   0.926889 0.265152 0.686517 -0.374917
C22   C     C_3   0.926863 0.313663 0.734977 -0.375962
C23   C     C_3   0.751208 0.053827 0.514942 -0.153693
C24   C     C_1   0.999887 0.375267 0.875053 -0.174499
C25   C     C_3   0.999974 0.208831 0.708781 0.328323
C26   C     C_3   0.005136 0.235187 0.813479 -0.376108
C27   C     C_3   0.999930 0.291427 0.791293 0.326964
C28   C     C_R   0.120686 0.999961 0.500021 0.785642
C29   C     C_3   0.067819 0.274300 0.774344 -0.373212
C30   C     C_3   0.067845 0.225789 0.725883 -0.377362
C31   C     C_1   0.999906 0.337548 0.837368 -0.116949
C32   C     C_1   0.999996 0.162714 0.662708 -0.117637
C33   C     C_1   0.000008 0.125005 0.625018 -0.182933
C34   C     C_3   0.811088 0.999846 0.500154 0.025333
C35   C     C_R   0.419905 0.080122 0.419900 0.831049
C36   C     C_R   0.620845 0.999807 0.500180 0.785721
C37   C     C_R   0.580187 0.919792 0.580186 0.831337
C38   C     C_R   0.379532 0.999816 0.500196 0.785718
C39   C     C_R   0.079888 0.420103 0.079826 0.822852
C40   C     C_3   0.750913 0.985561 0.446048 -0.153854
C41   C     C_R   0.999883 0.580077 0.079829 0.822960
C42   C     C_R   0.919887 0.580121 0.919957 0.823289
C43   C     C_R   0.999872 0.420166 0.919924 0.822942
C44   C     C_3   0.239971 0.265021 0.313233 -0.374604
C45   C     C_3   0.073222 0.735024 0.313233 -0.374615
C46   C     C_3   0.240563 0.186498 0.234800 -0.374557
C47   C     C_3   0.192075 0.234979 0.186295 -0.375978
C48   C     C_1   0.124803 0.375198 0.124726 -0.174465
C49   C     C_3   0.291206 0.208826 0.291166 0.328047
C50   C     C_3   0.191483 0.313503 0.264728 -0.375958
C51   C     C_3   0.208635 0.291384 0.208568 0.326697
C52   C     C_3   0.689867 0.039553 0.460825 -0.147786
C53   C     C_3   0.293473 0.274553 0.225823 -0.373026
C54   C     C_3   0.341963 0.226071 0.274328 -0.377378
C55   C     C_1   0.162522 0.337489 0.162443 -0.116824
C56   C     C_3   0.994309 0.813572 0.234805 -0.374916
C57   C     C_1   0.337312 0.162724 0.337288 -0.117437
C58   C     C_1   0.375017 0.125018 0.375004 -0.183533
C59   C     C_3   0.759800 0.813411 0.764988 -0.375035
C60   C     C_3   0.759567 0.734875 0.686547 -0.375032
C61   C     C_3   0.808040 0.686407 0.735041 -0.376220
C62   C     C_1   0.875020 0.624980 0.875107 -0.174397
C63   C     C_3   0.708765 0.791212 0.708800 0.328854
C64   C     C_3   0.689318 0.999730 0.500251 0.025311
C65   C     C_3   0.808272 0.764944 0.813483 -0.376190
C66   C     C_3   0.791268 0.708718 0.791340 0.327447
C67   C     C_3   0.994288 0.765107 0.186298 -0.375939
C68   C     C_3   0.706445 0.725845 0.774426 -0.373479
C69   C     C_3   0.657972 0.774313 0.725931 -0.377535
C70   C     C_1   0.837331 0.662662 0.837418 -0.117213
C71   C     C_1   0.662708 0.837265 0.662724 -0.118028
C72   C     C_1   0.625030 0.874943 0.625035 -0.182281
C73   C     C_3   0.749252 0.945731 0.485479 -0.163512
C74   C     C_3   0.810468 0.960004 0.539600 -0.167137
C75   C     C_1   0.999895 0.624953 0.124724 -0.174506
C76   C     C_3   0.999955 0.791242 0.291144 0.328326
Cu1   Cu    Cu3+1 0.041320 0.958650 0.541310 0.930733
Cu2   Cu    Cu3+1 0.958680 0.041350 0.458690 0.934084
Cu3   Cu    Cu3+1 0.500040 0.041270 0.541360 0.932443
Cu4   Cu    Cu3+1 0.500060 0.958620 0.458750 0.932389
Cu5   Cu    Cu3+1 0.062630 0.500130 0.999860 0.941466
Cu6   Cu    Cu3+1 0.937130 0.500110 0.999890 0.941500
H1    H     H_    0.639072 0.072116 0.428578 0.118975
H2    H     H_    0.878755 0.741955 0.186266 0.160385
H3    H     H_    0.217407 0.072202 0.428683 0.118922
H4    H     H_    0.752854 0.973909 0.401697 0.124602
H5    H     H_    0.175596 0.098036 0.527140 0.124410
H6    H     H_    0.325415 0.025494 0.598843 0.135111
H7    H     H_    0.283629 0.927244 0.571866 0.140601
H8    H     H_    0.324722 0.901438 0.473350 0.135316
H9    H     H_    0.174913 0.974011 0.401676 0.124606
H10   H     H_    0.956809 0.246103 0.825745 0.160901
H11   H     H_    0.956844 0.174405 0.754116 0.159125
H12   H     H_    0.042450 0.826013 0.245539 0.158956
H13   H     H_    0.921813 0.282255 0.646224 0.160562
H14   H     H_    0.877102 0.254355 0.674140 0.158943
H15   H     H_    0.877063 0.326056 0.745765 0.160858
H16   H     H_    0.747282 0.901406 0.473446 0.135319
H17   H     H_    0.921775 0.353955 0.717850 0.158861
H18   H     H_    0.121253 0.186174 0.742327 0.159536
H19   H     H_    0.065422 0.242150 0.686331 0.159299
H20   H     H_    0.121215 0.257875 0.813953 0.160375
H21   H     H_    0.057389 0.146326 0.782197 0.160642
H22   H     H_    0.057354 0.218025 0.853825 0.158897
H23   H     H_    0.042419 0.754382 0.173844 0.160871
H24   H     H_    0.065382 0.313852 0.757956 0.160407
H25   H     H_    0.130891 0.325679 0.253726 0.160926
H26   H     H_    0.202555 0.254022 0.325413 0.159043
H27   H     H_    0.275909 0.146237 0.217752 0.160747
H28   H     H_    0.860973 0.927342 0.571942 0.140567
H29   H     H_    0.203158 0.174023 0.245505 0.159073
H30   H     H_    0.131494 0.245676 0.173814 0.160930
H31   H     H_    0.204246 0.217891 0.146062 0.158904
H32   H     H_    0.378797 0.242568 0.313973 0.159482
H33   H     H_    0.379220 0.186555 0.258025 0.159451
H34   H     H_    0.941911 0.782220 0.146054 0.158856
H35   H     H_    0.307131 0.314223 0.242284 0.160431
H36   H     H_    0.274884 0.282252 0.353610 0.160754
H37   H     H_    0.203220 0.353907 0.281922 0.158902
H38   H     H_    0.307554 0.258210 0.186336 0.160426
H39   H     H_    0.868863 0.754011 0.825734 0.160865
H40   H     H_    0.747815 0.025609 0.598794 0.135124
H41   H     H_    0.797213 0.825652 0.754049 0.159008
H42   H     H_    0.724347 0.717757 0.646281 0.160499
H43   H     H_    0.796976 0.745646 0.674139 0.159005
H44   H     H_    0.868627 0.674002 0.745821 0.160839
H45   H     H_    0.935073 0.757559 0.313903 0.159554
H46   H     H_    0.795998 0.646114 0.717963 0.158885
H47   H     H_    0.621011 0.813953 0.742353 0.159371
H48   H     H_    0.620845 0.757935 0.686403 0.159382
H49   H     H_    0.692663 0.742309 0.814036 0.160357
H50   H     H_    0.724749 0.853784 0.782141 0.160495
H51   H     H_    0.796397 0.782141 0.853824 0.158877
H52   H     H_    0.753392 0.098082 0.527014 0.124414
H53   H     H_    0.692498 0.686291 0.758085 0.160394
H54   H     H_    0.122818 0.674356 0.253748 0.160880
H55   H     H_    0.122846 0.745990 0.325441 0.159107
H56   H     H_    0.878783 0.813588 0.257960 0.159278
H57   H     H_    0.941941 0.853852 0.217749 0.160550
H58   H     H_    0.935046 0.685926 0.242210 0.160395
H59   H     H_    0.078629 0.717798 0.353595 0.160643
H60   H     H_    0.078600 0.646164 0.281902 0.158897
O1    O     O_R   0.034890 0.904800 0.474600 -0.582507
O2    O     O_R   0.007210 0.439780 0.060160 -0.582035
O3    O     O_R   0.052870 0.560410 0.060140 -0.582076
O4    O     O_R   0.965100 0.974640 0.404830 -0.583736
O5    O     O_R   0.946890 0.560400 0.060170 -0.582116
O6    O     O_R   0.992540 0.560460 0.939590 -0.582206
O7    O     O_R   0.886560 0.560450 0.939620 -0.582239
O8    O     O_R   0.052860 0.439850 0.939580 -0.582118
O9    O     O_R   0.946880 0.439830 0.939610 -0.582078
O10   O     O_R   0.943320 0.965090 0.534890 -0.592881
O11   O     O_R   0.873530 0.034930 0.465120 -0.589105
O12   O     O_R   0.439770 0.025360 0.404880 -0.582127
O13   O     O_R   0.034900 0.025360 0.595170 -0.582482
O14   O     O_R   0.965110 0.095200 0.525400 -0.583704
O15   O     O_R   0.126470 0.965070 0.534880 -0.592867
O16   O     O_R   0.056680 0.034910 0.465110 -0.589117
O17   O     O_R   0.439750 0.095160 0.474640 -0.582142
O18   O     O_R   0.591620 0.034840 0.534930 -0.590975
O19   O     O_R   0.591640 0.965040 0.465170 -0.591016
O20   O     O_R   0.560340 0.974530 0.595230 -0.584287
O21   O     O_R   0.560360 0.904730 0.525470 -0.584262
O22   O     O_R   0.408470 0.034850 0.534940 -0.590957
O23   O     O_R   0.408490 0.965050 0.465180 -0.591040
O24   O     O_R   0.113190 0.439800 0.060140 -0.582077

loop_
_geom_bond_atom_site_label_1
_geom_bond_atom_site_label_2
_ccdc_geom_bond_type
C44   C49   S    
C48   C55   T    
C66   C68   S    
C20   H11   S    
C11   C18   S    
C56   C76   S    
C12   C74   S    
C27   C29   S    
C73   C74   S    
C36   C64   S    
C35   O12   A    
Cu3   O22   S    
C42   O6    A    
Cu5   Cu6   S    
C57   C58   T    
C53   H38   S    
C20   H21   S    
Cu1   Cu2   S    
C56   H12   S    
C12   C23   S    
C26   C27   S    
C35   C58   S    
C34   C40   S    
C18   H9    S    
C21   C22   S    
C60   H43   S    
C6    H45   S    
C3    C7    S    
Cu3   O17   S    
C5    C6    S    
C12   C64   S    
C53   H35   S    
C41   C75   S    
C20   C25   S    
C26   H10   S    
C47   H30   S    
C30   H18   S    
C8    C76   S    
C49   C57   S    
C40   C73   S    
C62   C70   T    
C15   C17   S    
C18   C19   S    
C40   H4    S    
C60   H42   S    
C42   O7    A    
C26   H22   S    
C68   C69   S    
C61   C66   S    
Cu2   O16   S    
C63   C69   S    
C8    C9    T    
C16   O14   A    
Cu5   O24   S    
C61   H44   S    
C65   H39   S    
C49   C54   S    
C42   C62   S    
Cu6   O9    S    
C37   O21   A    
Cu5   O6    S    
C25   C32   S    
C38   O22   A    
C4    O11   A    
C22   H15   S    
C46   H29   S    
C45   H59   S    
C1    O4    A    
Cu1   O10   S    
C45   H55   S    
Cu6   O5    S    
C44   H26   S    
C2    C45   S    
C59   H41   S    
C73   H16   S    
C4    O10   A    
C4    C34   S    
C59   H50   S    
C27   C31   S    
C50   H37   S    
C1    C9    S    
Cu6   O2    S    
C52   C64   S    
Cu3   O18   S    
C5    H2    S    
Cu2   O4    S    
C69   H48   S    
C47   C51   S    
C21   H13   S    
C50   C51   S    
C53   C54   S    
C2    H54   S    
C60   C61   S    
C51   C53   S    
C6    H56   S    
C52   H1    S    
C15   C19   S    
C67   H34   S    
Cu1   O1    S    
Cu4   O21   S    
C29   C30   S    
C1    O1    A    
C16   C33   S    
C15   H7    S    
C41   O5    A    
C44   H36   S    
C10   C19   S    
C64   C73   S    
C23   C34   S    
C54   H33   S    
C16   O13   A    
C28   O16   A    
C17   C18   S    
C41   O3    A    
C10   H5    S    
C6    C76   S    
C19   C28   S    
C13   C38   S    
C43   O8    A    
C34   C74   S    
C65   H51   S    
C21   H14   S    
C63   C71   S    
Cu5   O3    S    
C22   C27   S    
C60   C63   S    
C10   C14   S    
C36   O19   A    
C2    H60   S    
C46   C49   S    
C29   H24   S    
C37   C72   S    
C38   O23   A    
Cu4   O23   S    
C43   O9    A    
C5    H58   S    
C44   C50   S    
C25   C30   S    
C47   H31   S    
C21   C25   S    
C46   C47   S    
C22   H17   S    
C23   H52   S    
C68   H53   S    
C67   H23   S    
C17   H8    S    
C3    C5    S    
C74   H28   S    
C7    C75   T    
Cu2   O11   S    
Cu4   O12   S    
C68   H49   S    
C56   C67   S    
C59   C63   S    
C13   C17   S    
C32   C33   T    
C39   O24   A    
C2    C3    S    
C56   H57   S    
C24   C31   T    
C14   H6    S    
C71   C72   T    
C40   C52   S    
C59   C65   S    
C11   C13   S    
Cu2   O14   S    
C23   C52   S    
C66   C70   S    
C20   C26   S    
C11   H3    S    
C54   H32   S    
C30   H19   S    
C45   C76   S    
C28   O15   A    
C29   H20   S    
C61   H46   S    
C51   C55   S    
C35   O17   A    
Cu4   O19   S    
C50   H25   S    
Cu6   O7    S    
C10   C11   S    
C36   O18   A    
Cu3   Cu4   S    
C12   H40   S    
C39   O2    A    
C69   H47   S    
C65   C66   S    
C46   H27   S    
C24   C43   S    
C14   C15   S    
C37   O20   A    
Cu3   O20   S    
C3    C67   S    
C13   C14   S    
Cu1   O13   S    
Cu5   O8    S    
Cu1   O15   S    
C39   C48   S    
