data_mof_unit_34834.cif
_audit_creation_date              2012-12-10T20:46:50-0500
_audit_creation_method            fapswitch 2.2
_symmetry_space_group_name_H-M    P1
_symmetry_Int_Tables_number       1
_space_group_crystal_system       triclinic
_cell_length_a                    12.892685
_cell_length_b                    8.933101
_cell_length_c                    8.116749
_cell_angle_alpha                 89.961723
_cell_angle_beta                  97.34414
_cell_angle_gamma                 90.033244
_cell_volume                      927.150095293

loop_
_atom_site_label
_atom_site_type_symbol
_atom_type_description
_atom_site_fract_x
_atom_site_fract_y
_atom_site_fract_z
_atom_type_partial_charge
C1    C     C_R   0.500007 0.218029 0.500032 0.935319
C2    C     C_R   0.864563 0.597261 0.670126 -0.214903
C3    C     C_R   0.131753 0.582302 0.555698 -0.073940
C4    C     C_R   0.868247 0.417698 0.444303 -0.073939
C5    C     C_R   0.025602 0.552644 0.557368 0.119872
C6    C     C_R   0.974397 0.447357 0.442632 0.119871
C7    C     C_1   0.500006 0.065199 0.500045 -0.177157
C8    C     C_1   0.499994 0.934801 0.499955 -0.177157
C9    C     C_1   0.815015 0.303619 0.336723 0.161312
C10   C     C_1   0.184986 0.696377 0.663281 0.161314
C11   C     C_R   0.499993 0.781971 0.499968 0.935318
C12   C     C_R   0.298016 0.503464 0.467462 0.879323
C13   C     C_R   0.701984 0.496537 0.532538 0.879323
C14   C     C_R   0.813733 0.499056 0.553265 -0.085433
C15   C     C_R   0.186267 0.500945 0.446735 -0.085433
C16   C     C_R   0.030083 0.376198 0.327180 -0.200256
C17   C     C_R   0.969916 0.623805 0.672818 -0.200255
C18   C     C_R   0.135436 0.402741 0.329872 -0.214900
H1    H     H_    0.821622 0.658941 0.754380 0.167669
H2    H     H_    0.178377 0.341062 0.245616 0.167669
H3    H     H_    0.993493 0.297417 0.236433 0.160282
H4    H     H_    0.006506 0.702587 0.763564 0.160282
N1    N     N_1   0.500020 0.500000 0.073640 -0.025889
N2    N     N_1   0.499980 0.500000 0.926360 -0.025889
N3    N     N_1   0.772592 0.212881 0.251339 -0.189971
N4    N     N_1   0.227410 0.787114 0.748669 -0.189970
O1    O     O_R   0.499990 0.285340 0.636850 -0.614085
O2    O     O_R   0.500010 0.714660 0.363150 -0.614084
O3    O     O_R   0.500010 0.285340 0.363150 -0.612864
O4    O     O_R   0.499990 0.714660 0.636850 -0.612864
O5    O     O_R   0.346350 0.500000 0.614250 -0.610799
O6    O     O_R   0.653650 0.500000 0.385750 -0.610799
O7    O     O_R   0.346360 0.500000 0.340500 -0.625237
O8    O     O_R   0.653640 0.500000 0.659500 -0.625238
Zn1   Zn    Zn3+2 0.499990 0.500000 0.682780 1.006755
Zn2   Zn    Zn3+2 0.500010 0.500000 0.317220 1.006755

loop_
_geom_bond_atom_site_label_1
_geom_bond_atom_site_label_2
_ccdc_geom_bond_type
C15   C18   A    
N1    N2    T    
C16   H3    S    
C13   O6    A    
C17   H4    S    
C12   C15   S    
C10   N4    T    
C1    O3    A    
C4    C9    S    
C9    N3    T    
C13   O8    A    
C3    C10   S    
C13   C14   S    
C2    C17   A    
O3    Zn2   S    
O4    Zn1   S    
C12   O7    A    
C8    C11   S    
C11   O2    A    
C4    C6    A    
N1    Zn2   S    
C18   H2    S    
C12   O5    A    
C4    C14   A    
C5    C6    A    
C2    C14   A    
O5    Zn1   S    
N2    Zn1   S    
C5    C17   A    
C6    C16   A    
O6    Zn2   S    
C7    C8    T    
O7    Zn2   S    
C3    C15   A    
O2    Zn2   S    
C16   C18   A    
O8    Zn1   S    
C1    O1    A    
O1    Zn1   S    
C2    H1    S    
C1    C7    S    
C11   O4    A    
C3    C5    A    
