data_mof_unit_63987.cif
_audit_creation_date              2012-12-10T19:54:23-0500
_audit_creation_method            fapswitch 2.2
_symmetry_space_group_name_H-M    P1
_symmetry_Int_Tables_number       1
_space_group_crystal_system       triclinic
_cell_length_a                    15.746565
_cell_length_b                    14.979682
_cell_length_c                    14.185913
_cell_angle_alpha                 90.328476
_cell_angle_beta                  90.185289
_cell_angle_gamma                 90.085011
_cell_volume                      3346.07613251

loop_
_atom_site_label
_atom_site_type_symbol
_atom_type_description
_atom_site_fract_x
_atom_site_fract_y
_atom_site_fract_z
_atom_type_partial_charge
C1    C     C_R   0.499395 0.327749 0.499786 0.917443
C2    C     C_R   0.499459 0.672248 0.500228 0.916436
C3    C     C_R   0.525545 0.184722 0.577248 -0.164894
C4    C     C_R   0.526296 0.815434 0.423407 -0.159328
C5    C     C_R   0.494962 0.231942 0.499523 -0.149936
C6    C     C_R   0.495130 0.768038 0.500560 -0.141403
C7    C     C_R   0.457974 0.187435 0.422699 -0.221527
C8    C     C_R   0.457672 0.812347 0.576884 -0.190255
C9    C     C_R   0.451726 0.095403 0.423446 0.683420
C10   C     C_R   0.451392 0.904354 0.576135 0.680314
C11   C     C_R   0.483693 0.048105 0.500677 -0.019056
C12   C     C_R   0.483803 0.951833 0.499419 -0.019508
C13   C     C_R   0.432250 0.463271 0.104308 0.516478
C14   C     C_R   0.520794 0.576083 0.896560 0.518330
C15   C     C_R   0.433287 0.463958 0.203524 0.632943
C16   C     C_R   0.520919 0.575382 0.797396 0.630312
C17   C     C_R   0.567803 0.534013 0.205053 -0.263489
C18   C     C_R   0.480485 0.423517 0.794640 -0.260865
C19   C     C_R   0.570338 0.532821 0.105838 0.616781
C20   C     C_R   0.481573 0.420693 0.893904 0.616403
C21   C     C_R   0.501534 0.497696 0.053396 -0.150396
C22   C     C_R   0.501448 0.497972 0.946906 -0.148764
C23   C     C_R   0.337877 0.499955 0.499857 0.893871
C24   C     C_R   0.662125 0.500045 0.500131 0.889636
C25   C     C_3   0.971945 0.424559 0.537809 0.622635
C26   C     C_3   0.028067 0.575392 0.461909 0.628781
C27   C     C_3   0.027721 0.430749 0.449626 0.639417
C28   C     C_3   0.972293 0.569201 0.550092 0.630060
C29   C     C_1   0.249092 0.499893 0.499676 -0.080473
C30   C     C_1   0.750914 0.500087 0.500244 -0.109945
C31   C     C_3   0.028265 0.493559 0.590237 -0.446284
C32   C     C_3   0.971742 0.506392 0.409480 -0.445920
C33   C     C_3   0.083215 0.499848 0.500642 -0.274869
C34   C     C_3   0.916795 0.500102 0.499079 -0.272763
C35   C     C_1   0.173912 0.499855 0.499962 0.209526
C36   C     C_1   0.826095 0.500108 0.499849 0.198270
C37   C     C_R   0.520530 0.092736 0.577449 -0.114858
C38   C     C_R   0.521237 0.907406 0.423214 -0.121304
H1    H     H_    0.432902 0.223868 0.363017 0.221409
H2    H     H_    0.432205 0.775774 0.636133 0.220118
N1    N     N_R   0.500000 0.499980 0.252470 -0.212953
N2    N     N_R   0.500000 0.500020 0.747530 -0.210557
O1    O     O_R   0.500010 0.369070 0.579480 -0.632145
O2    O     O_R   0.499990 0.630930 0.420520 -0.621976
O3    O     O_R   0.500010 0.369060 0.420520 -0.591137
O4    O     O_R   0.499990 0.630940 0.579480 -0.549307
O5    O     O_R   0.376780 0.500000 0.579460 -0.615798
O6    O     O_R   0.623220 0.500000 0.420540 -0.625491
O7    O     O_R   0.376780 0.499990 0.420510 -0.534690
O8    O     O_R   0.623220 0.500010 0.579490 -0.575832
Zn1   Zn    Zn3+2 0.500000 0.500010 0.606140 1.047567
Zn2   Zn    Zn3+2 0.500000 0.499990 0.393860 1.046910
F1    F     F_    0.058232 0.358523 0.399021 -0.548759
F2    F     F_    0.941792 0.641431 0.600697 -0.558355
H3    H     H_    0.620834 0.561531 0.244233 0.219881
H4    H     H_    0.464660 0.363691 0.755385 0.223463
F3    F     F_    0.640665 0.563956 0.061737 -0.561711
F4    F     F_    0.465272 0.342126 0.937474 -0.559137
F5    F     F_    0.941079 0.346126 0.575624 -0.565554
F6    F     F_    0.058937 0.653823 0.424095 -0.558957
H5    H     H_    0.947717 0.511608 0.336064 0.246108
H6    H     H_    0.052286 0.488343 0.663654 0.246298
H7    H     H_    0.546697 0.056260 0.636521 0.207449
H8    H     H_    0.547785 0.944034 0.364589 0.203249
H9    H     H_    0.554482 0.218772 0.636841 0.189350
H10   H     H_    0.555680 0.781528 0.364268 0.191171
F7    F     F_    0.414280 0.052586 0.349574 -0.607829
F8    F     F_    0.413427 0.946961 0.649463 -0.608830
F9    F     F_    0.362811 0.430868 0.058564 -0.528791
F10   F     F_    0.537841 0.653658 0.942857 -0.534414
F11   F     F_    0.367039 0.427785 0.250574 -0.565862
F12   F     F_    0.542837 0.651040 0.751777 -0.580111

loop_
_geom_bond_atom_site_label_1
_geom_bond_atom_site_label_2
_ccdc_geom_bond_type
C25   C31   S    
C26   C32   S    
C16   F12   S    
C1    O3    A    
C2    C6    S    
C27   C33   S    
C1    C5    S    
C23   C29   S    
C19   C21   A    
C32   H5    S    
C18   N2    A    
C23   O7    A    
C25   C34   S    
C11   C37   A    
C17   C19   A    
C1    O1    A    
C2    O2    A    
C31   C33   S    
C17   H3    S    
N1    Zn2   S    
C18   C20   A    
C18   H4    S    
N2    Zn1   S    
O2    Zn2   S    
C28   C34   S    
C21   C22   S    
C14   F10   S    
C31   H6    S    
C3    H9    S    
C19   F3    S    
C37   H7    S    
C38   H8    S    
C24   O8    A    
C23   O5    A    
C24   O6    A    
C15   N1    A    
C4    C6    A    
C5    C7    A    
C28   F2    S    
C6    C8    A    
O3    Zn2   S    
O4    Zn1   S    
C2    O4    A    
C32   C34   S    
C9    F7    S    
C26   C33   S    
O7    Zn2   S    
O8    Zn1   S    
C13   C21   A    
C9    C11   A    
C10   C12   A    
C4    C38   A    
C13   C15   A    
C14   C16   A    
C24   C30   S    
C20   F4    S    
C16   N2    A    
C8    H2    S    
C7    C9    A    
C27   C32   S    
C28   C31   S    
C20   C22   A    
C3    C5    A    
O5    Zn1   S    
C11   C12   S    
C27   F1    S    
C10   F8    S    
C25   C27   S    
C15   F11   S    
C29   C35   T    
C26   C28   S    
C30   C36   T    
C14   C22   A    
C4    H10   S    
O1    Zn1   S    
C13   F9    S    
C33   C35   S    
C34   C36   S    
C12   C38   A    
C17   N1    A    
O6    Zn2   S    
C3    C37   A    
C8    C10   A    
C7    H1    S    
C25   F5    S    
C26   F6    S    
