data_mof_unit_62823.cif
_audit_creation_date              2012-12-10T17:32:57-0500
_audit_creation_method            fapswitch 2.2
_symmetry_space_group_name_H-M    P1
_symmetry_Int_Tables_number       1
_space_group_crystal_system       triclinic
_cell_length_a                    30.186813
_cell_length_b                    30.186961
_cell_length_c                    23.515154
_cell_angle_alpha                 90.00078
_cell_angle_beta                  89.998911
_cell_angle_gamma                 90.000432
_cell_volume                      21428.1404965

loop_
_atom_site_label
_atom_site_type_symbol
_atom_type_description
_atom_site_fract_x
_atom_site_fract_y
_atom_site_fract_z
_atom_type_partial_charge
Br1   Br    Br    0.801154 0.040062 0.669669 -0.429631
Br2   Br    Br    0.458727 0.301168 0.169176 -0.429796
Br3   Br    Br    0.698840 0.459730 0.169608 -0.429744
Br4   Br    Br    0.540314 0.698845 0.169595 -0.429615
Br5   Br    Br    0.698846 0.540266 0.830390 -0.429617
Br6   Br    Br    0.541273 0.301165 0.830822 -0.429701
Br7   Br    Br    0.301169 0.458036 0.831072 -0.429831
Br8   Br    Br    0.459677 0.698840 0.830409 -0.429720
Br9   Br    Br    0.959421 0.801161 0.669492 -0.429581
Br10  Br    Br    0.198823 0.957784 0.668824 -0.429793
Br11  Br    Br    0.040394 0.198844 0.669557 -0.429752
Br12  Br    Br    0.198827 0.042202 0.331168 -0.429717
Br13  Br    Br    0.040580 0.801158 0.330505 -0.429769
Br14  Br    Br    0.801158 0.959936 0.330333 -0.429704
Br15  Br    Br    0.959599 0.198840 0.330447 -0.429569
Br16  Br    Br    0.301175 0.541899 0.168963 -0.429694
C1    C     C_R   0.586401 0.000000 0.500000 0.842854
C2    C     C_R   0.976082 0.726614 0.599011 -0.126915
C3    C     C_1   0.000001 0.500001 0.279658 0.052002
C4    C     C_1   0.000001 0.500001 0.220342 0.051955
C5    C     C_1   0.499999 1.000000 0.220342 0.051957
C6    C     C_1   0.999999 0.499999 0.779658 0.051945
C7    C     C_1   0.500001 0.000000 0.779658 0.051955
C8    C     C_R   0.842116 0.988630 0.450534 -0.176113
C9    C     C_R   0.011515 0.842119 0.450580 -0.176131
C10   C     C_R   0.157866 0.011969 0.450759 -0.176147
C11   C     C_R   0.988535 0.157881 0.450565 -0.176054
C12   C     C_R   0.157865 0.988023 0.549235 -0.176157
C13   C     C_R   0.273373 0.975125 0.598617 -0.127013
C14   C     C_R   0.988486 0.842120 0.549418 -0.176059
C15   C     C_R   0.842115 0.011368 0.549468 -0.176106
C16   C     C_R   0.011462 0.157882 0.549437 -0.176125
C17   C     C_R   0.342131 0.488089 0.950738 -0.176156
C18   C     C_R   0.511708 0.342126 0.950666 -0.176083
C19   C     C_R   0.657884 0.511425 0.950548 -0.176088
C20   C     C_R   0.488556 0.657882 0.950555 -0.176121
C21   C     C_R   0.657882 0.488571 0.049450 -0.176120
C22   C     C_R   0.488290 0.342127 0.049333 -0.176132
C23   C     C_R   0.342132 0.511877 0.049278 -0.176111
C24   C     C_R   0.023811 0.273389 0.599050 -0.126884
C25   C     C_R   0.511438 0.657883 0.049448 -0.176068
C26   C     C_R   0.864918 0.999999 0.500001 -0.117743
C27   C     C_R   0.000000 0.864921 0.499999 -0.117604
C28   C     C_R   0.135069 0.999997 0.499998 -0.117350
C29   C     C_R   0.999999 0.135080 0.500001 -0.117646
C30   C     C_R   0.364929 0.499989 0.000005 -0.117389
C31   C     C_R   0.499999 0.364926 0.999999 -0.117550
C32   C     C_R   0.635080 0.499998 0.999999 -0.117669
C33   C     C_R   0.499998 0.635080 0.000001 -0.117651
C34   C     C_R   0.796003 0.011736 0.550160 0.060676
C35   C     C_R   0.273375 0.024864 0.401375 -0.126990
C36   C     C_R   0.988113 0.796007 0.550107 0.060678
C37   C     C_R   0.203978 0.987632 0.549914 0.060763
C38   C     C_R   0.011833 0.203995 0.550128 0.060688
C39   C     C_R   0.203979 0.012357 0.450079 0.060753
C40   C     C_R   0.011889 0.796007 0.449891 0.060690
C41   C     C_R   0.796004 0.988261 0.449842 0.060684
C42   C     C_R   0.988163 0.203994 0.449875 0.060677
C43   C     C_R   0.296019 0.512258 0.049965 0.060738
C44   C     C_R   0.487910 0.296014 0.050017 0.060753
C45   C     C_R   0.703994 0.488200 0.050141 0.060678
C46   C     C_R   0.023919 0.726612 0.400987 -0.126889
C47   C     C_R   0.511808 0.703996 0.050139 0.060672
C48   C     C_R   0.703996 0.511796 0.949857 0.060669
C49   C     C_R   0.512090 0.296013 0.949981 0.060752
C50   C     C_R   0.296018 0.487694 0.950063 0.060760
C51   C     C_R   0.488184 0.703994 0.949865 0.060674
C52   C     C_R   0.772737 0.999999 0.500001 0.040259
C53   C     C_R   0.000001 0.772741 0.499999 0.040276
C54   C     C_R   0.227245 0.999994 0.499996 0.040219
C55   C     C_R   0.999998 0.227260 0.500002 0.040275
C56   C     C_R   0.272752 0.499975 0.000015 0.040231
C57   C     C_R   0.726611 0.976383 0.400886 -0.126922
C58   C     C_R   0.500000 0.272748 0.999999 0.040212
C59   C     C_R   0.727261 0.499998 0.999999 0.040280
C60   C     C_R   0.499996 0.727261 0.000002 0.040283
C61   C     C_R   0.772597 0.023566 0.599653 0.223296
C62   C     C_R   0.976131 0.772603 0.599548 0.223308
C63   C     C_R   0.227383 0.975171 0.599156 0.223335
C64   C     C_R   0.023760 0.227400 0.599587 0.223283
C65   C     C_R   0.227385 0.024817 0.400836 0.223335
C66   C     C_R   0.023870 0.772601 0.400449 0.223280
C67   C     C_R   0.772600 0.976432 0.400349 0.223291
C68   C     C_R   0.976184 0.273387 0.400954 -0.126911
C69   C     C_R   0.976234 0.227398 0.400417 0.223313
C70   C     C_R   0.272615 0.524633 0.099245 0.223331
C71   C     C_R   0.475725 0.272609 0.099364 0.223345
C72   C     C_R   0.727399 0.476311 0.099616 0.223276
C73   C     C_R   0.523713 0.727401 0.099609 0.223297
C74   C     C_R   0.727402 0.523685 0.900382 0.223291
C75   C     C_R   0.524275 0.272607 0.900635 0.223365
C76   C     C_R   0.272611 0.475311 0.900788 0.223341
C77   C     C_R   0.476279 0.727399 0.900394 0.223277
C78   C     C_R   0.226626 0.524684 0.098707 -0.126964
C79   C     C_R   0.475676 0.226620 0.098825 -0.126967
C80   C     C_R   0.773387 0.476261 0.099080 -0.126896
C81   C     C_R   0.000000 0.586402 0.500000 0.842870
C82   C     C_R   0.523764 0.773390 0.099071 -0.126908
C83   C     C_R   0.773391 0.523735 0.900919 -0.126892
C84   C     C_R   0.524324 0.226618 0.901174 -0.127004
C85   C     C_R   0.226621 0.475264 0.901330 -0.127005
C86   C     C_R   0.476229 0.773388 0.900932 -0.126873
C87   C     C_R   0.703069 0.011947 0.549889 0.027375
C88   C     C_R   0.987901 0.703074 0.549834 0.027375
C89   C     C_R   0.296913 0.987419 0.549634 0.027275
C90   C     C_R   0.012044 0.296928 0.549855 0.027373
C91   C     C_R   0.296914 0.012572 0.450358 0.027277
C92   C     C_R   0.413594 1.000000 0.499999 0.842883
C93   C     C_R   0.012100 0.703073 0.450163 0.027368
C94   C     C_R   0.703070 0.988053 0.450113 0.027381
C95   C     C_R   0.987951 0.296927 0.450148 0.027379
C96   C     C_R   0.203085 0.512478 0.049689 0.027314
C97   C     C_R   0.487697 0.203080 0.049741 0.027299
C98   C     C_R   0.796928 0.487990 0.049869 0.027386
C99   C     C_R   0.512021 0.796929 0.049866 0.027391
C100  C     C_R   0.796930 0.512007 0.950130 0.027383
C101  C     C_R   0.512303 0.203079 0.950259 0.027311
C102  C     C_R   0.203083 0.487483 0.950345 0.027266
C103  C     C_R   1.000000 0.413598 0.500000 0.842881
C104  C     C_R   0.487973 0.796928 0.950137 0.027376
C105  C     C_R   0.726229 0.999999 0.500001 -0.107343
C106  C     C_R   0.000001 0.726233 0.499999 -0.107328
C107  C     C_R   0.273754 0.999995 0.499996 -0.107244
C108  C     C_R   0.999998 0.273768 0.500002 -0.107331
C109  C     C_R   0.226244 0.499977 0.000017 -0.107248
C110  C     C_R   0.500000 0.226239 1.000000 -0.107263
C111  C     C_R   0.773770 0.499999 1.000000 -0.107344
C112  C     C_R   0.499997 0.773769 0.000002 -0.107341
C113  C     C_R   0.656801 0.011639 0.550328 0.385827
C114  C     C_R   0.086405 0.500000 0.000005 0.842903
C115  C     C_R   0.988215 0.656806 0.550277 0.385780
C116  C     C_R   0.343181 0.987754 0.550090 0.385716
C117  C     C_R   0.011734 0.343196 0.550296 0.385799
C118  C     C_R   0.343182 0.012242 0.449904 0.385725
C119  C     C_R   0.011786 0.656805 0.449721 0.385779
C120  C     C_R   0.656803 0.988362 0.449673 0.385816
C121  C     C_R   0.988264 0.343195 0.449707 0.385794
C122  C     C_R   0.156816 0.512163 0.050138 0.385730
C123  C     C_R   0.488019 0.156813 0.050190 0.385788
C124  C     C_R   0.843196 0.488302 0.050310 0.385794
C125  C     C_R   0.500000 0.086404 0.000000 0.842889
C126  C     C_R   0.511711 0.843197 0.050306 0.385788
C127  C     C_R   0.843198 0.511697 0.949690 0.385803
C128  C     C_R   0.511981 0.156811 0.949810 0.385773
C129  C     C_R   0.156816 0.487828 0.949890 0.385716
C130  C     C_R   0.488286 0.843195 0.949696 0.385793
C131  C     C_R   0.633976 0.000001 0.500000 -0.269531
C132  C     C_R   0.000000 0.633979 0.499999 -0.269711
C133  C     C_R   0.366011 1.000000 0.499998 -0.270007
C134  C     C_R   1.000000 0.366022 0.500001 -0.269645
C135  C     C_R   0.133987 0.500002 0.000010 -0.269945
C136  C     C_R   0.913599 0.500000 0.000000 0.842849
C137  C     C_R   0.500000 0.133983 0.000000 -0.269733
C138  C     C_R   0.866023 0.499999 1.000000 -0.269626
C139  C     C_R   0.499999 0.866023 0.000000 -0.269645
C140  C     C_R   0.000000 0.912901 0.500000 0.899231
C141  C     C_R   0.087095 0.999999 0.499999 0.899125
C142  C     C_R   1.000000 0.087099 0.500000 0.899251
C143  C     C_R   0.912900 1.000000 0.500000 0.899308
C144  C     C_R   0.500000 0.412902 1.000000 0.899186
C145  C     C_R   0.587100 0.499999 1.000000 0.899277
C146  C     C_R   0.499999 0.587099 0.000000 0.899260
C147  C     C_R   0.500000 0.913599 0.000000 0.842878
C148  C     C_R   0.412904 0.499998 0.000001 0.899138
C149  C     C_R   0.499999 0.000000 0.609273 0.857379
C150  C     C_R   1.000000 0.500000 0.609273 0.857374
C151  C     C_R   0.499998 1.000000 0.390727 0.857376
C152  C     C_R   0.000000 0.500000 0.390726 0.857373
C153  C     C_R   0.000001 0.500000 0.109273 0.857348
C154  C     C_R   0.500000 0.000001 0.109273 0.857381
C155  C     C_R   0.000001 0.500000 0.890727 0.857378
C156  C     C_R   0.500000 0.000001 0.890726 0.857381
C157  C     C_1   0.500000 0.000001 0.669526 -0.132121
C158  C     C_R   0.726608 0.023616 0.599116 -0.126905
C159  C     C_1   0.999999 0.499999 0.669526 -0.132020
C160  C     C_1   0.499999 0.999999 0.330474 -0.132113
C161  C     C_1   0.000001 0.500000 0.330474 -0.132017
C162  C     C_1   0.000001 0.500001 0.169526 -0.132078
C163  C     C_1   0.499999 0.000000 0.169526 -0.132074
C164  C     C_1   0.000000 0.499999 0.830474 -0.132123
C165  C     C_1   0.500001 0.000001 0.830474 -0.132078
C166  C     C_1   0.500001 0.000000 0.720342 0.051929
C167  C     C_1   0.999999 0.499999 0.720342 0.051998
C168  C     C_1   0.499999 0.999999 0.279658 0.051931
H1    H     H_    0.860729 0.979696 0.412947 0.209952
H2    H     H_    0.520904 0.360744 0.913190 0.209802
H3    H     H_    0.639271 0.520404 0.912975 0.209918
H4    H     H_    0.479566 0.639268 0.912986 0.209900
H5    H     H_    0.639268 0.479592 0.087022 0.209914
H6    H     H_    0.479094 0.360746 0.086808 0.209792
H7    H     H_    0.360754 0.521220 0.086699 0.209704
H8    H     H_    0.520428 0.639270 0.087017 0.209911
H9    H     H_    0.709421 0.032834 0.637779 0.234197
H10   H     H_    0.966745 0.709428 0.637633 0.234178
H11   H     H_    0.290560 0.965416 0.637085 0.234183
H12   H     H_    0.020562 0.860734 0.413034 0.209865
H13   H     H_    0.033106 0.290576 0.637686 0.234197
H14   H     H_    0.290563 0.034573 0.362907 0.234194
H15   H     H_    0.033256 0.709425 0.362364 0.234192
H16   H     H_    0.709425 0.967165 0.362223 0.234189
H17   H     H_    0.966889 0.290573 0.362318 0.234179
H18   H     H_    0.209439 0.534331 0.137203 0.234191
H19   H     H_    0.466181 0.209434 0.137374 0.234206
H20   H     H_    0.790573 0.466996 0.137729 0.234183
H21   H     H_    0.533041 0.790577 0.137716 0.234175
H22   H     H_    0.790578 0.533001 0.862270 0.234185
H23   H     H_    0.139244 0.021370 0.413364 0.209665
H24   H     H_    0.533820 0.209430 0.862625 0.234185
H25   H     H_    0.209433 0.465619 0.862836 0.234174
H26   H     H_    0.466952 0.790574 0.862287 0.234195
H27   H     H_    0.603438 0.015295 0.598534 0.337408
H28   H     H_    0.984531 0.603462 0.598504 0.337389
H29   H     H_    0.396464 0.983957 0.598381 0.337452
H30   H     H_    0.015415 0.396548 0.598513 0.337403
H31   H     H_    0.396474 0.016073 0.401626 0.337472
H32   H     H_    0.015473 0.603458 0.401499 0.337379
H33   H     H_    0.603442 0.984710 0.401466 0.337399
H34   H     H_    0.979529 0.139267 0.413004 0.209906
H35   H     H_    0.984602 0.396542 0.401483 0.337388
H36   H     H_    0.103505 0.516025 0.098385 0.337476
H37   H     H_    0.484270 0.103496 0.098443 0.337469
H38   H     H_    0.896552 0.484642 0.098523 0.337374
H39   H     H_    0.515376 0.896550 0.098523 0.337386
H40   H     H_    0.896554 0.515357 0.901474 0.337390
H41   H     H_    0.515715 0.103495 0.901554 0.337444
H42   H     H_    0.103543 0.484153 0.901568 0.337396
H43   H     H_    0.484629 0.896547 0.901477 0.337384
H44   H     H_    0.139242 0.978624 0.586632 0.209665
H45   H     H_    0.979439 0.860735 0.586965 0.209880
H46   H     H_    0.860727 0.020301 0.587055 0.209951
H47   H     H_    0.020469 0.139269 0.586998 0.209891
H48   H     H_    0.360752 0.478752 0.913313 0.209695
O1    O     O_R   0.566060 0.037360 0.500050 -0.599247
O2    O     O_R   0.462640 0.066060 0.000050 -0.599132
O3    O     O_R   0.933940 0.462640 0.000050 -0.599214
O4    O     O_R   0.537360 0.933940 0.000050 -0.599199
O5    O     O_R   0.933940 0.537360 0.999950 -0.599204
O6    O     O_R   0.537360 0.066060 0.999950 -0.599082
O7    O     O_R   0.066060 0.462640 0.999950 -0.598845
O8    O     O_R   0.462640 0.933940 0.999950 -0.599211
O9    O     O_R   0.499980 0.037350 0.582800 -0.603311
O10   O     O_R   0.962650 0.499980 0.582800 -0.603223
O11   O     O_R   0.500020 0.962650 0.582800 -0.603183
O12   O     O_R   0.962640 0.566060 0.500050 -0.599172
O13   O     O_R   0.037350 0.500020 0.582800 -0.603284
O14   O     O_R   0.500020 0.037350 0.417200 -0.603231
O15   O     O_R   0.037350 0.499980 0.417200 -0.603268
O16   O     O_R   0.499980 0.962650 0.417200 -0.603273
O17   O     O_R   0.962650 0.500020 0.417200 -0.603232
O18   O     O_R   0.999980 0.537350 0.082800 -0.603257
O19   O     O_R   0.462650 0.999980 0.082800 -0.603267
O20   O     O_R   0.000020 0.462650 0.082800 -0.603259
O21   O     O_R   0.537350 0.000020 0.082800 -0.603241
O22   O     O_R   0.000020 0.537350 0.917200 -0.603303
O23   O     O_R   0.433940 0.962640 0.500050 -0.598975
O24   O     O_R   0.537350 0.999980 0.917200 -0.603204
O25   O     O_R   0.999980 0.462650 0.917200 -0.603148
O26   O     O_R   0.462650 0.000020 0.917200 -0.603298
O27   O     O_R   0.999980 0.933940 0.546750 -0.616287
O28   O     O_R   0.066060 0.999980 0.546750 -0.616175
O29   O     O_R   0.000020 0.066060 0.546750 -0.616290
O30   O     O_R   0.933940 0.000020 0.546750 -0.616308
O31   O     O_R   0.000020 0.933940 0.453250 -0.616279
O32   O     O_R   0.933940 0.999980 0.453250 -0.616308
O33   O     O_R   0.999980 0.066060 0.453250 -0.616297
O34   O     O_R   0.037360 0.433940 0.500050 -0.599217
O35   O     O_R   0.066060 0.000020 0.453250 -0.616177
O36   O     O_R   0.499980 0.433940 0.046750 -0.616236
O37   O     O_R   0.566060 0.499980 0.046750 -0.616299
O38   O     O_R   0.500020 0.566060 0.046750 -0.616303
O39   O     O_R   0.433940 0.500020 0.046750 -0.616200
O40   O     O_R   0.500020 0.433940 0.953250 -0.616243
O41   O     O_R   0.433940 0.499980 0.953250 -0.616193
O42   O     O_R   0.499980 0.566060 0.953250 -0.616296
O43   O     O_R   0.566060 0.500020 0.953250 -0.616301
O44   O     O_3   0.635290 0.022623 0.600563 -0.749189
O45   O     O_R   0.433940 0.037360 0.499950 -0.599052
O46   O     O_3   0.977093 0.635295 0.600467 -0.749053
O47   O     O_3   0.364697 0.976203 0.600111 -0.748756
O48   O     O_3   0.022809 0.364708 0.600501 -0.749089
O49   O     O_3   0.364699 0.023794 0.399882 -0.748753
O50   O     O_3   0.022908 0.635293 0.399530 -0.749015
O51   O     O_3   0.635293 0.977377 0.399437 -0.749198
O52   O     O_3   0.977189 0.364706 0.399502 -0.749098
O53   O     O_3   0.135303 0.523646 0.100190 -0.748815
O54   O     O_3   0.476713 0.135299 0.100300 -0.749001
O55   O     O_3   0.864706 0.477262 0.100529 -0.749090
O56   O     O_R   0.037360 0.566060 0.499950 -0.599191
O57   O     O_3   0.522767 0.864709 0.100519 -0.749113
O58   O     O_3   0.864710 0.522737 0.899471 -0.749101
O59   O     O_3   0.523288 0.135296 0.899701 -0.749009
O60   O     O_3   0.135296 0.476348 0.899843 -0.748766
O61   O     O_3   0.477231 0.864707 0.899482 -0.749074
O62   O     O_R   0.566060 0.962640 0.499950 -0.599224
O63   O     O_R   0.962640 0.433940 0.499950 -0.599175
O64   O     O_R   0.066060 0.537360 0.000050 -0.599204
Zn1   Zn    Zn3+2 0.500000 0.049860 0.500000 1.050456
Zn2   Zn    Zn3+2 1.000000 0.000000 0.437580 1.056378
Zn3   Zn    Zn3+2 0.500000 0.500000 0.062420 1.056371
Zn4   Zn    Zn3+2 0.500000 0.500000 0.937580 1.056368
Zn5   Zn    Zn3+2 0.950140 0.500000 0.500000 1.050476
Zn6   Zn    Zn3+2 0.500000 0.950140 0.500000 1.050569
Zn7   Zn    Zn3+2 0.049860 0.500000 0.500000 1.050365
Zn8   Zn    Zn3+2 1.000000 0.549860 0.000000 1.050450
Zn9   Zn    Zn3+2 0.450140 0.000000 0.000000 1.050387
Zn10  Zn    Zn3+2 1.000000 0.450140 0.000000 1.050643
Zn11  Zn    Zn3+2 0.549860 0.000000 0.000000 1.050534
Zn12  Zn    Zn3+2 0.000000 0.000000 0.562420 1.056377

loop_
_geom_bond_atom_site_label_1
_geom_bond_atom_site_label_2
_ccdc_geom_bond_type
C104  C130  A    
C15   C26   A    
Br1   C61   S    
C16   C29   A    
C3    C4    S    
C12   H44   S    
C84   H24   S    
O5    Zn8   S    
C152  O17   A    
O1    Zn1   S    
O28   Zn12  S    
O16   Zn6   S    
O36   Zn3   S    
H33   O51   S    
C141  O28   A    
C24   H13   S    
C114  O64   A    
C89   C107  A    
O35   Zn2   S    
C49   C75   A    
C18   H2    S    
C147  O4    A    
C44   C71   A    
C90   C117  A    
C50   C56   A    
C26   C143  S    
C143  O32   A    
C22   H6    S    
C41   C67   A    
O29   Zn12  S    
C91   C107  A    
C75   C84   A    
C17   H48   S    
C101  C110  A    
O2    Zn9   S    
Br15  C69   S    
C126  O57   S    
C28   C141  S    
C80   C98   A    
Br14  C67   S    
C25   C33   A    
C128  O59   S    
C144  O40   A    
C118  O49   S    
C96   C122  A    
C148  O41   A    
C7    C166  S    
C83   C100  A    
C127  C138  A    
C1    O62   A    
C12   C28   A    
C8    H1    S    
C20   H4    S    
C23   H7    S    
C2    C62   A    
C2    C88   A    
C96   C109  A    
O12   Zn5   S    
C157  C166  T    
C92   O23   A    
C14   C27   A    
C149  O9    A    
C25   C47   A    
C15   C34   A    
C27   C140  S    
C87   C105  A    
C34   C61   A    
O22   Zn8   S    
C95   C121  A    
C159  C167  T    
Br4   C73   S    
C160  C168  T    
C156  O24   A    
O15   Zn7   S    
C95   C108  A    
Br8   C77   S    
C37   C54   A    
C52   C105  A    
C122  C135  A    
C56   C109  A    
C85   H25   S    
O41   Zn4   S    
C143  O30   A    
O18   Zn8   S    
Br7   C76   S    
H40   O58   S    
C124  O55   S    
C113  C131  A    
C49   C58   A    
C5    C163  T    
C11   H34   S    
C35   C91   A    
C47   C60   A    
C90   C108  A    
O27   Zn12  S    
C84   C101  A    
C57   C67   A    
O4    Zn11  S    
C61   C158  A    
C2    H10   S    
C94   C120  A    
C9    C27   A    
C10   C28   A    
C57   C94   A    
O24   Zn11  S    
O33   Zn2   S    
C85   C102  A    
C129  O60   S    
O32   Zn2   S    
C46   H15   S    
C91   C118  A    
C94   C105  A    
C88   C106  A    
C79   H19   S    
C151  O16   A    
C140  O31   A    
O31   Zn2   S    
C115  O46   S    
C145  O43   A    
C156  C165  S    
C136  O5    A    
C121  O52   S    
C8    C41   A    
C88   C115  A    
C71   C79   A    
O21   Zn11  S    
C97   C123  A    
C149  O11   A    
C98   C124  A    
C39   C65   A    
C35   C65   A    
H35   O52   S    
C13   C89   A    
C119  O50   S    
C17   C50   A    
C80   H20   S    
O17   Zn5   S    
C114  O7    A    
C38   C55   A    
H27   O44   S    
C103  O63   A    
C101  C128  A    
C50   C76   A    
C97   C110  A    
C139  C147  S    
C13   H11   S    
C118  C133  A    
C87   C158  A    
C99   C112  A    
C123  O54   S    
H32   O50   S    
O26   Zn9   S    
O19   Zn9   S    
C47   C73   A    
H31   O49   S    
C33   C146  S    
Br2   C71   S    
C9    H12   S    
C22   C44   A    
C148  O39   A    
C144  O36   A    
O56   Zn7   S    
C121  C134  A    
C41   C52   A    
C92   O45   A    
C81   O56   A    
C74   C83   A    
C114  C135  S    
C24   C90   A    
O25   Zn10  S    
O64   Zn8   S    
C14   C36   A    
C154  O21   A    
Br3   C72   S    
C102  C129  A    
C117  C134  A    
C113  O44   S    
O7    Zn10  S    
C40   C66   A    
C151  O14   A    
C154  C163  S    
C81   O12   A    
C146  O42   A    
C125  C137  S    
C82   C99   A    
C46   C93   A    
C53   C106  A    
C155  O22   A    
C78   C96   A    
C48   C59   A    
Br12  C65   S    
C59   C111  A    
C147  O8    A    
C152  O15   A    
C40   C53   A    
C51   C77   A    
O30   Zn12  S    
O38   Zn3   S    
C68   H17   S    
C5    C168  S    
C72   C80   A    
C125  O6    A    
C116  C133  A    
C8    C26   A    
C10   H23   S    
C48   C74   A    
C122  O53   S    
C150  C159  S    
C14   H45   S    
C7    C165  T    
C42   C55   A    
C93   C119  A    
C123  C137  A    
C152  C161  S    
C57   H16   S    
C36   C53   A    
C130  C139  A    
H41   O59   S    
C100  C111  A    
C78   H18   S    
C102  C109  A    
O40   Zn4   S    
C43   C56   A    
O63   Zn5   S    
C140  O27   A    
O13   Zn7   S    
C103  C134  S    
C46   C66   A    
C99   C126  A    
C142  O33   A    
Br16  C70   S    
C17   C30   A    
C36   C62   A    
C19   C32   A    
C16   C38   A    
C89   C116  A    
C38   C64   A    
C68   C95   A    
C155  O25   A    
C68   C69   A    
C6    C164  T    
C4    C162  T    
C32   C145  S    
O14   Zn1   S    
C145  O37   A    
C103  O34   A    
C153  O18   A    
H38   O55   S    
C35   H14   S    
O42   Zn4   S    
C127  O58   S    
C13   C63   A    
C23   C43   A    
C87   C113  A    
C76   C85   A    
C11   C29   A    
C150  O10   A    
C156  O26   A    
C86   C104  A    
O43   Zn4   S    
C1    C131  S    
C11   C42   A    
C77   C86   A    
O9    Zn1   S    
Br10  C63   S    
C104  C112  A    
C1    O1    A    
C73   C82   A    
O20   Zn10  S    
O39   Zn3   S    
C98   C111  A    
O6    Zn11  S    
Br13  C66   S    
Br9   C62   S    
H37   O54   S    
O62   Zn6   S    
Br11  C64   S    
C158  H9    S    
C19   H3    S    
O34   Zn7   S    
C18   C31   A    
H43   O61   S    
C34   C52   A    
C20   C33   A    
O8    Zn9   S    
C21   H5    S    
H29   O47   S    
H30   O48   S    
C9    C40   A    
C10   C39   A    
C20   C51   A    
C136  O3    A    
C45   C59   A    
C117  O48   S    
C153  O20   A    
C37   C63   A    
O3    Zn10  S    
C93   C106  A    
C149  C157  S    
Br6   C75   S    
C15   H46   S    
C128  C137  A    
C120  O51   S    
C70   C78   A    
C54   C107  A    
O10   Zn5   S    
C125  O2    A    
H42   O60   S    
C24   C64   A    
C82   H21   S    
C19   C48   A    
C126  C139  A    
Br5   C74   S    
C16   H47   S    
C30   C148  S    
C18   C49   A    
C130  O61   S    
C31   C144  S    
C141  O35   A    
C83   H22   S    
C39   C54   A    
C55   C108  A    
C86   H26   S    
H36   O53   S    
C6    C167  S    
C45   C72   A    
C100  C127  A    
C142  O29   A    
C12   C37   A    
C115  C132  A    
C21   C32   A    
C22   C31   A    
C129  C135  A    
C23   C30   A    
O45   Zn1   S    
C136  C138  S    
O11   Zn6   S    
H39   O57   S    
C81   C132  S    
C155  C164  S    
C42   C69   A    
C153  C162  S    
O37   Zn3   S    
C116  O47   S    
C3    C161  T    
C146  O38   A    
C25   H8    S    
C150  O13   A    
C29   C142  S    
C21   C45   A    
O23   Zn6   S    
C43   C70   A    
C58   C110  A    
C79   C97   A    
C60   C112  A    
C44   C58   A    
C154  O19   A    
C120  C131  A    
C92   C133  S    
C119  C132  A    
C51   C60   A    
C124  C138  A    
C151  C160  S    
H28   O46   S    
