data_mof_unit_36375.cif
_audit_creation_date              2012-12-10T19:45:42-0500
_audit_creation_method            fapswitch 2.2
_symmetry_space_group_name_H-M    P1
_symmetry_Int_Tables_number       1
_space_group_crystal_system       triclinic
_cell_length_a                    10.81912
_cell_length_b                    14.699477
_cell_length_c                    14.77965
_cell_angle_alpha                 64.910947
_cell_angle_beta                  103.875406
_cell_angle_gamma                 103.037245
_cell_volume                      2045.97968631

loop_
_atom_site_label
_atom_site_type_symbol
_atom_type_description
_atom_site_fract_x
_atom_site_fract_y
_atom_site_fract_z
_atom_type_partial_charge
C1    C     C_R   0.476872 0.119590 0.312480 0.789475
C2    C     C_R   0.523126 0.880411 0.687518 0.789466
C3    C     C_R   0.870743 0.001791 0.495653 -0.080395
C4    C     C_R   0.129255 0.998205 0.504346 -0.080397
C5    C     C_R   0.905691 0.957860 0.438578 0.001869
C6    C     C_R   0.094306 0.042135 0.561422 0.001869
C7    C     C_R   0.451902 0.186736 0.205437 -0.050778
C8    C     C_R   0.548111 0.813271 0.794558 -0.050781
C9    C     C_R   0.321918 0.222701 0.040365 -0.169875
C10   C     C_R   0.678223 0.777270 0.959582 -0.169785
C11   C     C_R   0.362964 0.153376 0.136597 -0.216337
C12   C     C_R   0.637186 0.846602 0.863356 -0.216323
C13   C     C_R   0.507026 0.288137 0.175082 -0.237167
C14   C     C_R   0.492873 0.711896 0.824940 -0.237147
C15   C     C_R   0.471537 0.359758 0.076810 0.093038
C16   C     C_R   0.528416 0.640254 0.923191 0.093026
C17   C     C_R   0.372538 0.326737 0.009605 0.078266
C18   C     C_R   0.627492 0.673255 0.990373 0.078265
C19   C     C_R   0.526312 0.464004 0.046662 0.044302
C20   C     C_R   0.473628 0.536007 0.953341 0.044320
C21   C     C_R   0.367436 0.501893 0.892751 -0.266751
C22   C     C_R   0.632522 0.498104 0.107246 -0.266796
C23   C     C_R   0.262826 0.998947 0.502269 0.793524
C24   C     C_R   0.737174 0.001053 0.497730 0.793532
C25   C     C_R   0.320579 0.399202 0.916992 -0.026220
C26   C     C_R   0.679427 0.600785 0.082992 -0.026217
C27   C     C_R   0.717943 0.286002 0.666252 -0.314795
C28   C     C_R   0.282069 0.714005 0.333738 -0.314796
C29   C     C_R   0.682706 0.203681 0.637785 0.075938
C30   C     C_R   0.317295 0.796320 0.362214 0.075924
C31   C     C_R   0.517768 0.285056 0.509320 0.031789
C32   C     C_R   0.482241 0.714949 0.490672 0.031809
C33   C     C_R   0.548635 0.371557 0.534640 -0.028539
C34   C     C_R   0.451385 0.628453 0.465343 -0.028540
C35   C     C_R   0.651244 0.369971 0.615236 0.156417
C36   C     C_R   0.348777 0.630041 0.384747 0.156417
C37   C     C_R   0.481397 0.458234 0.484202 0.065859
C38   C     C_R   0.518629 0.541780 0.515775 0.065861
C39   C     C_R   0.621851 0.535878 0.596462 -0.236316
C40   C     C_R   0.378182 0.464140 0.403510 -0.236321
C41   C     C_R   0.686451 0.451766 0.644856 -0.179409
C42   C     C_R   0.313580 0.548251 0.355118 -0.179412
C43   C     C_R   0.360769 0.062391 0.774317 -0.129407
C44   C     C_R   0.639245 0.937627 0.225664 -0.129409
C45   C     C_R   0.265876 0.021114 0.713980 -0.102430
C46   C     C_R   0.734132 0.978896 0.286013 -0.102422
C47   C     C_R   0.189525 0.084335 0.629314 0.122991
C48   C     C_R   0.810472 0.915667 0.370680 0.122995
C49   C     C_R   0.207840 0.188836 0.606996 -0.175714
C50   C     C_R   0.792153 0.811168 0.392988 -0.175710
C51   C     C_R   0.302939 0.229728 0.667452 -0.101467
C52   C     C_R   0.697063 0.770285 0.332520 -0.101481
C53   C     C_R   0.379496 0.166667 0.750913 -0.060029
C54   C     C_R   0.620516 0.833356 0.249058 -0.060025
C55   C     C_R   0.965065 0.044212 0.555508 -0.232572
C56   C     C_R   0.034933 0.955782 0.444492 -0.232562
Cu1   Cu    Cu3+1 0.466270 0.918260 0.475690 0.943558
Cu2   Cu    Cu3+1 0.533730 0.081740 0.524310 0.943557
H1    H     H_    0.453478 0.198680 0.797249 0.139833
H2    H     H_    0.546539 0.801347 0.202713 0.139825
H3    H     H_    0.245688 0.193905 0.993156 0.180860
H4    H     H_    0.754552 0.806038 0.006755 0.180812
H5    H     H_    0.317239 0.553896 0.825076 0.168583
H6    H     H_    0.682716 0.446087 0.174914 0.168622
H7    H     H_    0.764981 0.450704 0.706549 0.165050
H8    H     H_    0.235054 0.549315 0.293422 0.165041
H9    H     H_    0.559530 0.721157 0.549885 0.126314
H10   H     H_    0.440477 0.278847 0.450109 0.126307
H11   H     H_    0.266503 0.861499 0.322536 0.118668
H12   H     H_    0.733492 0.138499 0.677468 0.118661
H13   H     H_    0.796573 0.283862 0.728093 0.154208
H14   H     H_    0.203440 0.716146 0.271896 0.154189
H15   H     H_    0.655514 0.595256 0.624568 0.139332
H16   H     H_    0.344528 0.404766 0.375398 0.139331
H17   H     H_    0.420389 0.013645 0.838755 0.127704
H18   H     H_    0.579635 0.986379 0.161225 0.127694
H19   H     H_    0.253278 0.940399 0.732042 0.107609
H20   H     H_    0.746734 0.059610 0.267955 0.107625
H21   H     H_    0.150469 0.238751 0.541663 0.137384
H22   H     H_    0.849516 0.761247 0.458321 0.137377
H23   H     H_    0.317938 0.310520 0.649144 0.161452
H24   H     H_    0.682062 0.689495 0.350819 0.161436
H25   H     H_    0.938001 0.076517 0.600499 0.154620
H26   H     H_    0.061998 0.923477 0.399502 0.154626
H27   H     H_    0.427774 0.690216 0.767656 0.149132
H28   H     H_    0.571979 0.309863 0.232394 0.149185
H29   H     H_    0.681817 0.925061 0.840583 0.146891
H30   H     H_    0.318439 0.074893 0.159337 0.146914
N1    N     N_R   0.584450 0.204570 0.560790 -0.174698
N2    N     N_R   0.415550 0.795430 0.439210 -0.174703
O1    O     O_R   0.455540 0.022090 0.338120 -0.587408
O2    O     O_R   0.544460 0.977910 0.661880 -0.587407
O3    O     O_R   0.512510 0.160150 0.379180 -0.587346
O4    O     O_R   0.487490 0.839850 0.620820 -0.587324
O5    O     O_R   0.291160 0.930970 0.479480 -0.588937
O6    O     O_R   0.708840 0.069030 0.520520 -0.588933
O7    O     O_R   0.348130 0.069020 0.520540 -0.572165
O8    O     O_R   0.651870 0.930980 0.479460 -0.572172
C57   C     C_2   0.212840 0.372016 0.844769 0.812805
O9    O     O_2   0.122529 0.420864 0.807564 -0.603794
O10   O     O_R   0.216556 0.293637 0.816109 -0.795068
H31   H     H_    0.137451 0.282856 0.766685 0.330086
C58   C     C_2   0.787164 0.627962 0.155224 0.812776
O11   O     O_2   0.877435 0.579071 0.192477 -0.603792
O12   O     O_R   0.783484 0.706383 0.183833 -0.795029
H32   H     H_    0.862580 0.717154 0.233271 0.330076

loop_
_geom_bond_atom_site_label_1
_geom_bond_atom_site_label_2
_ccdc_geom_bond_type
O10   H31   S    
C27   C29   A    
C5    C56   A    
C36   C42   A    
C19   C20   A    
C18   C26   A    
C6    C55   A    
C30   N2    A    
C49   C51   A    
C29   N1    A    
C53   H1    S    
C39   C41   A    
C54   H2    S    
C15   C19   A    
C23   O5    A    
C9    H3    S    
Cu2   O3    S    
C37   C40   A    
C24   O6    A    
C38   C39   A    
C44   H18   S    
Cu2   O6    S    
C3    C55   A    
C43   C53   A    
C32   N2    A    
C44   C46   A    
C31   N1    A    
C13   H28   S    
C50   C52   A    
C31   C33   A    
C51   H23   S    
C34   C36   A    
C8    C12   A    
C40   C42   A    
C1    O1    A    
C1    C7    S    
C4    C56   A    
C3    C24   S    
C28   H14   S    
Cu2   O7    S    
C52   C54   A    
C56   H26   S    
C45   C47   A    
C43   H17   S    
C31   H10   S    
C5    C48   S    
C46   C48   A    
C6    C47   S    
C2    O4    A    
C19   C22   A    
C4    C6    A    
Cu1   N2    S    
C46   H20   S    
C4    C23   S    
C41   H7    S    
C27   C35   A    
C33   C37   A    
C49   H21   S    
C51   C53   A    
C32   C34   A    
C2    O2    A    
C37   C38   A    
C26   C58   S    
C9    C11   A    
C7    C11   A    
C57   O9    D    
C11   H30   S    
C16   C20   A    
C58   O12   S    
C16   C18   A    
C52   H24   S    
C48   C50   A    
C43   C45   A    
C10   C12   A    
C32   H9    S    
C9    C17   A    
C23   O7    A    
Cu1   O4    S    
C13   C15   A    
Cu1   O5    S    
C24   O8    A    
C10   H4    S    
C55   H25   S    
C30   H11   S    
C27   H13   S    
C29   H12   S    
C15   C17   A    
C21   C25   A    
C8    C14   A    
Cu1   O1    S    
C12   H29   S    
C57   O10   S    
C34   C38   A    
C2    C8    S    
C14   H27   S    
C3    C5    A    
C50   H22   S    
C47   C49   A    
O12   H32   S    
C17   C25   A    
C25   C57   S    
Cu1   Cu2   S    
C10   C18   A    
Cu1   O8    S    
C28   C30   A    
C33   C35   A    
C40   H16   S    
C14   C16   A    
C39   H15   S    
C35   C41   A    
Cu2   N1    S    
C21   H5    S    
C22   H6    S    
C44   C54   A    
C7    C13   A    
C20   C21   A    
C28   C36   A    
C1    O3    A    
C22   C26   A    
C58   O11   D    
C42   H8    S    
C45   H19   S    
Cu2   O2    S    
