data_mof_unit_5712.cif
_audit_creation_date              2013-03-05T15:52:19-0500
_audit_creation_method            fapswitch 2.2
_symmetry_space_group_name_H-M    P1
_symmetry_Int_Tables_number       1
_space_group_crystal_system       triclinic
_cell_length_a                    21.555847
_cell_length_b                    7.345536
_cell_length_c                    15.503528
_cell_angle_alpha                 90.001836
_cell_angle_beta                  70.660015
_cell_angle_gamma                 90.000021
_cell_volume                      2316.291835

loop_
_atom_site_label
_atom_site_type_symbol
_atom_site_description
_atom_site_fract_x
_atom_site_fract_y
_atom_site_fract_z
_atom_type_partial_charge
O1    O     O_R   0.464160 0.506670 0.130070 -0.565052
O2    O     O_R   0.535840 0.006670 0.869930 -0.565049
O3    O     O_R   0.589710 0.179080 0.006710 -0.570183
O4    O     O_R   0.410290 0.679080 0.993290 -0.570168
C1    C     C_R   0.615658 0.344613 0.004394 0.972478
C2    C     C_R   0.384342 0.844612 0.995606 0.972500
O5    O     O_R   0.467940 0.177220 0.138010 -0.560282
O6    O     O_R   0.532060 0.677220 0.861990 -0.560283
O7    O     O_R   0.413200 0.002810 0.002170 -0.534547
O8    O     O_R   0.586800 0.502810 0.997830 -0.534531
C3    C     C_R   0.459466 0.347773 0.173627 0.993157
C4    C     C_R   0.540531 0.847767 0.826374 0.993140
O9    O     O_3   0.482180 0.337850 0.955280 -0.259937
O10   O     O_3   0.517820 0.837850 0.044720 -0.259931
V1    V     V_3+5 0.503310 0.064600 0.008300 1.388099
V2    V     V_3+5 0.496690 0.564600 0.991700 1.388117
C5    C     C_R   0.563089 0.870417 0.725427 -0.278140
C6    C     C_R   0.436908 0.370455 0.274574 -0.278160
C7    C     C_R   0.919645 0.869752 0.270255 -0.282111
C8    C     C_R   0.080388 0.369728 0.729751 -0.282272
C9    C     C_R   0.543204 0.977993 0.587179 0.430838
C10   C     C_R   0.456801 0.478180 0.412798 0.430933
C11   C     C_R   0.520272 0.935428 0.681484 -0.282084
C12   C     C_R   0.479731 0.435475 0.318507 -0.282207
C13   C     C_R   0.629903 0.858917 0.675511 0.298096
C14   C     C_R   0.370093 0.359029 0.324489 0.298162
C15   C     C_R   0.655855 0.929849 0.586154 -0.036136
C16   C     C_R   0.344143 0.430082 0.413825 -0.036132
C17   C     C_R   0.612308 0.975450 0.538551 -0.030939
C18   C     C_R   0.387692 0.475795 0.461414 -0.030995
C19   C     C_R   0.725002 0.946654 0.542075 0.044001
C20   C     C_R   0.274997 0.446893 0.457905 0.043794
C21   C     C_R   0.751369 0.951779 0.445955 0.096195
C22   C     C_R   0.248635 0.452145 0.554022 0.096310
C23   C     C_R   0.707798 0.001168 0.398896 -0.079179
C24   C     C_R   0.292194 0.501848 0.601046 -0.078670
C25   C     C_R   0.639980 0.020156 0.445065 -0.033080
C26   C     C_R   0.360013 0.520776 0.554870 -0.032948
C27   C     C_R   0.767894 0.970020 0.592520 -0.146865
C28   C     C_R   0.232097 0.470143 0.407468 -0.146812
C29   C     C_R   0.835505 0.956093 0.552410 0.325961
C30   C     C_R   0.164489 0.456143 0.447596 0.325901
C31   C     C_R   0.862282 0.922698 0.458198 -0.071215
C32   C     C_R   0.137731 0.422726 0.541809 -0.071271
C33   C     C_R   0.820657 0.920245 0.402816 -0.053782
C34   C     C_R   0.179363 0.420411 0.597185 -0.053698
C35   C     C_R   0.930022 0.889417 0.418914 -0.017569
C36   C     C_R   0.070004 0.389291 0.581093 -0.017563
C37   C     C_R   0.958426 0.870553 0.325804 -0.094839
C38   C     C_R   0.041609 0.370403 0.674199 -0.094934
C39   C     C_R   0.850311 0.879933 0.307960 0.287469
C40   C     C_R   0.149728 0.380019 0.692048 0.287030
H1    H     H_    0.610071 0.068090 0.406010 0.179967
H2    H     H_    0.389915 0.568872 0.593902 0.179938
H3    H     H_    0.011147 0.855457 0.296827 0.217839
H4    H     H_    0.988891 0.355208 0.703175 0.217817
H5    H     H_    0.749172 0.006845 0.663693 0.226432
H6    H     H_    0.250807 0.506935 0.336291 0.226454
H7    H     H_    0.962276 0.879745 0.459230 0.198879
H8    H     H_    0.037753 0.379528 0.540777 0.198880
C41   C     C_3   0.221887 0.680336 0.956892 -0.286346
C42   C     C_3   0.778109 0.180359 0.043120 -0.286337
H9    H     H_    0.197359 0.557399 0.994331 0.266859
H10   H     H_    0.802638 0.057403 0.005697 0.266835
H11   H     H_    0.219680 0.668181 0.886498 0.199374
H12   H     H_    0.780309 0.168260 0.113517 0.199555
C43   C     C_3   0.295288 0.681239 0.950975 -0.405933
C44   C     C_3   0.704709 0.181255 0.049033 -0.405983
H13   H     H_    0.327152 0.675897 0.877935 0.181489
H14   H     H_    0.672843 0.175929 0.122073 0.181478
H15   H     H_    0.306600 0.554486 0.980203 0.293729
H16   H     H_    0.693398 0.054494 0.019810 0.293729
C45   C     C_3   0.186276 0.877334 0.103126 0.292847
C46   C     C_3   0.813724 0.377315 0.896879 0.292859
C47   C     C_3   0.227651 0.016723 0.940997 -0.416978
C48   C     C_3   0.772349 0.516743 0.059000 -0.417077
C49   C     C_3   0.186167 0.859263 0.001420 -0.261664
C50   C     C_3   0.813832 0.359269 0.998583 -0.261714
H17   H     H_    0.205662 0.153164 0.960495 0.250687
H18   H     H_    0.794340 0.653182 0.039505 0.250628
C51   C     C_3   0.311761 0.852394 0.999877 -0.343242
C52   C     C_3   0.688237 0.352397 0.000127 -0.343201
C53   C     C_3   0.260972 0.846197 0.103395 0.359367
C54   C     C_3   0.739028 0.346179 0.896610 0.359368
C55   C     C_3   0.300069 0.012162 0.939132 0.218617
C56   C     C_3   0.699931 0.512181 0.060867 0.218584
O11   O     O_R   0.913210 0.208550 0.002110 -0.564218
O12   O     O_R   0.086790 0.708550 0.997890 -0.564211
O13   O     O_R   0.032060 0.539960 0.861980 -0.581126
O14   O     O_R   0.967940 0.039960 0.138020 -0.581087
C57   C     C_R   0.047033 0.373078 0.827767 1.056839
C58   C     C_R   0.952976 0.873082 0.172234 1.056574
O15   O     O_R   0.910290 0.538020 0.993280 -0.570871
O16   O     O_R   0.089710 0.038020 0.006720 -0.570812
O17   O     O_R   0.964160 0.712340 0.130090 -0.577087
O18   O     O_R   0.035840 0.212340 0.869910 -0.577146
C59   C     C_R   0.884046 0.369380 0.000403 0.967715
C60   C     C_R   0.115953 0.869379 0.999600 0.967560
O19   O     O_3   0.017820 0.379210 0.044690 -0.265661
O20   O     O_3   0.982180 0.879210 0.955310 -0.265758
V3    V     V_3+5 0.996690 0.652500 0.991710 1.329964
V4    V     V_3+5 0.003310 0.152500 0.008290 1.330003
N1    N     N_R   0.141997 0.745814 0.167091 0.241167
O21   O     O_R   0.133636 0.760291 0.253792 -0.279907
O22   O     O_R   0.112188 0.613737 0.140982 -0.327566
N2    N     N_R   0.858001 0.245778 0.832919 0.241162
O23   O     O_R   0.866367 0.260254 0.746217 -0.279840
O24   O     O_R   0.887801 0.113690 0.859032 -0.327582
N3    N     N_R   0.269579 0.666778 0.142513 0.241337
O25   O     O_R   0.236259 0.523729 0.135852 -0.249609
O26   O     O_R   0.318293 0.643423 0.173345 -0.339727
N4    N     N_R   0.730423 0.166752 0.857493 0.241354
O27   O     O_R   0.763733 0.023697 0.864174 -0.249608
O28   O     O_R   0.681729 0.143412 0.826614 -0.339691
H19   H     H_    0.227153 0.998961 0.869899 0.200279
H20   H     H_    0.772846 0.498980 0.130095 0.200566
H21   H     H_    0.329767 0.977916 0.867063 0.096624
H22   H     H_    0.670233 0.477950 0.132937 0.096645
N5    N     N_R   0.811414 0.821502 0.253532 0.207906
O29   O     O_R   0.769344 0.689476 0.282591 -0.391712
O30   O     O_R   0.823130 0.883101 0.171014 -0.479694
N6    N     N_R   0.188649 0.321789 0.746500 0.207921
O31   O     O_R   0.231165 0.190991 0.717156 -0.391519
O32   O     O_R   0.176694 0.382676 0.829183 -0.479542
N7    N     N_R   0.323736 0.192276 0.954582 0.244618
O33   O     O_R   0.360100 0.284828 0.884435 -0.409485
O34   O     O_R   0.318969 0.248228 0.035914 -0.278530
N8    N     N_R   0.676263 0.692291 0.045414 0.244617
O35   O     O_R   0.639888 0.784839 0.115559 -0.409594
O36   O     O_R   0.681033 0.748228 0.964081 -0.278501
N9    N     N_R   0.159357 0.060415 0.136497 0.257845
O37   O     O_R   0.194085 0.207073 0.112476 -0.266280
O38   O     O_R   0.097968 0.079143 0.186997 -0.332443
N10   N     N_R   0.840646 0.560387 0.863504 0.257842
O39   O     O_R   0.805921 0.707053 0.887523 -0.266272
O40   O     O_R   0.902034 0.579097 0.812991 -0.332397
N11   N     N_R   0.276144 0.979570 0.163916 0.286140
O41   O     O_R   0.230019 0.016885 0.240663 -0.229495
O42   O     O_R   0.336135 0.986086 0.164992 -0.300730
N12   N     N_R   0.723856 0.479542 0.836090 0.286142
O43   O     O_R   0.769982 0.516858 0.759347 -0.229457
O44   O     O_R   0.663867 0.486041 0.835009 -0.300728
N13   N     N_R   0.876104 0.971040 0.609173 0.256401
O45   O     O_R   0.926207 0.081295 0.587027 -0.364738
O46   O     O_R   0.859777 0.885867 0.687074 -0.201944
N14   N     N_R   0.123876 0.471025 0.390849 0.256387
O47   O     O_R   0.073758 0.581228 0.413015 -0.364722
O48   O     O_R   0.140215 0.385890 0.312934 -0.201952
N15   N     N_R   0.495629 0.024385 0.543790 0.241681
O49   O     O_R   0.440636 0.102194 0.591136 -0.352581
O50   O     O_R   0.500673 0.958244 0.463949 -0.378289
N16   N     N_R   0.504387 0.524520 0.456181 0.241811
O51   O     O_R   0.559445 0.601952 0.408785 -0.352794
O52   O     O_R   0.499261 0.458715 0.536119 -0.378122
H23   H     H_    0.468381 0.946838 0.720282 0.168062
H24   H     H_    0.531623 0.446796 0.279709 0.168089
N17   N     N_R   0.670193 0.748737 0.709767 0.245894
O53   O     O_R   0.701691 0.613612 0.659975 -0.309965
O54   O     O_R   0.685788 0.805644 0.779157 -0.257696
N18   N     N_R   0.329797 0.248826 0.290251 0.245884
O55   O     O_R   0.298305 0.113711 0.340051 -0.310017
O56   O     O_R   0.314199 0.305689 0.220857 -0.257688
H25   H     H_    0.725750 0.036991 0.327335 0.154631
H26   H     H_    0.274223 0.537830 0.672594 0.154381

loop_
_geom_bond_atom_site_label_1
_geom_bond_atom_site_label_2
_geom_bond_distance
_ccdc_geom_bond_type
C32   C36   1.404868 A    
C45   N9    1.487971 S    
C3    C6    1.486431 S    
N17   O53   1.301870 A    
C11   H23   1.083666 S    
C15   C17   1.413137 A    
C21   C33   1.438762 A    
C55   N7    1.465938 S    
O1    C3    1.335422 A    
O2    C4    1.335424 A    
N8    O35   1.301843 A    
C2    O7    1.337756 A    
N4    O28   1.301211 A    
O12   V3    2.018418 S    
C27   C29   1.385980 A    
O16   C60   1.351056 A    
O5    C3    1.356814 A    
N11   O42   1.299654 A    
C54   N4    1.487864 S    
C6    C12   1.400179 A    
C23   C25   1.405634 A    
C48   C50   1.568490 S    
C29   N13   1.436136 S    
O18   V4    2.071524 S    
N15   O50   1.300339 A    
C43   H15   1.097667 S    
N2    O23   1.300041 A    
C33   C39   1.426992 A    
N13   O45   1.301775 A    
C27   H5    1.076397 S    
C34   C40   1.427181 A    
C18   C26   1.411320 A    
C41   H9    1.108462 S    
C7    C37   1.384700 A    
O14   V4    2.072274 S    
C8    C38   1.384689 A    
C7    C58   1.450174 S    
C48   H20   1.113497 S    
C57   O18   1.332214 A    
C40   N6    1.438277 S    
C47   C55   1.552049 S    
C41   C49   1.563572 S    
C16   C18   1.413173 A    
C6    C14   1.393568 A    
C4    C5    1.486414 S    
C39   N5    1.438017 S    
C53   N3    1.487865 S    
C14   N18   1.413119 S    
C22   C34   1.438770 A    
C9    N15   1.441257 S    
O13   C57   1.332203 A    
C31   C35   1.404924 A    
C42   H10   1.108462 S    
C44   H16   1.097663 S    
C25   H1    1.079255 S    
O5    V1    2.072194 S    
O6    V2    2.072246 S    
C2    C51   1.544925 S    
C29   C31   1.402968 A    
C30   C32   1.403000 A    
N4    O27   1.296056 A    
C51   C53   1.616355 S    
C32   C34   1.432832 A    
C36   H8    1.080246 S    
N14   O48   1.300947 A    
N5    O30   1.300464 A    
C8    C57   1.450203 S    
C10   N16   1.441302 S    
C28   H6    1.076405 S    
C42   H12   1.111577 S    
C56   N8    1.465941 S    
C16   C20   1.424506 A    
N12   O43   1.302236 A    
C35   C37   1.375670 A    
O15   V3    2.036257 S    
N10   O40   1.302623 A    
N9    O38   1.302598 A    
C52   C56   1.576399 S    
C9    C17   1.429609 A    
C58   O17   1.332214 A    
C23   H25   1.079590 S    
C43   H13   1.113750 S    
N18   O56   1.297905 A    
O4    V2    2.036165 S    
C7    C39   1.415035 A    
C46   N2    1.483527 S    
O11   V4    2.018419 S    
C31   C33   1.432803 A    
C41   C43   1.554271 S    
O14   C58   1.332189 A    
C26   H2    1.079248 S    
O12   C60   1.342599 A    
O6    C4    1.356801 A    
C50   C59   1.524903 S    
C19   C21   1.408604 A    
C49   C60   1.524900 S    
C56   H22   1.117019 S    
O1    V2    2.068446 S    
C5    C11   1.400195 A    
C55   H21   1.117017 S    
O2    V1    2.068421 S    
C47   C49   1.568501 S    
O16   V4    2.036257 S    
C12   H24   1.083666 S    
O4    C2    1.333910 A    
N16   O52   1.300421 A    
C43   C51   1.568359 S    
C52   C54   1.616343 S    
C9    C11   1.414593 A    
C15   C19   1.424509 A    
C13   N17   1.413106 S    
N7    O33   1.301836 A    
N1    O22   1.300093 A    
C10   C12   1.414601 A    
O9    V2    1.818732 S    
C47   H19   1.113532 S    
N6    O32   1.300308 A    
N9    O37   1.294212 A    
C30   N14   1.436138 S    
O15   C59   1.351054 A    
C53   N11   1.466408 S    
O3    V1    2.036162 S    
C24   H26   1.079679 S    
N14   O47   1.301773 A    
N13   O46   1.300941 A    
C10   C18   1.429656 A    
O13   V3    2.072222 S    
C42   C50   1.563560 S    
C48   H18   1.107075 S    
C46   C54   1.627651 S    
C28   C30   1.385970 A    
O3    C1    1.333915 A    
N8    O36   1.297522 A    
N5    O29   1.302030 A    
N10   O39   1.294211 A    
N12   O44   1.299640 A    
C13   C15   1.410794 A    
N11   O41   1.302240 A    
C14   C16   1.410821 A    
C42   C44   1.554267 S    
C44   C52   1.568345 S    
N18   O55   1.301871 A    
N3    O26   1.301172 A    
O7    V1    2.027368 S    
C5    C13   1.393571 A    
C1    O8    1.337758 A    
C8    C40   1.415193 A    
C37   H3    1.080498 S    
N15   O49   1.301668 A    
C24   C26   1.405645 A    
C1    C52   1.544922 S    
N2    O24   1.300093 A    
C46   N10   1.487977 S    
C36   C38   1.375626 A    
O20   V3    1.818381 S    
C21   C23   1.414189 A    
C19   C27   1.405294 A    
C22   C24   1.414123 A    
C20   C28   1.405249 A    
C38   H4    1.080511 S    
C35   H7    1.080251 S    
C41   H11   1.111605 S    
C45   N1    1.483545 S    
O19   V4    1.818348 S    
N16   O51   1.301687 A    
C54   N12   1.466394 S    
N17   O54   1.297910 A    
C46   C50   1.583115 S    
C48   C56   1.552048 S    
C17   C25   1.411270 A    
N1    O21   1.300050 A    
N7    O34   1.297527 A    
C44   H14   1.113749 S    
C45   C49   1.583152 S    
O10   V1    1.818763 S    
O8    V2    2.027365 S    
N6    O31   1.301461 A    
N3    O25   1.296057 A    
C47   H17   1.107069 S    
C45   C53   1.627660 S    
C51   C55   1.576395 S    
O17   V3    2.071495 S    
C20   C22   1.408578 A    
O11   C59   1.342608 A    
