data_mof_unit_38686.cif
_audit_creation_date              2012-12-10T17:52:37-0500
_audit_creation_method            fapswitch 2.2
_symmetry_space_group_name_H-M    P1
_symmetry_Int_Tables_number       1
_space_group_crystal_system       triclinic
_cell_length_a                    14.69101
_cell_length_b                    14.515611
_cell_length_c                    23.528187
_cell_angle_alpha                 76.794133
_cell_angle_beta                  102.490471
_cell_angle_gamma                 114.436572
_cell_volume                      4404.94096176

loop_
_atom_site_label
_atom_site_type_symbol
_atom_type_description
_atom_site_fract_x
_atom_site_fract_y
_atom_site_fract_z
_atom_type_partial_charge
C1    C     C_R   0.880848 0.311192 0.508132 0.803058
C2    C     C_R   0.118981 0.688389 0.493086 0.798587
C3    C     C_R   0.923581 0.525660 0.746897 0.473826
C4    C     C_R   0.073992 0.469991 0.253506 0.475272
C5    C     C_R   0.925333 0.525640 0.687381 -0.334105
C6    C     C_R   0.072615 0.470848 0.312948 -0.333173
C7    C     C_R   0.997750 0.500082 0.671314 -0.077220
C8    C     C_R   0.001622 0.498721 0.328791 -0.079337
C9    C     C_R   0.068603 0.474428 0.715283 -0.212500
C10   C     C_R   0.931608 0.525524 0.284699 -0.210362
C11   C     C_R   0.067077 0.474166 0.774251 -0.201351
C12   C     C_R   0.932737 0.524903 0.225799 -0.201461
C13   C     C_R   0.994963 0.499554 0.790227 0.347483
C14   C     C_R   0.003610 0.497477 0.210040 0.348019
C15   C     C_R   0.814442 0.201262 0.509706 -0.082715
C16   C     C_R   0.185166 0.796942 0.496019 -0.087919
C17   C     C_R   0.776318 0.023447 0.504391 -0.219082
C18   C     C_R   0.225099 0.967750 0.515555 -0.213300
C19   C     C_R   0.847614 0.123741 0.505932 0.155194
C20   C     C_R   0.153710 0.868924 0.509580 0.153943
C21   C     C_R   0.712075 0.174947 0.512428 -0.282146
C22   C     C_R   0.286716 0.825817 0.490396 -0.274301
C23   C     C_R   0.999346 0.500034 0.608965 0.817464
C24   C     C_R   0.000517 0.499725 0.391057 0.817497
C25   C     C_R   0.640140 0.074677 0.510340 0.090524
C26   C     C_R   0.360238 0.921459 0.502059 0.090998
C27   C     C_R   0.674034 0.999036 0.505564 0.127827
C28   C     C_R   0.327128 0.993831 0.512679 0.123705
C29   C     C_R   0.535349 0.048001 0.511464 0.076096
C30   C     C_R   0.465469 0.946850 0.503830 0.075757
C31   C     C_R   0.503388 0.873422 0.500386 -0.211031
C32   C     C_R   0.498142 0.118396 0.520765 -0.207584
C33   C     C_R   0.605584 0.899236 0.501476 -0.213323
C34   C     C_R   0.396265 0.091298 0.521698 -0.213071
C35   C     C_R   0.714377 0.668552 0.401234 -0.320900
C36   C     C_R   0.284759 0.330117 0.598021 -0.319744
C37   C     C_R   0.795549 0.637756 0.416267 0.079463
C38   C     C_R   0.203053 0.360100 0.582530 0.070043
C39   C     C_R   0.715693 0.510085 0.492613 0.008594
C40   C     C_R   0.285402 0.491600 0.508383 0.010790
C41   C     C_R   0.629371 0.536221 0.478726 -0.021343
C42   C     C_R   0.371772 0.465543 0.522345 -0.021390
C43   C     C_R   0.631371 0.618545 0.432422 0.161107
C44   C     C_R   0.369125 0.382221 0.568058 0.165196
C45   C     C_R   0.076041 0.576871 0.119546 0.578754
C46   C     C_R   0.922735 0.419827 0.880805 0.580154
C47   C     C_R   0.542221 0.484590 0.508896 0.081008
C48   C     C_R   0.459337 0.517811 0.492557 0.078148
C49   C     C_R   0.466880 0.602066 0.447069 -0.239667
C50   C     C_R   0.534764 0.400450 0.554444 -0.235750
C51   C     C_R   0.550866 0.650722 0.417554 -0.197549
C52   C     C_R   0.450161 0.350841 0.583390 -0.203821
C53   C     C_R   0.931134 0.420398 0.122026 0.561085
C54   C     C_R   0.067456 0.576466 0.878297 0.559416
C55   C     C_R   0.928088 0.419634 0.062260 -0.060134
C56   C     C_R   0.070588 0.577132 0.938083 -0.059725
C57   C     C_R   0.001299 0.499228 0.030362 -0.029878
C58   C     C_R   0.997423 0.497496 0.969988 -0.029959
C59   C     C_R   0.077996 0.580100 0.058885 -0.079325
C60   C     C_R   0.920760 0.416603 0.941467 -0.079726
C61   C     C_R   0.852537 0.340353 0.034487 -0.143315
C62   C     C_R   0.146162 0.656396 0.965858 -0.143564
C63   C     C_R   0.846330 0.336673 0.974555 0.123621
C64   C     C_R   0.152423 0.660033 0.025798 0.123492
Cu1   Cu    Cu3+1 0.081740 0.475680 0.515360 0.932681
Cu2   Cu    Cu3+1 0.918260 0.524320 0.484640 0.933052
H1    H     H_    0.797869 0.280939 0.060560 0.201472
H2    H     H_    0.200810 0.715831 0.939782 0.201440
H3    H     H_    0.800323 0.963963 0.500657 0.131034
H4    H     H_    0.201369 0.023839 0.524697 0.133660
H5    H     H_    0.456544 0.793999 0.498421 0.144132
H6    H     H_    0.545634 0.194692 0.529364 0.138976
H7    H     H_    0.552809 0.714573 0.382618 0.150168
H8    H     H_    0.447971 0.286581 0.618071 0.147254
H9    H     H_    0.279644 0.552098 0.473436 0.122151
H10   H     H_    0.722230 0.450769 0.528208 0.121786
H11   H     H_    0.137654 0.319615 0.605401 0.121185
H12   H     H_    0.859497 0.675993 0.392120 0.124484
H13   H     H_    0.716545 0.731212 0.365461 0.144986
H14   H     H_    0.281828 0.266244 0.633073 0.141429
H15   H     H_    0.408801 0.632648 0.432945 0.132509
H16   H     H_    0.593132 0.370294 0.568802 0.129816
H17   H     H_    0.870413 0.545762 0.653818 0.154224
H18   H     H_    0.126712 0.449581 0.346630 0.156230
H19   H     H_    0.125167 0.454304 0.704203 0.171423
H20   H     H_    0.876092 0.547331 0.295626 0.170433
H21   H     H_    0.121970 0.454002 0.807784 0.157494
H22   H     H_    0.878610 0.546111 0.192147 0.156987
H23   H     H_    0.631118 0.840416 0.498593 0.151547
H24   H     H_    0.371490 0.147210 0.529977 0.150005
H25   H     H_    0.306488 0.771230 0.476891 0.148572
H26   H     H_    0.689924 0.235704 0.514660 0.155476
N1    N     N_R   0.003923 0.497984 0.149043 -0.437207
N2    N     N_R   0.994718 0.498846 0.851273 -0.437183
N3    N     N_R   0.795430 0.560810 0.461550 -0.173909
N4    N     N_R   0.204570 0.439190 0.538450 -0.172722
O1    O     O_R   0.977900 0.338110 0.520250 -0.584826
O2    O     O_R   0.022100 0.661890 0.479750 -0.581547
O3    O     O_R   0.839850 0.379180 0.494310 -0.582520
O4    O     O_R   0.160150 0.620820 0.505690 -0.581574
O5    O     O_R   0.069020 0.479430 0.595090 -0.582549
O6    O     O_R   0.930980 0.520570 0.404910 -0.581741
O7    O     O_R   0.930970 0.520500 0.569150 -0.591116
O8    O     O_R   0.069030 0.479500 0.430850 -0.587268
O9    O     O_2   0.144213 0.651441 0.149396 -0.561800
O10   O     O_2   0.854733 0.345112 0.850997 -0.561491
O11   O     O_2   0.861822 0.343939 0.153243 -0.544188
O12   O     O_2   0.136622 0.653088 0.847059 -0.545280
C65   C     C_3   0.760828 0.248587 0.946446 -0.318709
C66   C     C_3   0.683793 0.169477 0.985757 -0.885475
H27   H     H_    0.721033 0.128896 0.022882 0.260671
H28   H     H_    0.644695 0.206707 0.002668 0.261417
H29   H     H_    0.625886 0.111471 0.959440 0.258087
H30   H     H_    0.717228 0.281580 0.908927 0.248393
H31   H     H_    0.794515 0.205563 0.929967 0.242643
C67   C     C_3   0.237940 0.748114 0.053906 -0.318443
C68   C     C_3   0.314898 0.827289 0.014573 -0.885709
H32   H     H_    0.354002 0.790123 0.997616 0.261361
H33   H     H_    0.277595 0.867856 0.977480 0.260512
H34   H     H_    0.372808 0.885293 0.040888 0.258258
H35   H     H_    0.204265 0.791085 0.070440 0.242707
H36   H     H_    0.281599 0.715120 0.091385 0.248435
O13   O     O_3   0.853871 0.551242 0.763889 -0.713607
H37   H     H_    0.809368 0.567469 0.728331 0.319176
O14   O     O_3   0.142457 0.442410 0.236706 -0.713306
H38   H     H_    0.186393 0.425435 0.272344 0.319756
C69   C     C_3   0.047653 0.844209 0.520717 -0.385356
C70   C     C_3   0.983125 0.869307 0.464020 -0.804923
H39   H     H_    0.983634 0.829820 0.428984 0.257379
H40   H     H_    0.904181 0.844371 0.472357 0.233784
H41   H     H_    0.012766 0.953235 0.448425 0.244411
H42   H     H_    0.011413 0.763555 0.541440 0.220457
H43   H     H_    0.050103 0.890274 0.553282 0.185146
C71   C     C_3   0.955705 0.143400 0.501057 -0.401626
C72   C     C_3   0.982420 0.196023 0.439383 -0.765641
H44   H     H_    0.934851 0.144903 0.406583 0.244083
H45   H     H_    0.970541 0.269017 0.426798 0.257309
H46   H     H_    0.062900 0.212640 0.438111 0.232883
H47   H     H_    0.009493 0.187353 0.535390 0.214482
H48   H     H_    0.967073 0.070002 0.509831 0.187411

loop_
_geom_bond_atom_site_label_1
_geom_bond_atom_site_label_2
_ccdc_geom_bond_type
C18   H4    S    
C72   H46   S    
C17   H3    S    
C64   C67   S    
Cu2   O6    S    
Cu1   O5    S    
C45   N1    A    
C70   H39   S    
C1    O3    A    
C72   H44   S    
C39   C41   A    
C27   C33   A    
C19   C71   S    
C15   C19   A    
C59   C64   A    
C67   H36   S    
C4    O14   S    
C60   C63   A    
C35   C37   A    
C29   C32   A    
C52   H8    S    
C68   H33   S    
C71   H48   S    
C30   C31   A    
C5    H17   S    
C57   C59   A    
C58   C60   A    
C55   C61   A    
C67   C68   S    
C37   N3    A    
C72   H45   S    
C49   H15   S    
C61   C63   A    
C61   H1    S    
C69   H42   S    
C62   C64   A    
C9    H19   S    
C66   H27   S    
Cu1   N4    S    
C23   O7    A    
C3    O13   S    
C49   C51   A    
C50   C52   A    
C22   H25   S    
C31   C33   A    
C1    C15   S    
C2    C16   S    
C14   N1    S    
C24   O6    A    
C3    C13   A    
C44   C52   A    
C31   H5    S    
C28   C34   A    
C41   C43   A    
C42   C44   A    
C40   N4    A    
C45   O9    S    
C47   C50   A    
C53   C55   A    
C25   C29   A    
C54   C56   A    
C6    H18   S    
C67   H35   S    
C12   H22   S    
C53   N1    A    
C17   C27   A    
C69   H43   S    
O13   H37   S    
C18   C28   A    
C20   C69   S    
C4    C6    A    
C36   H14   S    
C68   H34   S    
C1    O1    A    
C71   H47   S    
C5    C7    A    
C6    C8    A    
C24   O8    A    
C32   C34   A    
Cu2   O3    S    
C63   C65   S    
C34   H24   S    
C29   C30   A    
C33   H23   S    
C53   O11   S    
C47   C48   A    
C46   N2    A    
C16   C20   A    
C41   C47   A    
C42   C48   A    
C39   H10   S    
C9    C11   A    
C66   H29   S    
C39   N3    A    
C10   C12   A    
C65   H30   S    
C48   C49   A    
C12   C14   A    
C26   C30   A    
C55   C57   A    
O14   H38   S    
C56   C62   A    
C36   C44   A    
C69   C70   S    
C70   H41   S    
C35   C43   A    
C50   H16   S    
C7    C9    A    
C21   C25   A    
C45   C59   A    
C16   C22   A    
C46   C60   A    
Cu2   O7    S    
C51   H7    S    
Cu1   O4    S    
C3    C5    A    
C70   H40   S    
C11   H21   S    
C71   C72   S    
C38   H11   S    
C54   O12   S    
C25   C27   A    
C37   H12   S    
C26   C28   A    
C40   H9    S    
C62   H2    S    
C13   N2    S    
Cu2   O2    S    
C36   C38   A    
Cu1   O1    S    
C65   C66   S    
C11   C13   A    
C10   H20   S    
C57   C58   A    
C23   O5    A    
C43   C51   A    
C7    C23   S    
C46   O10   S    
C40   C42   A    
C17   C19   A    
C56   C58   A    
C18   C20   A    
C4    C14   A    
C66   H28   S    
C54   N2    A    
C65   H31   S    
C2    O4    A    
C15   C21   A    
C8    C24   S    
C2    O2    A    
C8    C10   A    
Cu1   Cu2   S    
C22   C26   A    
C38   N4    A    
C35   H13   S    
Cu1   O8    S    
C68   H32   S    
Cu2   N3    S    
C32   H6    S    
C21   H26   S    
