data_mof_unit_14131.cif
_audit_creation_date              2012-12-10T17:36:47-0500
_audit_creation_method            fapswitch 2.2
_symmetry_space_group_name_H-M    P1
_symmetry_Int_Tables_number       1
_space_group_crystal_system       triclinic
_cell_length_a                    10.621469
_cell_length_b                    12.320461
_cell_length_c                    13.202697
_cell_angle_alpha                 116.277557
_cell_angle_beta                  77.380736
_cell_angle_gamma                 101.322628
_cell_volume                      1501.92913067

loop_
_atom_site_label
_atom_site_type_symbol
_atom_type_description
_atom_site_fract_x
_atom_site_fract_y
_atom_site_fract_z
_atom_type_partial_charge
C1    C     C_R   0.513393 0.854638 0.286247 0.851571
C2    C     C_3   0.013451 0.986436 0.588616 0.514528
C3    C     C_3   0.935301 0.891260 0.495868 -0.143802
C4    C     C_3   0.877241 0.996866 0.497042 -0.036063
C5    C     C_R   0.381193 0.267448 0.031474 -0.167682
C6    C     C_R   0.465726 0.227116 0.834730 -0.064371
C7    C     C_R   0.607662 0.815109 0.084799 0.372573
C8    C     C_R   0.651671 0.732830 0.975379 -0.307900
C9    C     C_R   0.619494 0.608024 0.941132 0.386199
C10   C     C_R   0.525331 0.562303 0.012561 -0.007005
C11   C     C_R   0.478905 0.645903 0.124368 -0.060633
C12   C     C_R   0.740540 0.998428 0.498195 0.830160
C13   C     C_R   0.480237 0.436238 0.979384 0.046182
C14   C     C_R   0.410062 0.393431 0.061730 0.111698
C15   C     C_R   0.360691 0.476507 0.169632 0.416043
C16   C     C_R   0.386919 0.600928 0.196080 -0.240831
C17   C     C_R   0.496398 0.351914 0.865430 -0.197617
C18   C     C_R   0.411861 0.184582 0.918818 -0.239352
C19   C     C_R   0.528360 0.771780 0.163018 -0.156468
C20   C     C_R   0.697156 0.339838 0.318433 -0.256137
C21   C     C_R   0.327300 0.760436 0.647983 0.075862
C22   C     C_R   0.290909 0.664215 0.680486 -0.267524
C23   C     C_R   0.482266 0.144862 0.713308 0.779031
C24   C     C_R   0.355644 0.560213 0.623963 -0.181332
C25   C     C_R   0.458484 0.551012 0.533411 0.014367
C26   C     C_R   0.492510 0.652355 0.503819 0.216590
C27   C     C_R   0.529058 0.446082 0.471892 -0.074622
C28   C     C_R   0.628232 0.442468 0.378525 0.038976
C29   C     C_R   0.657439 0.542059 0.348481 0.392177
C30   C     C_R   0.594709 0.645760 0.414623 -0.265067
C31   C     C_R   0.504817 0.343284 0.498562 0.072011
C32   C     C_R   0.669797 0.243516 0.350404 0.030284
C33   C     C_R   0.259643 0.999568 0.498955 0.792972
C34   C     C_3   0.985742 0.008439 0.403132 -0.109741
C35   C     C_3   0.046433 0.903445 0.402419 -0.210406
C36   C     C_3   0.122938 0.998194 0.496629 -0.052101
C37   C     C_3   0.064201 0.103355 0.497559 -0.204872
C38   C     C_3   0.953005 0.092074 0.591692 -0.308010
Cu1   Cu    Cu3+1 0.529830 0.098270 0.475420 0.947050
Cu2   Cu    Cu3+1 0.470170 0.901730 0.524580 0.934705
H1    H     H_    0.087443 0.826814 0.325403 0.155995
H2    H     H_    0.523755 0.382726 0.798350 0.213070
H3    H     H_    0.721169 0.765823 0.918976 0.172278
H4    H     H_    0.334667 0.660955 0.274522 0.167618
H5    H     H_    0.723437 0.165255 0.304234 0.159247
H6    H     H_    0.773202 0.332843 0.247421 0.210081
H7    H     H_    0.430471 0.338041 0.566735 0.111982
H8    H     H_    0.276481 0.840674 0.692259 0.149682
H9    H     H_    0.970669 0.017526 0.326751 0.144328
H10   H     H_    0.322618 0.488526 0.652542 0.132882
H11   H     H_    0.212094 0.670347 0.749661 0.146218
H12   H     H_    0.629064 0.720567 0.393091 0.254947
H13   H     H_    0.119965 0.189433 0.497177 0.154247
H14   H     H_    0.909796 0.168495 0.667131 0.143634
H15   H     H_    0.878082 0.806019 0.496925 0.154483
H16   H     H_    0.386330 0.088062 0.896618 0.154046
H17   H     H_    0.331063 0.232634 0.093674 0.171302
N1    N     N_R   0.575030 0.246270 0.438190 -0.180571
N2    N     N_R   0.425760 0.754330 0.561190 -0.204544
O1    O     O_R   0.537510 0.972500 0.318130 -0.545196
O2    O     O_R   0.487140 0.806530 0.359650 -0.607098
O3    O     O_R   0.708330 0.082950 0.479220 -0.579772
O4    O     O_R   0.657960 0.916980 0.520740 -0.604940
O5    O     O_R   0.512860 0.193470 0.640350 -0.592426
O6    O     O_R   0.462490 0.027500 0.681870 -0.591736
O7    O     O_R   0.342040 0.083020 0.479260 -0.600297
O8    O     O_R   0.291670 0.917050 0.520780 -0.570386
O9    O     O_3   0.662234 0.935224 0.120893 -0.597201
C39   C     C_3   0.615129 0.995053 0.069081 0.056923
H18   H     H_    0.548625 0.059806 0.135529 0.170085
H19   H     H_    0.559641 0.933465 0.997433 0.123292
C40   C     C_3   0.730084 0.065885 0.023992 -0.378451
H20   H     H_    0.788784 0.125019 0.093066 0.223207
H21   H     H_    0.792455 0.000261 0.953768 0.204570
C41   C     C_3   0.685027 0.144546 0.979642 -0.843437
H22   H     H_    0.638097 0.085870 0.902700 0.246164
H23   H     H_    0.769215 0.202592 0.956399 0.263619
H24   H     H_    0.615638 0.204970 0.046919 0.294325
O10   O     O_3   0.685960 0.533516 0.838709 -0.630189
C42   C     C_3   0.803179 0.514223 0.858782 0.064612
H25   H     H_    0.782366 0.455554 0.906211 0.190945
H26   H     H_    0.859302 0.602018 0.908539 0.138260
C43   C     C_3   0.886525 0.450298 0.743937 -0.319519
H27   H     H_    0.833719 0.361136 0.693802 0.228528
H28   H     H_    0.904801 0.507019 0.694998 0.228722
C44   C     C_3   0.016340 0.429771 0.760149 -0.960540
H29   H     H_    0.071327 0.518008 0.808800 0.257694
H30   H     H_    0.075003 0.383515 0.675585 0.253076
H31   H     H_    0.999900 0.371927 0.807512 0.267311
S1    S     S_3+6 0.767539 0.540342 0.225088 -0.068049
O11   O     O_2   0.900112 0.521007 0.231782 -0.362202
O12   O     O_2   0.719644 0.437768 0.121178 -0.343854
O13   O     O_3   0.778163 0.672272 0.212854 -0.565409
H32   H     H_    0.824494 0.656302 0.134745 0.360776
O14   O     O_3   0.037516 0.961220 0.676867 -0.622324
C45   C     C_3   0.007694 0.056392 0.785288 0.028903
H33   H     H_    0.998536 0.018798 0.849310 0.167960
H34   H     H_    0.912508 0.087832 0.796177 0.140124
C46   C     C_3   0.117518 0.161570 0.809759 -0.382687
H35   H     H_    0.209563 0.124365 0.796218 0.231011
H36   H     H_    0.127919 0.204500 0.749712 0.207792
C47   C     C_3   0.093345 0.258176 0.932238 -0.871399
H37   H     H_    0.999400 0.294128 0.948865 0.267989
H38   H     H_    0.172196 0.334937 0.945828 0.260235
H39   H     H_    0.091805 0.218984 0.993847 0.252122
O15   O     O_3   0.293966 0.435185 0.251099 -0.628398
C48   C     C_3   0.165857 0.468081 0.288571 0.038039
H40   H     H_    0.097607 0.382874 0.263850 0.173038
H41   H     H_    0.140763 0.523944 0.250045 0.169541
C49   C     C_3   0.145527 0.536594 0.418718 -0.329751
H42   H     H_    0.168759 0.479956 0.456910 0.232536
H43   H     H_    0.212247 0.622594 0.443515 0.234268
C50   C     C_3   0.006328 0.567036 0.466196 -0.851789
H44   H     H_    0.982504 0.626472 0.431597 0.282344
H45   H     H_    0.995875 0.616443 0.560684 0.248584
H46   H     H_    0.937233 0.482432 0.443540 0.258091

loop_
_geom_bond_atom_site_label_1
_geom_bond_atom_site_label_2
_ccdc_geom_bond_type
O13   H32   S    
C34   C37   S    
C32   H5    S    
C35   C36   S    
C8    H3    S    
C32   N1    A    
C7    C8    A    
Cu1   O5    S    
C11   C19   A    
C37   C38   S    
Cu2   O4    S    
C31   N1    A    
C28   C29   A    
C21   N2    A    
C42   C43   S    
C20   C32   A    
C42   H25   S    
C44   H30   S    
O15   C48   S    
Cu1   O1    S    
C15   C16   A    
C45   C46   S    
C33   C36   S    
C47   H39   S    
C34   C35   S    
C9    O10   S    
C39   H19   S    
C49   H42   S    
C7    O9    S    
C17   H2    S    
C3    H15   S    
C43   H27   S    
O9    C39   S    
Cu2   O8    S    
C45   H34   S    
C48   H40   S    
C4    C12   S    
C26   N2    A    
C16   H4    S    
C18   H16   S    
C21   H8    S    
C37   H13   S    
Cu2   N2    S    
C31   H7    S    
C21   C22   A    
C48   H41   S    
C47   H37   S    
C40   C41   S    
C29   S1    S    
C33   O7    A    
C24   H10   S    
C6    C18   A    
C4    C34   S    
C1    C19   S    
C27   C31   A    
C24   C25   A    
C42   H26   S    
C1    O1    A    
Cu1   Cu2   S    
C12   O4    A    
C44   H29   S    
C8    C9    A    
C5    C18   A    
C20   C28   A    
C25   C26   A    
Cu1   N1    S    
C10   C13   A    
Cu2   O2    S    
C39   C40   S    
C41   H22   S    
C29   C30   A    
C12   O3    A    
C11   C16   A    
C2    C38   S    
S1    O12   D    
C46   H35   S    
C38   H14   S    
C3    C35   S    
C45   H33   S    
C43   C44   S    
C47   H38   S    
C41   H23   S    
C49   C50   S    
C5    C14   A    
C40   H21   S    
C23   O5    A    
C43   H28   S    
C4    C38   S    
C26   C30   A    
C7    C19   A    
Cu2   O6    S    
Cu1   O7    S    
C22   C24   A    
C3    C4    S    
C15   O15   S    
S1    O13   S    
C50   H44   S    
C9    C10   A    
C2    C36   S    
C6    C17   A    
C30   H12   S    
C36   C37   S    
C34   H9    S    
C46   H36   S    
C40   H20   S    
C44   H31   S    
C1    O2    A    
C5    H17   S    
C25   C27   A    
C13   C17   A    
C50   H46   S    
C2    C3    S    
O14   C45   S    
C33   O8    A    
C23   O6    A    
S1    O11   D    
C6    C23   S    
C48   C49   S    
C39   H18   S    
C35   H1    S    
C41   H24   S    
C49   H43   S    
C10   C11   A    
O10   C42   S    
C46   C47   S    
C27   C28   A    
Cu1   O3    S    
C14   C15   A    
C2    O14   S    
C13   C14   A    
C20   H6    S    
C22   H11   S    
C50   H45   S    
