data_mof_unit_31717.cif
_audit_creation_date              2012-12-10T19:00:12-0500
_audit_creation_method            fapswitch 2.2
_symmetry_space_group_name_H-M    P1
_symmetry_Int_Tables_number       1
_space_group_crystal_system       triclinic
_cell_length_a                    9.538298
_cell_length_b                    10.836137
_cell_length_c                    13.483684
_cell_angle_alpha                 90.74061
_cell_angle_beta                  72.937879
_cell_angle_gamma                 89.704888
_cell_volume                      1332.14263164

loop_
_atom_site_label
_atom_site_type_symbol
_atom_type_description
_atom_site_fract_x
_atom_site_fract_y
_atom_site_fract_z
_atom_type_partial_charge
C1    C     C_R   0.499149 0.737672 0.501619 0.789339
C2    C     C_R   0.480561 0.568630 0.955472 0.076423
C3    C     C_R   0.465948 0.496388 0.871266 0.049885
C4    C     C_R   0.555891 0.517964 0.022720 0.024462
C5    C     C_R   0.653806 0.416146 0.983905 0.077723
C6    C     C_R   0.647202 0.348379 0.894537 0.076741
C7    C     C_R   0.542971 0.384244 0.845913 -0.201075
C8    C     C_R   0.530463 0.556765 0.129029 0.045461
C9    C     C_R   0.737733 0.426838 0.136393 -0.198275
C10   C     C_R   0.383238 0.542049 0.807995 -0.096577
C11   C     C_R   0.380813 0.937300 0.487612 0.101918
C12   C     C_R   0.422225 0.504080 0.699229 0.782027
C13   C     C_R   0.501415 0.870909 0.498086 -0.051361
C14   C     C_R   0.628723 0.935112 0.498901 -0.197188
C15   C     C_R   0.628886 0.063459 0.498744 -0.165047
C16   C     C_R   0.503809 0.129169 0.493961 -0.058092
C17   C     C_R   0.383679 0.064227 0.482006 0.085055
C18   C     C_3   0.225047 0.077577 0.541090 -0.475004
C19   C     C_3   0.222064 0.937712 0.550584 -0.188920
C20   C     C_R   0.943862 0.401576 0.459271 0.164137
C21   C     C_R   0.904216 0.590100 0.550175 -0.064070
C22   C     C_R   0.053052 0.589928 0.550273 -0.081247
C23   C     C_R   0.500474 0.262403 0.499650 0.817550
C24   C     C_R   0.091557 0.402272 0.458776 0.239894
C25   C     C_3   0.144212 0.354227 0.349942 -0.563237
C26   C     C_3   0.984638 0.353181 0.349998 -0.228762
C27   C     C_R   0.577224 0.506790 0.300292 0.811830
C28   C     C_R   0.752634 0.381071 0.037872 -0.198842
C29   C     C_R   0.619384 0.503179 0.186246 -0.079737
C30   C     C_R   0.307717 0.654534 0.833207 -0.151333
C31   C     C_R   0.336638 0.731838 0.907526 -0.124722
C32   C     C_R   0.431078 0.692467 0.962369 -0.216811
Cu1   Cu    Cu3+1 0.359330 0.500020 0.500010 0.939855
Cu2   Cu    Cu3+1 0.640670 0.499980 0.499990 0.952219
H1    H     H_    0.809448 0.390308 0.178044 0.195932
H2    H     H_    0.724187 0.110763 0.507350 0.145237
H3    H     H_    0.207797 0.130079 0.615261 0.214605
H4    H     H_    0.158845 0.111740 0.491507 0.164977
H5    H     H_    0.150476 0.892399 0.509343 0.107650
H6    H     H_    0.831932 0.664299 0.589248 0.137901
H7    H     H_    0.092184 0.663625 0.589434 0.119058
H8    H     H_    0.210274 0.421779 0.295036 0.210675
H9    H     H_    0.196944 0.261690 0.345268 0.187340
H10   H     H_    0.959986 0.419734 0.295151 0.183059
H11   H     H_    0.837257 0.312116 0.007752 0.149542
H12   H     H_    0.244381 0.690393 0.785062 0.158137
H13   H     H_    0.464601 0.759973 0.009907 0.159277
H14   H     H_    0.292726 0.825007 0.918378 0.171781
H15   H     H_    0.525640 0.328094 0.783968 0.135615
H16   H     H_    0.725844 0.886944 0.504497 0.148985
N1    N     N_R   0.852320 0.499070 0.499340 -0.188272
N2    N     N_R   0.148230 0.499110 0.499340 -0.177208
O1    O     O_R   0.381190 0.680360 0.500000 -0.594172
O2    O     O_R   0.618780 0.680320 0.499990 -0.592693
O3    O     O_R   0.323230 0.500000 0.650990 -0.583796
O4    O     O_R   0.560820 0.499960 0.650980 -0.572762
O5    O     O_R   0.381220 0.319680 0.500010 -0.577649
O6    O     O_R   0.618810 0.319640 0.500000 -0.583001
O7    O     O_R   0.439180 0.500040 0.349020 -0.586095
O8    O     O_R   0.676770 0.500000 0.349010 -0.577120
C33   C     C_2   0.194067 0.896391 0.661098 0.371032
H17   H     H_    0.098659 0.840961 0.696526 0.041065
O9    O     O_2   0.274257 0.927894 0.712641 -0.561922
C34   C     C_3   0.745977 0.235231 0.855842 -0.404229
C35   C     C_3   0.727777 0.167431 0.759291 -0.343351
C36   C     C_3   0.834541 0.058598 0.727809 -0.858401
H18   H     H_    0.949044 0.091020 0.711530 0.257022
H19   H     H_    0.812347 0.989750 0.790730 0.258194
H20   H     H_    0.821863 0.013226 0.656673 0.234333
H21   H     H_    0.614514 0.131216 0.775887 0.232323
H22   H     H_    0.749326 0.231942 0.693098 0.224033
H23   H     H_    0.861898 0.265641 0.836896 0.199242
H24   H     H_    0.725514 0.167890 0.919966 0.205025
C37   C     C_2   0.929086 0.224999 0.342636 0.415951
H25   H     H_    0.956186 0.151285 0.387822 0.040899
O10   O     O_2   0.854285 0.202417 0.285274 -0.563549
C38   C     C_3   0.403416 0.644602 0.184801 -0.416018
C39   C     C_3   0.459888 0.768328 0.214319 -0.336116
C40   C     C_3   0.336279 0.863818 0.248566 -0.840023
H26   H     H_    0.288002 0.881849 0.184471 0.251877
H27   H     H_    0.249299 0.830442 0.317043 0.252474
H28   H     H_    0.380186 0.951763 0.269752 0.246030
H29   H     H_    0.508506 0.754589 0.278789 0.210372
H30   H     H_    0.547311 0.805072 0.147719 0.214768
H31   H     H_    0.322475 0.658259 0.142186 0.197863
H32   H     H_    0.327964 0.604805 0.254417 0.219879

loop_
_geom_bond_atom_site_label_1
_geom_bond_atom_site_label_2
_ccdc_geom_bond_type
C24   N2    A    
C23   O6    A    
C36   H19   S    
Cu1   O3    S    
C27   C29   S    
C4    C8    A    
C25   H9    S    
C26   H10   S    
C38   C39   S    
Cu1   N2    S    
Cu2   O4    S    
C11   C19   S    
Cu2   N1    S    
C37   O10   D    
C8    C29   A    
C19   H5    S    
C18   H3    S    
C20   N1    A    
C3    C7    A    
C27   O8    A    
C5    C6    A    
C22   H7    S    
C15   C16   A    
C2    C32   A    
C18   C19   S    
C6    C34   S    
C33   O9    D    
C1    O1    A    
C39   H29   S    
C20   C24   A    
C16   C17   A    
C34   H24   S    
C9    C29   A    
C36   H18   S    
C38   H31   S    
Cu1   O7    S    
C13   C14   A    
Cu2   O8    S    
Cu1   Cu2   S    
Cu1   O1    S    
C28   H11   S    
C37   H25   S    
C24   C25   S    
C7    H15   S    
C40   H27   S    
C39   C40   S    
C25   C26   S    
C35   H22   S    
C2    C4    A    
C1    O2    A    
C5    C28   A    
C10   C30   A    
C31   C32   A    
C30   C31   A    
C17   C18   S    
Cu2   O6    S    
C12   O4    A    
C10   C12   S    
C38   H32   S    
Cu2   O2    S    
C16   C23   S    
C31   H14   S    
C8    C38   S    
C32   H13   S    
C1    C13   S    
C15   H2    S    
C21   N1    A    
C22   N2    A    
C23   O5    A    
C11   C17   A    
Cu1   O5    S    
C30   H12   S    
C4    C5    A    
C25   H8    S    
C40   H28   S    
C6    C7    A    
C34   C35   S    
C2    C3    A    
C18   H4    S    
C3    C10   A    
C27   O7    A    
C11   C13   A    
C14   H16   S    
C21   H6    S    
C20   C26   S    
C19   C33   S    
C26   C37   S    
C34   H23   S    
C33   H17   S    
C12   O3    A    
C40   H26   S    
C36   H20   S    
C39   H30   S    
C35   C36   S    
C9    H1    S    
C14   C15   A    
C21   C22   A    
C35   H21   S    
C9    C28   A    
