data_mof_unit_63452.cif
_audit_creation_date              2012-10-26T20:48:01-0400
_audit_creation_method            fapswitch 2.2
_symmetry_space_group_name_H-M    P1
_symmetry_Int_Tables_number       1
_space_group_crystal_system       triclinic
_cell_length_a                    15.121472
_cell_length_b                    13.927042
_cell_length_c                    10.790877
_cell_angle_alpha                 89.617217
_cell_angle_beta                  91.560303
_cell_angle_gamma                 89.371767
_cell_volume                      2271.49584022

loop_
_atom_site_label
_atom_site_type_symbol
_atom_type_description
_atom_site_fract_x
_atom_site_fract_y
_atom_site_fract_z
_atom_type_partial_charge
Br1   Br    Br    0.650628 0.636980 0.141172 -0.454623
Br2   Br    Br    0.352693 0.365544 0.126377 -0.437839
Br3   Br    Br    0.666295 0.253411 0.643457 -0.377553
Br4   Br    Br    0.635063 0.735261 0.694851 -0.473292
Br5   Br    Br    0.686242 0.426080 0.877958 -0.368821
Br6   Br    Br    0.524060 0.285876 0.891406 -0.344060
Br7   Br    Br    0.240755 0.642595 0.295146 -0.519691
Br8   Br    Br    0.246423 0.353534 0.693977 -0.445618
C1    C     C_R   0.330012 0.500339 0.499279 0.593431
C2    C     C_R   0.904872 0.586287 0.502128 -0.090202
C3    C     C_R   0.814009 0.413298 0.478231 -0.082097
C4    C     C_R   0.813042 0.586190 0.504614 -0.073157
C5    C     C_R   0.766897 0.499520 0.494020 0.041946
C6    C     C_R   0.951651 0.499752 0.489773 0.029649
C7    C     C_R   0.566439 0.103219 0.545352 -0.087348
C8    C     C_R   0.544445 0.893673 0.584508 -0.092210
C9    C     C_R   0.500637 0.500360 0.260171 0.583615
C10   C     C_R   0.567346 0.203401 0.552383 0.330377
C11   C     C_R   0.549992 0.793289 0.582823 0.307251
C12   C     C_3   0.565007 0.415166 0.935486 0.293536
C13   C     C_R   0.430438 0.213066 0.442672 0.067827
C14   C     C_R   0.447455 0.789014 0.414190 0.054579
C15   C     C_R   0.425608 0.111654 0.439438 -0.116894
C16   C     C_R   0.443571 0.890390 0.409384 -0.123620
C17   C     C_R   0.494351 0.054297 0.492370 -0.000815
C18   C     C_R   0.492873 0.945219 0.495468 0.000352
C19   C     C_R   0.670150 0.499678 0.498247 0.586891
C20   C     C_R   0.502407 0.499466 0.740492 0.588004
C21   C     C_3   0.534920 0.599019 0.072127 -0.008778
C22   C     C_3   0.407300 0.483651 0.067599 0.002840
C23   C     C_R   0.093216 0.561620 0.413277 -0.075291
C24   C     C_3   0.537156 0.596249 0.929742 -0.223468
C25   C     C_3   0.408290 0.485025 0.924283 -0.227946
C26   C     C_3   0.566494 0.420907 0.078649 -0.156469
C27   C     C_3   0.502466 0.500616 0.122792 -0.010563
C28   C     C_3   0.503844 0.498050 0.879199 -0.023917
C29   C     C_R   0.095666 0.437677 0.571881 -0.078379
C30   C     C_R   0.185245 0.561978 0.414634 0.142276
C31   C     C_R   0.187662 0.437931 0.575752 0.123606
C32   C     C_R   0.233372 0.500645 0.497157 0.042346
C33   C     C_R   0.048319 0.499598 0.491443 -0.035765
C34   C     C_R   0.905924 0.413308 0.477333 -0.087368
Cu1   Cu    Cu3+1 0.499990 0.596430 0.500000 1.061834
Cu2   Cu    Cu3+1 0.499990 0.403570 0.500000 1.099809
H1    H     H_    0.780114 0.345949 0.465841 0.170177
H2    H     H_    0.379586 0.418263 0.885738 0.243065
H3    H     H_    0.634415 0.434645 0.115696 0.174569
H4    H     H_    0.548531 0.350614 0.119631 0.193175
H5    H     H_    0.056539 0.608355 0.349223 0.168720
H6    H     H_    0.060900 0.390244 0.633406 0.171756
H7    H     H_    0.941403 0.346096 0.465790 0.139449
H8    H     H_    0.939531 0.653586 0.512101 0.137505
H9    H     H_    0.623665 0.064501 0.582231 0.137538
H10   H     H_    0.581723 0.930185 0.656401 0.145132
H11   H     H_    0.487533 0.656560 0.098866 0.157565
H12   H     H_    0.778419 0.653920 0.515518 0.181689
H13   H     H_    0.363277 0.543001 0.098096 0.173476
H14   H     H_    0.377337 0.255009 0.399604 0.178569
H15   H     H_    0.409065 0.748474 0.347313 0.172612
H16   H     H_    0.367867 0.079125 0.396754 0.129264
H17   H     H_    0.403214 0.924889 0.337406 0.128222
H18   H     H_    0.494945 0.656175 0.891921 0.155448
H19   H     H_    0.365356 0.545053 0.888435 0.124749
H20   H     H_    0.605221 0.609103 0.898427 0.244922
N1    N     N_R   0.500020 0.258690 0.500000 -0.223453
N2    N     N_R   0.500020 0.741310 0.500000 -0.220923
O1    O     O_R   0.371450 0.581430 0.500010 -0.488043
O2    O     O_R   0.371450 0.418570 0.500010 -0.481674
O3    O     O_R   0.499980 0.581440 0.317690 -0.490837
O4    O     O_R   0.499980 0.418560 0.317690 -0.498518
O5    O     O_R   0.628540 0.581440 0.499990 -0.464896
O6    O     O_R   0.628540 0.418560 0.499990 -0.480479
O7    O     O_R   0.500010 0.581440 0.682310 -0.492912
O8    O     O_R   0.500010 0.418560 0.682310 -0.420251

loop_
_geom_bond_atom_site_label_1
_geom_bond_atom_site_label_2
_ccdc_geom_bond_type
Cu1   O7    S    
C7    C10   A    
C9    O3    A    
C16   H17   S    
C20   O8    A    
Br5   C12   S    
C10   N1    A    
C22   C27   S    
Br3   C10   S    
C7    H9    S    
C16   C18   A    
C21   C24   S    
C8    C11   A    
C7    C17   A    
C22   H13   S    
C25   C28   S    
C11   N2    A    
C26   C27   S    
C14   N2    A    
C3    C34   A    
Br4   C11   S    
Cu2   O4    S    
Br8   C31   S    
C34   H7    S    
C6    C34   A    
C12   C26   S    
C2    H8    S    
C9    O4    A    
Cu1   O3    S    
C25   H2    S    
Cu2   N1    S    
C23   H5    S    
C20   O7    A    
C8    C18   A    
C15   H16   S    
C24   H20   S    
C2    C6    A    
C31   C32   A    
C21   H11   S    
C17   C18   S    
C1    C32   S    
Cu1   Cu2   S    
C1    O1    A    
C25   H19   S    
Br1   C21   S    
Cu2   O8    S    
C4    H12   S    
C2    C4    A    
C6    C33   S    
C13   C15   A    
C14   C16   A    
C3    H1    S    
C26   H4    S    
C24   C28   S    
C14   H15   S    
C19   O5    A    
Cu1   O5    S    
C23   C33   A    
C22   C25   S    
C13   N1    A    
Br6   C12   S    
C21   C27   S    
C23   C30   A    
Br2   C22   S    
C1    O2    A    
C24   H18   S    
C13   H14   S    
C29   C31   A    
C30   C32   A    
C29   H6    S    
C3    C5    A    
Cu1   N2    S    
Br7   C30   S    
Cu2   O6    S    
C15   C17   A    
C29   C33   A    
C8    H10   S    
Cu2   O2    S    
C12   C28   S    
C4    C5    A    
C20   C28   S    
Cu1   O1    S    
C5    C19   S    
C26   H3    S    
C9    C27   S    
C19   O6    A    
