data_mof_unit_22055.cif
_audit_creation_date              2012-12-11T15:49:42-0500
_audit_creation_method            fapswitch 2.2
_symmetry_space_group_name_H-M    P1
_symmetry_Int_Tables_number       1
_space_group_crystal_system       triclinic
_cell_length_a                    8.298951
_cell_length_b                    19.038789
_cell_length_c                    26.974383
_cell_angle_alpha                 95.53707
_cell_angle_beta                  93.010409
_cell_angle_gamma                 85.328525
_cell_volume                      4223.74068948

loop_
_atom_site_label
_atom_site_type_symbol
_atom_type_description
_atom_site_fract_x
_atom_site_fract_y
_atom_site_fract_z
_atom_type_partial_charge
Ba1   Ba    Ba6+2 0.854000 0.466860 0.523710 1.903722
Ba2   Ba    Ba6+2 0.335820 0.533080 0.476290 1.886621
C1    C     C_3   0.544958 0.231654 0.669106 -0.263212
C2    C     C_R   0.960755 0.575926 0.182184 0.604423
C3    C     C_2   0.772295 0.555982 0.272589 -0.084918
C4    C     C_3   0.100269 0.314248 0.659112 0.311715
C5    C     C_3   0.748696 0.575109 0.327663 -0.127986
C6    C     C_1   0.983454 0.490989 0.343458 0.054312
C7    C     C_2   0.020803 0.485014 0.295540 0.571663
C8    C     C_2   0.908470 0.517802 0.257026 0.181553
C9    C     C_R   0.028141 0.508642 0.103245 -0.082012
C10   C     C_R   0.021068 0.445794 0.126449 -0.069005
C11   C     C_R   0.050889 0.380863 0.097994 -0.045981
C12   C     C_3   0.591007 0.293993 0.643060 0.949079
C13   C     C_R   0.996017 0.574049 0.131327 -0.023833
C14   C     C_2   0.855436 0.529934 0.360861 -0.285790
C15   C     C_2   0.341146 0.480569 0.642537 -0.194555
C16   C     C_3   0.066726 0.292870 0.710251 0.507935
C17   C     C_R   0.160935 0.438677 0.974533 -0.062480
C18   C     C_R   0.086189 0.566890 0.975982 0.046338
C19   C     C_R   0.141239 0.501779 0.949721 -0.008133
C20   C     C_R   0.235813 0.377224 0.948314 0.572577
C21   C     C_R   0.274669 0.376861 0.898508 -0.057264
C22   C     C_R   0.244813 0.437334 0.872655 -0.129984
C23   C     C_3   0.532639 0.651793 0.629575 1.273545
C24   C     C_R   0.178684 0.500093 0.898302 -0.090364
C25   C     C_R   0.151460 0.561435 0.872681 -0.012335
C26   C     C_R   0.188279 0.558962 0.821809 0.588314
C27   C     C_R   0.283554 0.436702 0.821994 0.705635
C28   C     C_3   0.160042 0.311335 0.414695 0.799530
C29   C     C_2   0.448115 0.480115 0.730409 -0.160092
C30   C     C_3   0.488966 0.486849 0.676823 0.030589
C31   C     C_1   0.204816 0.513112 0.657865 0.030322
C32   C     C_2   0.166141 0.515084 0.705329 -0.070604
C33   C     C_2   0.293753 0.496068 0.744683 0.248814
C34   C     C_3   0.573137 0.675237 0.684020 -0.241047
C35   C     C_R   0.109020 0.440175 0.024623 0.033836
C36   C     C_R   0.066642 0.506191 0.051863 0.053137
C37   C     C_R   0.060993 0.569843 0.028137 0.020994
C38   C     C_R   0.092640 0.378056 0.048279 -0.024964
C39   C     C_R   0.000508 0.636581 0.108110 -0.023965
C40   C     C_3   0.072910 0.243476 0.407312 -0.162355
C41   C     C_R   0.057279 0.627077 0.948909 -0.091156
C42   C     C_R   0.088470 0.624220 0.898478 -0.051586
C43   C     C_R   0.031071 0.634635 0.057700 -0.096249
C44   C     C_R   0.400790 0.298592 0.521947 0.302853
C45   C     C_3   0.996428 0.709246 0.339598 0.298698
C46   C     C_R   0.540283 0.276126 0.496605 0.090693
C47   C     C_R   0.588786 0.203503 0.489384 0.529842
C48   C     C_R   0.496336 0.153250 0.507540 -0.043195
C49   C     C_R   0.352604 0.177006 0.531699 -0.287067
C50   C     C_R   0.303748 0.249460 0.537849 -0.061739
C51   C     C_R   0.553339 0.034264 0.540305 -0.073661
C52   C     C_3   0.011526 0.683532 0.581510 0.349269
C53   C     C_R   0.602632 0.961993 0.533647 -0.144774
C54   C     C_R   0.645249 0.929643 0.486504 0.002088
C55   C     C_R   0.636008 0.971383 0.445949 0.662075
C56   C     C_3   0.974354 0.752951 0.295098 -0.257605
C57   C     C_R   0.587558 0.043877 0.452799 -0.040237
C58   C     C_R   0.546481 0.076156 0.500071 0.030412
C59   C     C_R   0.840569 0.826348 0.457025 0.691698
C60   C     C_R   0.889715 0.753621 0.454757 -0.023270
C61   C     C_R   0.653412 0.732115 0.497976 0.066727
C62   C     C_R   0.603968 0.804405 0.501109 -0.130235
C63   C     C_R   0.695486 0.852372 0.480142 0.021521
C64   C     C_3   0.995559 0.762847 0.597055 0.375601
C65   C     C_R   0.792005 0.706893 0.473180 -0.274631
C66   C     C_3   0.644248 0.372753 0.370513 0.787099
C67   C     C_3   0.512386 0.716101 0.330936 0.890961
C68   C     C_3   0.571030 0.355786 0.318026 1.164792
C69   C     C_3   0.428485 0.777264 0.304696 0.515830
C70   C     C_R   0.980218 0.449216 0.177196 0.711280
F1    F     F_    0.699318 0.269203 0.606896 -0.720358
F2    F     F_    0.398457 0.756072 0.254787 -0.701513
F3    F     F_    0.162356 0.449931 0.281028 -0.649730
F4    F     F_    0.286349 0.318328 0.970990 -0.700137
F5    F     F_    0.724187 0.181924 0.464187 -0.686610
F6    F     F_    0.668922 0.941730 0.399424 -0.656331
F7    F     F_    0.938685 0.871650 0.440153 -0.651842
F8    F     F_    0.353134 0.368492 0.527834 -0.719632
F9    F     F_    0.322862 0.292260 0.415045 -0.784838
F10   F     F_    0.987153 0.800892 0.555953 -0.756329
F11   F     F_    0.806181 0.378085 0.366936 -0.761394
F12   F     F_    0.625272 0.288133 0.299538 -0.619973
F13   F     F_    0.615802 0.403201 0.286508 -0.677004
F14   F     F_    0.367951 0.649230 0.623118 -0.756675
F15   F     F_    0.608116 0.585334 0.618416 -0.728469
F16   F     F_    0.050689 0.352376 0.743788 -0.692172
F17   F     F_    0.537008 0.738039 0.381039 -0.769928
H1    H     H_    0.114516 0.210804 0.373344 0.144054
H2    H     H_    0.460827 0.250522 0.699076 0.069996
H3    H     H_    0.029909 0.653167 0.326344 0.029012
H4    H     H_    0.877922 0.712948 0.357395 -0.043035
H5    H     H_    0.081762 0.743462 0.271860 0.184903
H6    H     H_    0.313093 0.796187 0.322141 0.067718
H7    H     H_    0.040903 0.331455 0.114032 0.150463
H8    H     H_    0.544677 0.468743 0.757887 0.111942
H9    H     H_    0.331386 0.328566 0.880330 0.159658
H10   H     H_    0.103587 0.326096 0.028587 0.175583
H11   H     H_    0.978826 0.687825 0.128866 0.140357
H12   H     H_    0.099266 0.212370 0.439939 0.063478
H13   H     H_    0.006090 0.677184 0.965450 0.076568
H14   H     H_    0.221933 0.334924 0.660512 -0.091549
H15   H     H_    0.043512 0.531242 0.715999 0.127156
H16   H     H_    0.838980 0.539474 0.400645 0.073067
H17   H     H_    0.341503 0.443072 0.609666 0.106012
H18   H     H_    0.497147 0.823472 0.521264 0.097517
H19   H     H_    0.952623 0.265825 0.708269 0.060715
H20   H     H_    0.579527 0.074651 0.420904 0.156897
H21   H     H_    0.276870 0.139276 0.544442 0.138949
H22   H     H_    0.831347 0.651184 0.472150 0.029126
H23   H     H_    0.102717 0.778055 0.620912 0.085309
H24   H     H_    0.167545 0.256320 0.723431 0.020524
H25   H     H_    0.127516 0.339812 0.451089 0.000034
H26   H     H_    0.940451 0.255718 0.402778 0.157042
H27   H     H_    0.894503 0.666137 0.565577 -0.095077
H28   H     H_    0.104374 0.672269 0.553249 0.083323
H29   H     H_    0.884972 0.776717 0.618504 0.026285
H30   H     H_    0.478724 0.318144 0.625290 -0.195573
H31   H     H_    0.706248 0.676673 0.690385 0.060964
H32   H     H_    0.865577 0.738135 0.272026 0.129533
H33   H     H_    0.957505 0.810120 0.308093 0.152960
H34   H     H_    0.586491 0.423853 0.386701 -0.127902
H35   H     H_    0.630363 0.703158 0.313444 -0.177512
H36   H     H_    0.507710 0.821927 0.307783 0.040576
H37   H     H_    0.007234 0.356265 0.649862 0.104825
H38   H     H_    0.689468 0.580921 0.245855 0.127310
H39   H     H_    0.063793 0.672048 0.879742 0.126525
H40   H     H_    0.034906 0.685245 0.043202 0.083580
H41   H     H_    0.609058 0.931346 0.565596 0.110832
H42   H     H_    0.522802 0.057771 0.577131 0.099809
H43   H     H_    0.654884 0.204121 0.685773 0.116246
H44   H     H_    0.437022 0.358978 0.318934 -0.007381
H45   H     H_    0.484259 0.193714 0.641857 0.059546
H46   H     H_    0.514291 0.728836 0.694178 0.073172
H47   H     H_    0.529200 0.637689 0.708362 0.068014
N1    N     N_R   0.950697 0.513974 0.204683 -0.422739
N2    N     N_R   0.253771 0.497021 0.796899 -0.417653
O1    O     O_2   0.913240 0.537010 0.617740 -0.428335
O2    O     O_2   0.227177 0.750150 0.464476 -0.394463
O3    O     O_3   0.121336 0.735139 0.371772 -0.555006
O4    O     O_3   0.145240 0.536960 0.557560 -0.455252
O5    O     O_3   0.557280 0.416300 0.475860 -0.434223
O6    O     O_2   0.376710 0.670070 0.522470 -0.432755
O7    O     O_3   0.585484 0.701185 0.599880 -0.701847
O8    O     O_2   0.441867 0.520033 0.324121 -0.404247
O9    O     O_3   0.416875 0.657690 0.325115 -0.579675
O10   O     O_2   0.969286 0.394532 0.196636 -0.480751
O11   O     O_2   0.342900 0.382239 0.800170 -0.553272
O12   O     O_3   0.624580 0.316137 0.398421 -0.595163
O13   O     O_2   0.939958 0.633072 0.206594 -0.607998
O14   O     O_2   0.164385 0.612416 0.799927 -0.592937
O15   O     O_3   0.669960 0.410470 0.588880 -0.413633
O16   O     O_2   0.821085 0.453047 0.674916 -0.474723
O17   O     O_3   0.056599 0.649398 0.624217 -0.618485
O18   O     O_3   0.663965 0.342272 0.678304 -0.624755
O19   O     O_2   0.812980 0.329910 0.477500 -0.470853
O20   O     O_3   0.078660 0.374870 0.564770 -0.456039
O21   O     O_2   0.968897 0.248924 0.533054 -0.391357
O22   O     O_3   0.091462 0.255333 0.623928 -0.631475
O23   O     O_2   0.276450 0.462960 0.382230 -0.466208
O24   O     O_3   0.044470 0.462980 0.442430 -0.504294
O25   O     O_3   0.519740 0.589470 0.411120 -0.459492
O26   O     O_3   0.121066 0.350347 0.373691 -0.546525
O27   O     O_3   0.632420 0.583650 0.524140 -0.423284
O28   O     O_3   0.111040 0.625070 0.435230 -0.525324
P1    P     P_3+3 0.082480 0.557670 0.610090 1.109264
P2    P     P_3+3 0.635220 0.340300 0.462910 1.201897
P3    P     P_3+3 0.109492 0.282242 0.564303 1.062840
P4    P     P_3+3 0.107220 0.442270 0.389900 1.162697
P5    P     P_3+3 0.087940 0.716924 0.432441 1.102597
P6    P     P_3+3 0.659641 0.424582 0.654088 1.080062
P7    P     P_3+3 0.562528 0.672716 0.536171 1.067851
P8    P     P_3+3 0.532584 0.584333 0.346244 1.087125

loop_
_geom_bond_atom_site_label_1
_geom_bond_atom_site_label_2
_ccdc_geom_bond_type
C53   C54   A    
C40   H12   S    
C43   H40   S    
Ba2   O6    S    
C45   H3    S    
O26   P4    S    
C28   O26   S    
C19   C24   A    
Ba2   O24   S    
C38   H10   S    
O9    P8    S    
C60   P5    S    
C24   C25   A    
C60   C65   A    
Ba1   O5    S    
Ba1   O20   S    
C17   C19   A    
C22   C24   A    
C32   C33   S    
C35   C38   A    
C33   N2    S    
C36   C37   A    
C55   C57   A    
C69   H6    S    
Ba1   P1    S    
O27   P7    S    
C54   C63   S    
C5    P8    S    
C44   C50   A    
O3    P5    S    
C54   C55   A    
O19   P2    D    
C1    H2    S    
Ba1   Ba2   S    
C67   C69   S    
C22   C27   A    
C30   P6    S    
C11   C38   A    
Ba1   O4    S    
C17   C35   A    
O4    P1    S    
C9    C13   A    
C25   C42   A    
O17   P1    S    
C6    C7    D    
C52   H27   S    
O6    P7    D    
C68   H44   S    
C21   C22   A    
Ba2   O23   S    
C51   H42   S    
C8    N1    S    
C20   F4    S    
C68   F12   S    
C7    C8    S    
Ba2   O28   S    
Ba1   O1    S    
C37   C43   A    
C16   H19   S    
C2    N1    Am   
O28   P5    S    
C6    C14   D    
Ba2   O5    S    
C31   P1    S    
C15   C31   D    
C67   F17   S    
C34   H47   S    
C66   H34   S    
C51   C58   A    
C6    P4    S    
C61   P7    S    
C44   C46   A    
C51   C53   A    
C4    C16   S    
C61   C65   A    
C56   H33   S    
C11   H7    S    
C1    H43   S    
C12   H30   S    
C12   F1    S    
C17   C20   A    
C26   N2    Am   
C4    H37   S    
C52   O17   S    
C3    C5    S    
C18   C37   A    
C67   H35   S    
C48   C49   A    
C70   O10   D    
O18   P6    S    
C16   F16   S    
C49   C50   A    
C40   H1    S    
C50   P3    S    
C9    C36   A    
O1    P1    D    
C41   C42   A    
C35   C36   A    
C27   N2    Am   
C64   F10   S    
C29   C30   S    
O24   P4    S    
C59   F7    S    
Ba1   O27   S    
O22   P3    S    
C53   H41   S    
O12   P2    S    
C3    H38   S    
C31   C32   D    
C45   H4    S    
C39   H11   S    
O16   P6    D    
C4    H14   S    
C18   C19   A    
Ba1   O15   S    
Ba2   O27   S    
C13   C39   A    
C1    C12   S    
C14   H16   S    
Ba2   P4    S    
O23   P4    D    
C65   H22   S    
C70   N1    Am   
O7    P7    S    
Ba1   O24   S    
C26   O14   D    
C49   H21   S    
C64   H29   S    
Ba2   O4    S    
C29   C33   D    
C34   H46   S    
C18   C41   A    
C62   H18   S    
C28   H25   S    
C2    O13   D    
C42   H39   S    
C56   H32   S    
C39   C43   A    
O21   P3    D    
C12   O18   S    
C66   F11   S    
C55   F6    S    
C5    C14   S    
Ba2   O25   S    
C69   F2    S    
C4    O22   S    
C9    C10   A    
O20   P3    S    
C52   C64   S    
O2    P5    D    
C45   O3    S    
Ba1   P2    S    
C1    H45   S    
C48   C58   S    
C62   C63   A    
C2    C13   A    
Ba1   O19   S    
C56   H5    S    
C41   H13   S    
C3    C8    D    
C15   H17   S    
C45   C56   S    
C44   F8    S    
C68   F13   S    
C28   F9    S    
C46   C47   A    
O8    P8    D    
O15   P6    S    
C23   F14   S    
C57   H20   S    
C47   F5    S    
C28   C40   S    
C29   H8    S    
C10   C70   A    
C59   C60   A    
C34   H31   S    
C32   H15   S    
O5    P2    S    
C66   O12   S    
C23   C34   S    
C27   O11   D    
C61   C62   A    
C23   F15   S    
C59   C63   A    
C40   H26   S    
C57   C58   A    
C21   H9    S    
C10   C11   A    
C66   C68   S    
C47   C48   A    
C67   O9    S    
C52   H28   S    
C25   C26   A    
C15   C30   S    
C16   H24   S    
C20   C21   A    
C69   H36   S    
C23   O7    S    
C7    F3    S    
C64   H23   S    
O25   P8    S    
C46   P2    S    
