data_mof_unit_57629.cif
_audit_creation_date              2013-03-05T16:13:55-0500
_audit_creation_method            fapswitch 2.2
_symmetry_space_group_name_H-M    P1
_symmetry_Int_Tables_number       1
_space_group_crystal_system       triclinic
_cell_length_a                    10.631725
_cell_length_b                    9.801755
_cell_length_c                    17.316956
_cell_angle_alpha                 89.254322
_cell_angle_beta                  91.188142
_cell_angle_gamma                 90.467781
_cell_volume                      1803.99539089

loop_
_atom_site_label
_atom_site_type_symbol
_atom_site_description
_atom_site_fract_x
_atom_site_fract_y
_atom_site_fract_z
_atom_type_partial_charge
O1    O     O_R   0.316770 0.614620 0.500000 -0.625337
O2    O     O_R   0.683230 0.385380 0.500000 -0.611962
O3    O     O_R   0.683230 0.614620 0.500000 -0.594372
O4    O     O_R   0.316770 0.385380 0.500000 -0.595100
C1    C     C_R   0.260271 0.499193 0.500366 1.006924
C2    C     C_R   0.739730 0.500834 0.500054 1.025712
O5    O     O_R   0.500010 0.614710 0.389120 -0.571910
O6    O     O_R   0.499990 0.385290 0.610880 -0.573373
O7    O     O_R   0.499990 0.614710 0.610880 -0.584897
O8    O     O_R   0.500010 0.385290 0.389120 -0.593502
C3    C     C_R   0.066993 0.453631 0.566942 0.215195
C4    C     C_R   0.933101 0.547438 0.434049 0.209439
C5    C     C_R   0.936815 0.457898 0.567798 0.198326
C6    C     C_R   0.063130 0.543270 0.433378 0.219615
C7    C     C_R   0.502521 0.501097 0.352380 1.044183
C8    C     C_R   0.497144 0.498982 0.647796 1.037135
Zn1   Zn    Zn3+2 0.500000 0.653120 0.500000 1.085585
Zn2   Zn    Zn3+2 0.500000 0.346880 0.500000 1.083809
C9    C     C_R   0.871992 0.503961 0.501113 -0.354878
C10   C     C_R   0.127970 0.496389 0.499723 -0.349333
N1    N     N_R   0.500000 0.857200 0.500000 -0.106253
N2    N     N_R   0.500000 0.142800 0.500000 -0.104855
C11   C     C_R   0.400534 0.606536 0.847685 0.387490
C12   C     C_R   0.490206 0.376513 0.147214 0.397030
C13   C     C_R   0.379883 0.593030 0.154420 0.324506
C14   C     C_R   0.416567 0.358855 0.845063 0.323770
C15   C     C_R   0.438634 0.615222 0.770717 0.180379
C16   C     C_R   0.523245 0.384224 0.225916 0.151473
C17   C     C_R   0.430627 0.612534 0.228644 0.249062
C18   C     C_R   0.466228 0.366887 0.771045 0.231858
C19   C     C_R   0.472903 0.494890 0.731629 -0.359955
C20   C     C_R   0.491432 0.502219 0.267527 -0.356271
C21   C     C_R   0.587885 0.071882 0.542367 0.031081
C22   C     C_R   0.412250 0.928113 0.457509 0.026563
C23   C     C_R   0.412352 0.072285 0.457425 0.014855
C24   C     C_R   0.587995 0.927746 0.542273 0.041683
C25   C     C_R   0.388212 0.478756 0.883467 -0.163754
C26   C     C_R   0.411693 0.475954 0.113941 -0.205366
C27   C     C_1   0.377746 0.473304 0.964827 0.100547
C28   C     C_1   0.385614 0.471791 0.033410 0.077303
H1    H     H_    0.658111 0.126580 0.576101 0.184205
H2    H     H_    0.342197 0.873372 0.423651 0.183216
H3    H     H_    0.342497 0.127340 0.423390 0.158757
H4    H     H_    0.658377 0.872736 0.575886 0.173573
O9    O     O_3   0.373348 0.722781 0.888939 -0.614429
C29   C     C_3   0.484274 0.800023 0.904133 0.102917
H5    H     H_    0.481025 0.894339 0.867877 0.227671
H6    H     H_    0.573417 0.745415 0.891668 0.133047
C30   C     C_3   0.488368 0.839586 0.989116 -0.319455
H7    H     H_    0.397316 0.885683 0.004669 0.263827
H8    H     H_    0.503588 0.746403 0.025086 0.244324
C31   C     C_3   0.594422 0.940914 0.006421 -0.868618
H9    H     H_    0.686627 0.897132 0.991332 0.251668
H10   H     H_    0.595986 0.964085 0.069013 0.303394
H11   H     H_    0.579255 0.037173 0.973123 0.291344
O10   O     O_3   0.531945 0.270110 0.102503 -0.596610
C32   C     C_3   0.662356 0.285912 0.088184 0.143336
H12   H     H_    0.704845 0.182824 0.089916 0.188113
H13   H     H_    0.715139 0.346962 0.132331 0.156444
C33   C     C_3   0.682220 0.349803 0.008158 -0.403687
H14   H     H_    0.626333 0.292585 0.964269 0.277626
H15   H     H_    0.649964 0.457329 0.007782 0.213598
C34   C     C_3   0.820567 0.347528 0.986460 -0.883696
H16   H     H_    0.878801 0.404230 0.029500 0.259473
H17   H     H_    0.832065 0.396502 0.928826 0.293376
H18   H     H_    0.854049 0.240686 0.983857 0.268477
O11   O     O_3   0.314553 0.697621 0.117637 -0.620587
C35   C     C_3   0.184653 0.666214 0.118187 0.180847
H19   H     H_    0.151167 0.657928 0.178609 0.225742
H20   H     H_    0.163844 0.568595 0.088051 0.122857
C36   C     C_3   0.113044 0.780394 0.076161 -0.339895
H21   H     H_    0.133423 0.878974 0.105078 0.259147
H22   H     H_    0.145505 0.788169 0.015661 0.240896
C37   C     C_3   0.971359 0.753888 0.075522 -0.888927
H23   H     H_    0.948589 0.657554 0.045002 0.260528
H24   H     H_    0.922449 0.839143 0.044957 0.261226
H25   H     H_    0.936602 0.746805 0.135515 0.305967
O12   O     O_3   0.411678 0.234398 0.883821 -0.639736
C38   C     C_3   0.291954 0.172510 0.871859 0.187930
H26   H     H_    0.307283 0.068085 0.849927 0.214479
H27   H     H_    0.230066 0.225768 0.828175 0.177618
C39   C     C_3   0.223447 0.160649 0.948524 -0.387768
H28   H     H_    0.284990 0.108955 0.992329 0.255395
H29   H     H_    0.201426 0.264042 0.969574 0.231213
C40   C     C_3   0.100759 0.080041 0.939416 -0.910856
H30   H     H_    0.036188 0.132708 0.897743 0.292058
H31   H     H_    0.054136 0.071664 0.996084 0.262384
H32   H     H_    0.119654 0.975740 0.918455 0.284820
N3    N     N_R   0.444124 0.747070 0.734068 0.235955
O13   O     O_R   0.342975 0.820498 0.727599 -0.313383
O14   O     O_R   0.552918 0.803204 0.720520 -0.375898
N4    N     N_R   0.593073 0.274454 0.261762 0.229998
O15   O     O_R   0.561221 0.148279 0.248589 -0.297841
O16   O     O_R   0.695318 0.299922 0.301786 -0.348409
N5    N     N_R   0.424659 0.745555 0.262352 0.251435
O17   O     O_R   0.320215 0.813765 0.260239 -0.320439
O18   O     O_R   0.528697 0.808856 0.281151 -0.304421
N6    N     N_R   0.515921 0.245305 0.738448 0.250811
O19   O     O_R   0.443389 0.140253 0.725444 -0.323979
O20   O     O_R   0.635659 0.237088 0.725524 -0.324152
N7    N     N_R   0.137297 0.415485 0.635562 0.215793
O21   O     O_R   0.124400 0.483565 0.698873 -0.356230
O22   O     O_R   0.205444 0.305828 0.636785 -0.349246
N8    N     N_R   0.863305 0.587732 0.365548 0.232259
O23   O     O_R   0.882680 0.527320 0.300443 -0.331264
O24   O     O_R   0.793238 0.695891 0.365808 -0.320867
N9    N     N_R   0.870761 0.415785 0.635825 0.243274
O25   O     O_R   0.898931 0.301593 0.670981 -0.292096
O26   O     O_R   0.788714 0.496056 0.665906 -0.382640
N10   N     N_R   0.129205 0.587580 0.365948 0.228333
O27   O     O_R   0.103078 0.704515 0.333303 -0.322762
O28   O     O_R   0.207145 0.505944 0.333198 -0.443862

loop_
_geom_bond_atom_site_label_1
_geom_bond_atom_site_label_2
_geom_bond_distance
_ccdc_geom_bond_type
C34   H17   1.110462 S    
N7    O21   1.301097 A    
C11   O9    1.388260 S    
O2    Zn2   1.981238 S    
N5    O17   1.300448 A    
C22   H2    1.081637 S    
C5    N9    1.438120 S    
O3    C2    1.271070 A    
N8    O24   1.300775 A    
C7    C20   1.471589 S    
C1    C10   1.406448 S    
C40   H30   1.110896 S    
C8    C19   1.479649 S    
C2    C9    1.405996 S    
C29   C30   1.526404 S    
C14   O12   1.385802 S    
C37   H24   1.110423 S    
C33   C34   1.526034 S    
O1    C1    1.276620 A    
O7    C8    1.295248 A    
C4    N8    1.438700 S    
C17   C20   1.419458 A    
O8    C7    1.294367 A    
C18   C19   1.422448 A    
C32   H13   1.116263 S    
C21   C24   1.412823 A    
O10   C32   1.420423 S    
C33   H15   1.110892 S    
C22   C23   1.413104 A    
C30   H7    1.111271 S    
N10   O27   1.300873 A    
C35   H19   1.113961 S    
O5    Zn1   1.961472 S    
C37   H25   1.110991 S    
C13   O11   1.383990 S    
C12   C26   1.399113 A    
N9    O25   1.301274 A    
C15   N3    1.433634 S    
C11   C15   1.402388 A    
N3    O14   1.301208 A    
C23   H3    1.081783 S    
C31   H11   1.110489 S    
O4    Zn2   1.987289 S    
O5    C7    1.290440 A    
C34   H18   1.110604 S    
O6    C8    1.292803 A    
N9    O26   1.300773 A    
O2    C2    1.276863 A    
N8    O23   1.301215 A    
C31   H10   1.110088 S    
N10   O28   1.300261 A    
C40   H31   1.110333 S    
C13   C17   1.398433 A    
C29   H6    1.118524 S    
C3    C10   1.401812 A    
C37   H23   1.110623 S    
C5    C9    1.403872 A    
C15   C19   1.421303 A    
O11   C35   1.412701 S    
C6    C10   1.401745 A    
C16   C20   1.417541 A    
C16   N4    1.438977 S    
C27   C28   1.188768 T    
N1    C24   1.365080 A    
O12   C38   1.418038 S    
C32   C33   1.531228 S    
N1    C22   1.365180 A    
C30   H8    1.109878 S    
O9    C29   1.418100 S    
C39   H28   1.111357 S    
O6    Zn2   1.961470 S    
C34   H16   1.110733 S    
C33   H14   1.110010 S    
N2    C23   1.365249 A    
C13   C26   1.399896 A    
C36   C37   1.526342 S    
C30   C31   1.524150 S    
N4    O16   1.301221 A    
C3    N7    1.437597 S    
O7    Zn1   1.951854 S    
C4    C6    1.383671 A    
C14   C18   1.397364 A    
C39   H29   1.109851 S    
C24   H4    1.081589 S    
C31   H9    1.110780 S    
C38   H27   1.119083 S    
C40   H32   1.110547 S    
C6    N10   1.435777 S    
N2    C21   1.365064 A    
C29   H5    1.111102 S    
Zn2   N2    2.000342 S    
C12   C16   1.403190 A    
O4    C1    1.271469 A    
C38   C39   1.530107 S    
N5    O18   1.301361 A    
C14   C25   1.395988 A    
C12   O10   1.388142 S    
C39   C40   1.525924 S    
C18   N6    1.434613 S    
O1    Zn1   1.981239 S    
C21   H1    1.081506 S    
C36   H21   1.111766 S    
C25   C27   1.415881 S    
C11   C25   1.396517 A    
C26   C28   1.417249 S    
C3    C5    1.385388 A    
C32   H12   1.109980 S    
O8    Zn2   1.951855 S    
C35   C36   1.526933 S    
C4    C9    1.402255 A    
N4    O15   1.301368 A    
O3    Zn1   1.987288 S    
N6    O20   1.300436 A    
Zn1   N1    2.000342 S    
C17   N5    1.437864 S    
C38   H26   1.110799 S    
N7    O22   1.300815 A    
N6    O19   1.300575 A    
C36   H22   1.111309 S    
C35   H20   1.114252 S    
N3    O13   1.300980 A    
