data_mof_unit_23432.cif
_audit_creation_date              2012-12-11T14:29:42-0500
_audit_creation_method            fapswitch 2.2
_symmetry_space_group_name_H-M    P1
_symmetry_Int_Tables_number       1
_space_group_crystal_system       triclinic
_cell_length_a                    6.932534
_cell_length_b                    14.678272
_cell_length_c                    16.30077
_cell_angle_alpha                 90.478213
_cell_angle_beta                  90.240303
_cell_angle_gamma                 89.869509
_cell_volume                      1658.6510204

loop_
_atom_site_label
_atom_site_type_symbol
_atom_type_description
_atom_site_fract_x
_atom_site_fract_y
_atom_site_fract_z
_atom_type_partial_charge
O1    O     O_R   0.494400 0.416610 0.413880 -0.555566
O2    O     O_R   0.823920 0.406790 0.585520 -0.512239
O3    O     O_R   0.994250 0.583390 0.586120 -0.506827
C1    C     C_R   0.655680 0.385310 0.614065 0.763375
O4    O     O_R   0.824110 0.405730 0.414490 -0.552716
O5    O     O_R   0.994440 0.582310 0.413870 -0.525087
C2    C     C_R   0.654304 0.384480 0.385708 0.741276
O6    O     O_R   0.494210 0.417690 0.586130 -0.554740
O7    O     O_3   0.660810 0.557940 0.500000 -0.335175
V1    V     V_3+5 0.935650 0.489250 0.500000 1.548299
O8    O     O_R   0.324160 0.593210 0.414480 -0.543685
C3    C     C_R   0.155604 0.613398 0.385307 0.741665
O9    O     O_R   0.323970 0.594270 0.585510 -0.537203
C4    C     C_R   0.153508 0.619495 0.611418 0.749317
V2    V     V_3+5 0.435660 0.510750 0.500000 1.525831
O10   O     O_3   0.160630 0.442060 0.500000 -0.389919
C5    C     C_R   0.088505 0.560897 0.778578 -0.224015
C6    C     C_R   0.056341 0.529855 0.858055 0.479579
C7    C     C_R   0.031504 0.592544 0.922162 -0.218343
C8    C     C_R   0.048627 0.685659 0.907811 -0.235379
C9    C     C_R   0.089929 0.718467 0.828557 0.085716
C10   C     C_R   0.106066 0.654892 0.762173 0.002803
C11   C     C_R   0.123711 0.812446 0.815172 -0.109411
C12   C     C_R   0.172991 0.841832 0.735520 0.043375
C13   C     C_R   0.151516 0.781425 0.667772 -0.078198
C14   C     C_R   0.136986 0.686205 0.681074 -0.089381
C15   C     C_R   0.240797 0.930859 0.720691 -0.262474
C16   C     C_R   0.284847 0.957776 0.641214 -0.289290
C17   C     C_R   0.230788 0.903127 0.574489 0.478942
C18   C     C_R   0.134835 0.820274 0.588942 0.237396
H1    H     H_    0.102437 0.510163 0.730381 0.133810
H2    H     H_    0.001343 0.568916 0.983532 0.146757
H3    H     H_    0.032147 0.731439 0.959676 0.101933
H4    H     H_    0.268048 0.978976 0.769908 0.146581
H5    H     H_    0.350460 0.023629 0.631734 0.169894
C19   C     C_2   0.990702 0.703091 0.276702 -0.050085
C20   C     C_2   0.151223 0.681819 0.319454 -0.155737
H6    H     H_    0.855751 0.669789 0.291668 0.139832
H7    H     H_    0.284643 0.718062 0.309350 0.213549
C21   C     C_2   0.981189 0.776680 0.214249 -0.176184
C22   C     C_2   0.130222 0.803222 0.166787 0.259742
H8    H     H_    0.841048 0.808488 0.205593 0.136929
C23   C     C_2   0.779509 0.207670 0.782438 -0.177418
C24   C     C_2   0.613505 0.173622 0.811817 -0.369958
H9    H     H_    0.914550 0.187937 0.811276 0.150619
H10   H     H_    0.477348 0.188991 0.782150 0.119581
C25   C     C_2   0.794301 0.268577 0.709392 0.464010
C26   C     C_2   0.644310 0.320471 0.683398 -0.367372
H11   H     H_    0.505983 0.316415 0.713912 0.106419
C27   C     C_2   0.759030 0.244902 0.188497 0.463802
C28   C     C_2   0.620705 0.179906 0.179199 -0.376884
H12   H     H_    0.515761 0.169457 0.227335 0.112326
C29   C     C_2   0.781977 0.298960 0.265850 -0.198194
C30   C     C_2   0.635004 0.320330 0.315804 -0.350129
H13   H     H_    0.922808 0.328368 0.278364 0.153515
H14   H     H_    0.490301 0.297317 0.300858 0.140450
O11   O     O_R   0.770210 0.079270 0.910680 -0.532448
O12   O     O_R   0.440150 0.091160 0.082270 -0.521782
O13   O     O_R   0.269970 0.914530 0.082860 -0.522316
C31   C     C_R   0.609758 0.114980 0.109166 0.855341
O14   O     O_R   0.440480 0.090100 0.911240 -0.559199
O15   O     O_R   0.270310 0.913460 0.910610 -0.551859
C32   C     C_R   0.608639 0.110652 0.882200 0.789586
O16   O     O_R   0.769870 0.080340 0.082930 -0.501741
O17   O     O_3   0.603660 0.938980 0.996790 -0.388711
V3    V     V_3+5 0.328750 0.007610 0.996740 1.522893
O18   O     O_R   0.940600 0.902510 0.911180 -0.547067
C33   C     C_R   0.110190 0.879941 0.883511 0.654765
O19   O     O_R   0.940270 0.903570 0.082200 -0.563933
C34   C     C_R   0.110431 0.879501 0.108162 0.651255
V4    V     V_3+5 0.828770 0.986010 0.996670 1.515557
O20   O     O_3   0.103730 0.054750 0.996710 -0.334189
S1    S     S_3+6 0.271633 0.942625 0.474010 0.071340
O21   O     O_2   0.316757 0.863319 0.418416 -0.295355
O22   O     O_2   0.094511 0.990782 0.443105 -0.297012
O23   O     O_3   0.458253 0.015645 0.474176 -0.499494
H15   H     H_    0.470084 0.035554 0.416505 0.369471
O24   O     O_3   0.308272 0.760577 0.172828 -0.545749
C35   C     C_3   0.328019 0.698435 0.106794 0.078331
H16   H     H_    0.332748 0.734885 0.047221 0.116602
H17   H     H_    0.207272 0.648368 0.105771 0.114297
C36   C     C_3   0.516130 0.646015 0.116598 -0.673450
H18   H     H_    0.517189 0.609268 0.175904 0.214227
H19   H     H_    0.531422 0.595738 0.065726 0.185381
H20   H     H_    0.640173 0.693697 0.115058 0.210544
O25   O     O_3   0.972393 0.278130 0.671887 -0.542454
C37   C     C_3   0.035012 0.193145 0.640386 0.054448
H21   H     H_    0.913849 0.151637 0.614636 0.139829
H22   H     H_    0.109243 0.153904 0.689359 0.108957
C38   C     C_3   0.176876 0.209746 0.571238 -0.618841
H23   H     H_    0.107164 0.250946 0.522522 0.224194
H24   H     H_    0.305395 0.246441 0.594984 0.200184
H25   H     H_    0.223548 0.143902 0.544095 0.220534
S2    S     S_3+6 0.918260 0.273294 0.107951 -0.023926
O26   O     O_2   0.085944 0.208273 0.107643 -0.347195
O27   O     O_2   0.814705 0.267312 0.026897 -0.343053
O28   O     O_3   0.000426 0.380284 0.121133 -0.517911
H26   H     H_    0.121631 0.374175 0.153041 0.324868
O29   O     O_3   0.043084 0.437349 0.871559 -0.540801
C39   C     C_3   0.215151 0.407544 0.909664 0.121060
H27   H     H_    0.213571 0.425707 0.976058 0.164097
H28   H     H_    0.346227 0.437391 0.880770 0.099630
C40   C     C_3   0.230533 0.304683 0.900939 -0.561445
H29   H     H_    0.231768 0.285500 0.834950 0.184893
H30   H     H_    0.365554 0.280585 0.930586 0.185998
H31   H     H_    0.106155 0.271239 0.930495 0.275668
S3    S     S_3+6 0.910540 0.806055 0.537397 0.080683
O30   O     O_2   0.942086 0.776699 0.450365 -0.282809
O31   O     O_2   0.783856 0.738056 0.579422 -0.338590
O32   O     O_3   0.794373 0.906725 0.536813 -0.424520
H32   H     H_    0.772658 0.921893 0.595395 0.325508

loop_
_geom_bond_atom_site_label_1
_geom_bond_atom_site_label_2
_ccdc_geom_bond_type
C37   H21   S    
C21   C22   D    
C18   S3    S    
S3    O31   D    
S1    O21   D    
C7    C8    A    
C12   C15   A    
C1    O6    A    
O28   H26   S    
C29   C30   D    
C19   C20   D    
O13   V3    S    
O5    C3    A    
C17   S1    S    
O12   C31   A    
V2    O10   S    
O14   C32   A    
C6    C7    A    
O16   V4    S    
C3    C20   S    
O19   V4    S    
O32   H32   S    
O8    V2    S    
O14   V3    S    
O12   V3    S    
V3    O20   S    
C25   C26   D    
C16   H5    S    
S3    O30   D    
O1    V2    S    
O7    V1    S    
C21   H8    S    
C15   H4    S    
O1    C2    A    
O9    C4    A    
S1    O22   D    
O19   C34   A    
C7    H2    S    
C24   H10   S    
O11   C32   A    
O23   H15   S    
C29   H13   S    
C24   C32   S    
C30   H14   S    
C27   C29   S    
O15   V3    S    
C28   H12   S    
C25   O25   S    
C19   C21   S    
C12   C13   A    
C22   O24   S    
C35   H17   S    
O24   C35   S    
C27   S2    S    
S2    O28   S    
C27   C28   D    
C13   C14   A    
O17   V4    S    
C39   C40   S    
O11   V4    S    
O18   C33   A    
C11   C33   S    
O2    C1    A    
C23   C24   D    
C17   C18   A    
C38   H24   S    
O29   C39   S    
C11   C12   A    
C39   H28   S    
C5    C6    A    
C40   H30   S    
C4    C14   S    
S2    O27   D    
C23   H9    S    
O3    C4    A    
C8    H3    S    
C26   H11   S    
O17   V3    S    
O6    V2    S    
C36   H19   S    
C9    C11   A    
C5    H1    S    
S1    O23   S    
C6    O29   S    
O2    V1    S    
C40   H29   S    
C38   H25   S    
O4    C2    A    
C1    C26   S    
C13   C18   A    
C16   C17   A    
O25   C37   S    
O5    V1    S    
C35   C36   S    
O8    C3    A    
C36   H20   S    
C5    C10   A    
O15   C33   A    
C31   O16   A    
O9    V2    S    
O7    V2    S    
O4    V1    S    
C20   H7    S    
O3    V1    S    
V1    O10   S    
C38   H23   S    
C19   H6    S    
C39   H27   S    
S3    O32   S    
C40   H31   S    
O18   V4    S    
S2    O26   D    
O13   C34   A    
C35   H16   S    
V4    O20   S    
C8    C9    A    
C36   H18   S    
C10   C14   A    
C37   C38   S    
C15   C16   A    
C37   H22   S    
C28   C31   S    
C2    C30   S    
C9    C10   A    
C23   C25   S    
C22   C34   S    
