data_mof_unit_26220.cif
_audit_creation_date              2012-12-10T19:08:08-0500
_audit_creation_method            fapswitch 2.2
_symmetry_space_group_name_H-M    P1
_symmetry_Int_Tables_number       1
_space_group_crystal_system       triclinic
_cell_length_a                    9.063651
_cell_length_b                    10.828685
_cell_length_c                    9.607439
_cell_angle_alpha                 90.263054
_cell_angle_beta                  90.743696
_cell_angle_gamma                 90.724933
_cell_volume                      942.77980245

loop_
_atom_site_label
_atom_site_type_symbol
_atom_type_description
_atom_site_fract_x
_atom_site_fract_y
_atom_site_fract_z
_atom_type_partial_charge
C1    C     C_R   0.496410 0.262660 0.499704 0.792111
C2    C     C_R   0.450029 0.934539 0.377726 -0.211358
C3    C     C_R   0.488010 0.870987 0.500294 -0.065734
C4    C     C_R   0.505391 0.938118 0.624002 0.069673
C5    C     C_3   0.625245 0.937771 0.733459 -0.127720
C6    C     C_3   0.615900 0.078353 0.734859 -0.022983
C7    C     C_R   0.626957 0.522111 0.074319 0.184526
C8    C     C_R   0.381094 0.456318 0.069575 0.211184
C9    C     C_R   0.381126 0.459589 0.922228 -0.026935
C10   C     C_R   0.627673 0.518741 0.928180 0.211600
C11   C     C_3   0.734713 0.623217 0.918706 -0.472976
C12   C     C_R   0.220884 0.499980 0.499434 0.844523
C13   C     C_3   0.733014 0.630207 0.077225 -0.080949
C14   C     C_R   0.498886 0.737577 0.500139 0.784192
C15   C     C_R   0.779104 0.500288 0.500569 0.840317
C16   C     C_1   0.065597 0.500177 0.499217 -0.198743
C17   C     C_1   0.934380 0.500300 0.500762 -0.199878
C18   C     C_R   0.499122 0.065180 0.624278 0.093031
C19   C     C_R   0.482425 0.129580 0.499973 -0.108418
C20   C     C_R   0.448325 0.063461 0.377265 -0.205934
Cu1   Cu    Cu3+1 0.499990 0.499980 0.640670 0.948503
Cu2   Cu    Cu3+1 0.500010 0.500020 0.359330 0.925661
H1    H     H_    0.426025 0.110838 0.280344 0.162167
H2    H     H_    0.685853 0.703412 0.865554 0.212179
H3    H     H_    0.841524 0.609020 0.126533 0.161404
H4    H     H_    0.427008 0.885388 0.281366 0.157971
H5    H     H_    0.592006 0.892256 0.831867 0.154775
H6    H     H_    0.716426 0.128684 0.699459 0.175894
H7    H     H_    0.284601 0.427355 0.864902 0.159619
H8    H     H_    0.842554 0.593451 0.877150 0.176034
N1    N     N_R   0.500920 0.500930 0.147930 -0.206882
N2    N     N_R   0.500930 0.500890 0.852020 -0.205076
O1    O     O_R   0.500000 0.319640 0.618810 -0.554767
O2    O     O_R   0.500020 0.319680 0.381230 -0.594194
O3    O     O_R   0.288380 0.499980 0.618770 -0.586293
O4    O     O_R   0.288400 0.500020 0.381190 -0.596292
O5    O     O_R   0.499980 0.680320 0.618770 -0.583759
O6    O     O_R   0.500000 0.680360 0.381190 -0.595536
O7    O     O_R   0.711600 0.499980 0.618810 -0.578112
O8    O     O_R   0.711620 0.500020 0.381230 -0.579450
N3    N     N_3   0.670818 0.746845 0.125032 -0.573970
H9    H     H_    0.555940 0.746019 0.112898 0.236169
H10   H     H_    0.697191 0.757855 0.230485 0.252072
N4    N     N_3   0.766531 0.896838 0.679136 -0.587369
H11   H     H_    0.845634 0.908928 0.758382 0.227631
H12   H     H_    0.759382 0.801992 0.659487 0.225914
N5    N     N_3   0.557183 0.128619 0.864350 -0.573013
H13   H     H_    0.637169 0.117134 0.942442 0.222178
H14   H     H_    0.463394 0.078432 0.894149 0.218556
N6    N     N_3   0.254982 0.399217 0.130599 -0.613681
H15   H     H_    0.286993 0.338523 0.209044 0.262560
H16   H     H_    0.182179 0.466917 0.163650 0.239581

loop_
_geom_bond_atom_site_label_1
_geom_bond_atom_site_label_2
_ccdc_geom_bond_type
C7    C10   A    
N6    H16   S    
Cu1   O3    S    
C10   N2    A    
C12   O4    A    
Cu2   O4    S    
N3    H9    S    
C19   C20   A    
Cu1   O7    S    
C20   H1    S    
C9    H7    S    
Cu2   O8    S    
Cu2   N1    S    
C13   N3    S    
N6    H15   S    
C4    C18   A    
N5    H14   S    
Cu1   Cu2   S    
C14   O5    A    
N3    H10   S    
C15   O7    A    
C16   C17   T    
C3    C14   S    
C6    C18   S    
C5    N4    S    
N4    H12   S    
C1    O2    A    
C2    C3    A    
C5    C6    S    
Cu2   O2    S    
Cu1   N2    S    
C12   O3    A    
C15   O8    A    
C1    C19   S    
Cu1   O1    S    
C6    N5    S    
C1    O1    A    
C14   O6    A    
Cu2   O6    S    
N5    H13   S    
C8    N6    S    
C11   H2    S    
C11   C13   S    
Cu1   O5    S    
N4    H11   S    
C2    H4    S    
C18   C19   A    
C10   C11   S    
C15   C17   S    
C8    C9    A    
C7    C13   S    
C9    N2    A    
C5    H5    S    
C8    N1    A    
C2    C20   A    
C7    N1    A    
C6    H6    S    
C3    C4    A    
C12   C16   S    
C11   H8    S    
C4    C5    S    
C13   H3    S    
