data_mof_unit_24017.cif
_audit_creation_date              2012-12-10T20:26:24-0500
_audit_creation_method            fapswitch 2.2
_symmetry_space_group_name_H-M    P1
_symmetry_Int_Tables_number       1
_space_group_crystal_system       triclinic
_cell_length_a                    10.676594
_cell_length_b                    10.814371
_cell_length_c                    9.992572
_cell_angle_alpha                 92.626088
_cell_angle_beta                  95.280666
_cell_angle_gamma                 93.306481
_cell_volume                      1145.42178386

loop_
_atom_site_label
_atom_site_type_symbol
_atom_type_description
_atom_site_fract_x
_atom_site_fract_y
_atom_site_fract_z
_atom_type_partial_charge
C1    C     C_R   0.501337 0.260819 0.497702 0.862307
C2    C     C_R   0.509458 0.129866 0.492771 -0.075925
C3    C     C_R   0.438664 0.056429 0.390514 -0.210589
C4    C     C_R   0.434107 0.928070 0.395754 -0.243697
C5    C     C_R   0.501387 0.872892 0.502374 -0.054214
C6    C     C_R   0.585438 0.947092 0.591029 0.014599
C7    C     C_3   0.612242 0.950281 0.740630 0.469907
C8    C     C_3   0.610112 0.091980 0.740211 0.494715
C9    C     C_R   0.432450 0.410935 0.061069 -0.048284
C10   C     C_R   0.575908 0.582314 0.084251 0.204377
C11   C     C_R   0.575394 0.581464 0.940299 0.173063
C12   C     C_R   0.262361 0.495448 0.492232 0.738247
C13   C     C_R   0.432649 0.407831 0.919360 0.116047
C14   C     C_3   0.291260 0.369959 0.906735 0.437309
C15   C     C_3   0.296189 0.378689 0.061613 0.663095
C16   C     C_R   0.500019 0.739948 0.502142 0.853630
C17   C     C_R   0.739329 0.509957 0.506508 0.815180
C18   C     C_2   0.931369 0.577469 0.413489 -0.145622
C19   C     C_2   0.874940 0.543729 0.522320 0.076555
C20   C     C_2   0.068671 0.585654 0.418560 0.197982
C21   C     C_2   0.127786 0.487337 0.466143 0.313749
C22   C     C_R   0.588869 0.074640 0.588195 -0.080019
H1    H     H_    0.878656 0.590100 0.318291 0.132721
H2    H     H_    0.380753 0.097955 0.312239 0.180707
H3    H     H_    0.374735 0.872216 0.319367 0.178427
N1    N     N_R   0.499170 0.499140 0.142800 -0.095867
N2    N     N_R   0.499170 0.499180 0.857150 -0.106761
O1    O     O_R   0.500020 0.316790 0.614690 -0.591344
O2    O     O_R   0.500000 0.316760 0.385350 -0.601368
O3    O     O_R   0.319080 0.500020 0.614640 -0.565152
O4    O     O_R   0.319070 0.499980 0.385300 -0.552265
O5    O     O_R   0.500000 0.683240 0.614650 -0.538551
O6    O     O_R   0.499980 0.683210 0.385310 -0.603780
O7    O     O_R   0.680930 0.500020 0.614700 -0.627224
O8    O     O_R   0.680920 0.499980 0.385360 -0.604489
Zn1   Zn    Zn3+2 0.500010 0.500020 0.653130 1.018813
Zn2   Zn    Zn3+2 0.499990 0.499980 0.346870 1.024033
N3    N     N_2   0.730268 0.152196 0.795006 -0.322248
H4    H     H_    0.747202 0.144621 0.897563 0.223715
C23   C     C_3   0.762266 0.274915 0.755285 -0.699280
H5    H     H_    0.696933 0.340601 0.794860 0.277487
H6    H     H_    0.760423 0.275931 0.644162 0.242405
H7    H     H_    0.859468 0.302600 0.799511 0.198317
N4    N     N_2   0.663454 0.662997 0.167906 -0.265669
H8    H     H_    0.755540 0.652398 0.149807 0.201752
C24   C     C_3   0.635624 0.792344 0.182780 -0.744369
H9    H     H_    0.695755 0.850720 0.122550 0.188201
H10   H     H_    0.659923 0.825727 0.288997 0.253360
H11   H     H_    0.534642 0.805948 0.152881 0.250445
N5    N     N_2   0.649812 0.671029 0.882238 -0.222521
H12   H     H_    0.641194 0.756933 0.925006 0.256179
C25   C     C_3   0.779313 0.643667 0.876840 -0.785418
H13   H     H_    0.841444 0.703545 0.951814 0.209628
H14   H     H_    0.803499 0.666199 0.775969 0.301207
H15   H     H_    0.795193 0.544812 0.894696 0.217485
O9    O     O_3   0.217302 0.458964 0.846227 -0.723804
H16   H     H_    0.128601 0.434873 0.860552 0.328776
N6    N     N_2   0.259290 0.243400 0.850053 -0.325259
H17   H     H_    0.201913 0.190244 0.905361 0.234582
C26   C     C_3   0.213304 0.227864 0.709660 -0.723907
H18   H     H_    0.207210 0.127823 0.677658 0.216562
H19   H     H_    0.277927 0.276471 0.647229 0.276710
H20   H     H_    0.117355 0.262284 0.694284 0.259677
O10   O     O_3   0.232435 0.477845 0.112624 -0.701006
H21   H     H_    0.142299 0.448495 0.108330 0.337573
O11   O     O_3   0.270263 0.268057 0.126488 -0.801825
H22   H     H_    0.334560 0.208562 0.106942 0.309465
N7    N     N_2   0.947116 0.536657 0.650317 -0.285211
H23   H     H_    0.907858 0.484895 0.720751 0.229492
C27   C     C_3   0.029557 0.643230 0.703411 -0.762908
H24   H     H_    0.018374 0.664082 0.811089 0.241065
H25   H     H_    0.011204 0.726564 0.646007 0.230390
H26   H     H_    0.129250 0.623101 0.697929 0.295299
N8    N     N_2   0.136461 0.697509 0.386671 -0.303490
H27   H     H_    0.217388 0.722954 0.448512 0.208291
C28   C     C_3   0.064960 0.801113 0.344633 -0.774872
H28   H     H_    0.130299 0.878088 0.318695 0.244078
H29   H     H_    0.010820 0.834952 0.427254 0.233300
H30   H     H_    0.999826 0.773409 0.253695 0.242577
O12   O     O_3   0.061051 0.374201 0.470574 -0.778859
H31   H     H_    0.121424 0.308102 0.468246 0.322514
O13   O     O_3   0.512914 0.893527 0.803144 -0.764835
H32   H     H_    0.523285 0.925087 0.898643 0.324406
N9    N     N_2   0.735266 0.905661 0.785468 -0.305251
H33   H     H_    0.765109 0.929293 0.884958 0.201446
C29   C     C_3   0.836122 0.910615 0.697260 -0.838644
H34   H     H_    0.925487 0.888934 0.754472 0.245768
H35   H     H_    0.850296 0.004154 0.658022 0.261468
H36   H     H_    0.814305 0.841383 0.611506 0.239774
O14   O     O_3   0.508971 0.140867 0.801824 -0.758188
H37   H     H_    0.429623 0.099224 0.757810 0.363855

loop_
_geom_bond_atom_site_label_1
_geom_bond_atom_site_label_2
_ccdc_geom_bond_type
C14   O9    S    
C28   H30   S    
C4    H3    S    
C7    C8    S    
N4    H8    S    
C24   H11   S    
N8    C28   S    
C26   H20   S    
O5    Zn1   S    
O8    Zn2   S    
C28   H29   S    
C1    C2    S    
C5    C6    A    
C29   H35   S    
N6    C26   S    
C6    C22   A    
O9    H16   S    
C26   H19   S    
C18   C19   D    
C9    C13   A    
C5    C16   S    
C23   H7    S    
C25   H14   S    
N7    H23   S    
C2    C22   A    
C1    O1    A    
C8    C22   S    
C15   O10   S    
C27   H24   S    
O7    Zn1   S    
C25   H15   S    
C10   N1    A    
C23   H6    S    
C7    N9    S    
C13   C14   S    
C3    H2    S    
C8    N3    S    
N4    C24   S    
C9    N1    A    
C14   N6    S    
C24   H10   S    
N8    H27   S    
C10   N4    S    
C18   H1    S    
C28   H28   S    
C29   H34   S    
C4    C5    A    
N6    H17   S    
C15   O11   S    
C12   C21   S    
O6    Zn2   S    
O4    Zn2   S    
C26   H18   S    
C16   O6    A    
N5    C25   S    
C11   N2    A    
C27   H26   S    
C1    O2    A    
N5    H12   S    
C20   N8    S    
C19   N7    S    
N9    H33   S    
C23   H5    S    
C12   O4    A    
C8    O14   S    
C17   O7    A    
C3    C4    A    
C25   H13   S    
C24   H9    S    
C12   O3    A    
N9    C29   S    
O12   H31   S    
C29   H36   S    
N1    Zn2   S    
C6    C7    S    
N2    Zn1   S    
C16   O5    A    
O3    Zn1   S    
O10   H21   S    
C2    C3    A    
C9    C15   S    
C11   N5    S    
N3    C23   S    
O14   H37   S    
N3    H4    S    
C21   O12   S    
C17   C19   S    
O11   H22   S    
C18   C20   S    
C10   C11   A    
C7    O13   S    
C20   C21   D    
O1    Zn1   S    
N7    C27   S    
O13   H32   S    
O2    Zn2   S    
C14   C15   S    
C13   N2    A    
C27   H25   S    
C17   O8    A    
