data_mof_unit_27373.cif
_audit_creation_date              2012-12-10T17:15:08-0500
_audit_creation_method            fapswitch 2.2
_symmetry_space_group_name_H-M    P1
_symmetry_Int_Tables_number       1
_space_group_crystal_system       triclinic
_cell_length_a                    10.242202
_cell_length_b                    10.759899
_cell_length_c                    12.847027
_cell_angle_alpha                 90.537877
_cell_angle_beta                  90.619829
_cell_angle_gamma                 93.150787
_cell_volume                      1413.5137824

loop_
_atom_site_label
_atom_site_type_symbol
_atom_type_description
_atom_site_fract_x
_atom_site_fract_y
_atom_site_fract_z
_atom_type_partial_charge
C1    C     C_R   0.447969 0.267040 0.499131 0.891977
C2    C     C_R   0.601364 0.366157 0.040161 -0.182508
C3    C     C_R   0.375867 0.598537 0.857829 -0.121397
C4    C     C_R   0.602812 0.379660 0.147530 -0.120907
C5    C     C_R   0.515785 0.423086 0.871585 0.361543
C6    C     C_R   0.490645 0.574202 0.129374 0.323029
C7    C     C_R   0.532029 0.446506 0.977898 0.039652
C8    C     C_R   0.475909 0.551242 0.023009 0.037974
C9    C     C_2   0.426849 0.133270 0.512495 0.282262
C10   C     C_2   0.576626 0.863958 0.510556 0.205678
C11   C     C_2   0.517070 0.066644 0.563720 -0.055128
C12   C     C_R   0.552424 0.731884 0.505840 0.825494
C13   C     C_2   0.499647 0.933331 0.569554 -0.157544
C14   C     C_2   0.660231 0.278769 0.208226 0.548016
C15   C     C_2   0.271382 0.665881 0.805850 0.450832
C16   C     C_2   0.409640 0.880404 0.649613 0.462653
C17   C     C_2   0.640387 0.114794 0.616126 0.555870
C18   C     C_2   0.884930 0.542911 0.376246 0.514308
C19   C     C_2   0.102344 0.353399 0.538568 0.554012
C20   C     C_2   0.876306 0.436065 0.648562 0.623737
C21   C     C_2   0.133578 0.675285 0.434148 0.691240
C22   C     C_2   0.069768 0.472548 0.491595 -0.095461
C23   C     C_2   0.926016 0.489814 0.475993 -0.194680
C24   C     C_R   0.472228 0.503847 0.698795 0.894396
C25   C     C_R   0.526231 0.493744 0.301970 0.988552
C26   C     C_R   0.544186 0.483511 0.191794 -0.160807
C27   C     C_R   0.449396 0.506240 0.810209 -0.116165
C28   C     C_R   0.396494 0.624615 0.962756 -0.203302
Cl1   Cl    Cl    0.442005 0.716075 0.185670 -0.495859
Cl2   Cl    Cl    0.561228 0.281087 0.816365 -0.599769
Cl3   Cl    Cl    0.693353 0.927918 0.422664 -0.471236
Cl4   Cl    Cl    0.282465 0.060510 0.458205 -0.464587
H1    H     H_    0.343342 0.698104 0.998020 0.211624
H2    H     H_    0.045856 0.715919 0.462603 -0.009038
H3    H     H_    0.647944 0.287479 0.006634 0.205701
H4    H     H_    0.738081 0.227377 0.174678 0.094885
H5    H     H_    0.255083 0.760857 0.829423 0.110908
H6    H     H_    0.410171 0.783031 0.668673 0.016458
H7    H     H_    0.654689 0.096123 0.698032 0.117300
H8    H     H_    0.816778 0.616320 0.375363 0.119847
H9    H     H_    0.061485 0.266604 0.505138 0.118959
H10   H     H_    0.962670 0.486474 0.680406 0.076617
N1    N     N_2   0.162330 0.550370 0.457540 -0.157463
N2    N     N_2   0.837670 0.449630 0.542460 -0.163915
O1    O     O_R   0.567930 0.307680 0.508550 -0.549751
O2    O     O_2   0.195370 0.613948 0.743634 -0.533844
O3    O     O_2   0.336420 0.946409 0.696623 -0.512362
O4    O     O_2   0.732924 0.157878 0.566424 -0.462473
O5    O     O_2   0.931971 0.509027 0.294511 -0.552813
O6    O     O_2   0.165198 0.351583 0.619709 -0.508532
O7    O     O_2   0.811996 0.367448 0.705532 -0.486006
O8    O     O_2   0.209582 0.739610 0.382488 -0.446935
O9    O     O_R   0.432070 0.692320 0.491450 -0.582067
O10   O     O_R   0.351090 0.340020 0.481290 -0.590350
O11   O     O_R   0.648910 0.659980 0.518710 -0.652124
O12   O     O_R   0.590490 0.486480 0.665020 -0.580238
O13   O     O_R   0.409510 0.513520 0.334980 -0.555101
O14   O     O_R   0.373660 0.518820 0.637760 -0.550392
O15   O     O_R   0.626340 0.481180 0.362240 -0.624569
O16   O     O_2   0.617018 0.246541 0.292430 -0.517535
Zn1   Zn    Zn3+2 0.644780 0.478400 0.518200 1.050305
Zn2   Zn    Zn3+2 0.355220 0.521600 0.481800 1.101030

loop_
_geom_bond_atom_site_label_1
_geom_bond_atom_site_label_2
_ccdc_geom_bond_type
C2    H3    S    
O14   Zn2   S    
C20   H10   S    
C1    O10   A    
C24   C27   S    
N2    Zn1   S    
C24   O12   A    
C9    C11   D    
O9    Zn2   S    
C2    C4    A    
C2    C7    A    
C9    Cl4   S    
C17   O4    D    
C6    Cl1   S    
C3    C27   A    
C1    C9    S    
C7    C8    A    
C21   N1    S    
C4    C14   S    
C11   C13   S    
C19   O6    D    
C1    O1    A    
C6    C26   A    
C12   O9    A    
C10   C12   S    
O11   Zn1   S    
C16   O3    D    
O1    Zn1   S    
C3    C28   A    
C20   N2    S    
C28   H1    S    
C20   O7    D    
C22   C23   S    
C14   H4    S    
C8    C28   A    
C4    C26   A    
O15   Zn1   S    
C12   O11   A    
C18   C23   S    
C25   O13   A    
C19   H9    S    
O13   Zn2   S    
C19   C22   S    
C3    C15   S    
N1    Zn2   S    
C24   O14   A    
C5    Cl2   S    
C17   H7    S    
C13   C16   S    
C14   O16   D    
C5    C7    A    
C18   H8    S    
O12   Zn1   S    
C11   C17   S    
C6    C8    A    
C21   H2    S    
C25   O15   A    
C15   O2    D    
C25   C26   S    
C5    C27   A    
O10   Zn2   S    
C10   Cl3   S    
C21   O8    D    
C15   H5    S    
C23   N2    D    
C22   N1    D    
C18   O5    D    
C16   H6    S    
C10   C13   D    
