data_mof_unit_42299.cif
_audit_creation_date              2012-12-11T15:29:41-0500
_audit_creation_method            fapswitch 2.2
_symmetry_space_group_name_H-M    P1
_symmetry_Int_Tables_number       1
_space_group_crystal_system       triclinic
_cell_length_a                    21.41989
_cell_length_b                    7.246633
_cell_length_c                    14.906833
_cell_angle_alpha                 90.001261
_cell_angle_beta                  73.803617
_cell_angle_gamma                 89.999655
_cell_volume                      2222.03516207

loop_
_atom_site_label
_atom_site_type_symbol
_atom_type_description
_atom_site_fract_x
_atom_site_fract_y
_atom_site_fract_z
_atom_type_partial_charge
O1    O     O_R   0.464160 0.506670 0.130070 -0.532396
O2    O     O_R   0.535840 0.006670 0.869930 -0.532404
O3    O     O_R   0.589710 0.179080 0.006710 -0.539267
O4    O     O_R   0.410290 0.679080 0.993290 -0.539249
C1    C     C_R   0.615837 0.344336 0.004149 0.667740
C2    C     C_R   0.384163 0.844335 0.995851 0.667755
O5    O     O_R   0.467940 0.177220 0.138010 -0.538042
O6    O     O_R   0.532060 0.677220 0.861990 -0.538035
O7    O     O_R   0.413200 0.002810 0.002170 -0.537406
O8    O     O_R   0.586800 0.502810 0.997830 -0.537410
C3    C     C_R   0.456311 0.346036 0.174192 0.738163
C4    C     C_R   0.543696 0.846030 0.825809 0.738153
O9    O     O_3   0.482180 0.337850 0.955280 -0.378365
O10   O     O_3   0.517820 0.837850 0.044720 -0.378396
V1    V     V_3+5 0.503310 0.064600 0.008300 1.479381
V2    V     V_3+5 0.496690 0.564600 0.991700 1.479435
C5    C     C_R   0.572428 0.858997 0.724613 -0.112262
C6    C     C_R   0.427574 0.359017 0.275389 -0.112352
C7    C     C_R   0.927898 0.867738 0.275393 -0.052630
C8    C     C_R   0.072103 0.367719 0.724610 -0.052654
C9    C     C_R   0.558631 0.929269 0.573143 -0.095079
C10   C     C_R   0.441360 0.429311 0.426863 -0.094979
C11   C     C_R   0.532841 0.911514 0.669130 -0.178047
C12   C     C_R   0.467154 0.411590 0.330876 -0.177920
C13   C     C_R   0.639665 0.833533 0.684396 -0.055777
C14   C     C_R   0.360338 0.333522 0.315600 -0.055745
C15   C     C_R   0.668094 0.879940 0.588354 0.032860
C16   C     C_R   0.331905 0.379881 0.411648 0.032844
C17   C     C_R   0.625826 0.907369 0.530854 0.043756
C18   C     C_R   0.374171 0.407293 0.469153 0.043715
C19   C     C_R   0.736738 0.899487 0.547675 0.055747
C20   C     C_R   0.263257 0.399403 0.452330 0.055770
C21   C     C_R   0.762906 0.903820 0.449201 0.042378
C22   C     C_R   0.237091 0.403707 0.550803 0.042335
C23   C     C_R   0.719198 0.909859 0.393664 -0.225275
C24   C     C_R   0.280797 0.409624 0.606341 -0.225323
C25   C     C_R   0.651818 0.916343 0.432849 -0.009551
C26   C     C_R   0.348180 0.416124 0.567165 -0.009732
C27   C     C_R   0.779466 0.929634 0.602926 -0.170064
C28   C     C_R   0.220525 0.429536 0.397085 -0.170054
C29   C     C_R   0.846793 0.918091 0.566612 -0.027798
C30   C     C_R   0.153198 0.417937 0.433395 -0.027796
C31   C     C_R   0.873460 0.889332 0.469735 0.046060
C32   C     C_R   0.126537 0.389196 0.530270 0.046010
C33   C     C_R   0.831982 0.898176 0.409813 0.072682
C34   C     C_R   0.168015 0.398103 0.590191 0.072626
C35   C     C_R   0.940479 0.853904 0.430799 -0.074621
C36   C     C_R   0.059523 0.353736 0.569206 -0.074594
C37   C     C_R   0.967161 0.841595 0.334508 -0.148858
C38   C     C_R   0.032844 0.341464 0.665499 -0.148886
C39   C     C_R   0.861453 0.899246 0.312448 -0.192917
C40   C     C_R   0.138544 0.399292 0.687553 -0.192749
H1    H     H_    0.834478 0.927833 0.263308 0.149378
H2    H     H_    0.165512 0.428054 0.736683 0.149420
H3    H     H_    0.018820 0.817376 0.305927 0.138235
H4    H     H_    0.981188 0.317201 0.694084 0.138292
H5    H     H_    0.525541 0.966792 0.533125 0.174085
H6    H     H_    0.474443 0.466912 0.466881 0.174153
H7    H     H_    0.481309 0.934571 0.700108 0.138230
H8    H     H_    0.518683 0.434716 0.299898 0.138373
H9    H     H_    0.735846 0.909091 0.318580 0.156181
H10   H     H_    0.264141 0.408693 0.681423 0.156395
H11   H     H_    0.760804 0.970374 0.675130 0.154449
H12   H     H_    0.239179 0.470293 0.324887 0.154423
H13   H     H_    0.972846 0.832800 0.473961 0.177379
H14   H     H_    0.027160 0.332577 0.526038 0.177400
C41   C     C_3   0.224493 0.703170 0.933728 -0.279109
C42   C     C_3   0.775493 0.203280 0.066332 -0.279199
H15   H     H_    0.202339 0.569097 0.962295 0.175030
H16   H     H_    0.797649 0.069170 0.037831 0.175223
H17   H     H_    0.218988 0.713514 0.862052 0.186217
H18   H     H_    0.780980 0.213773 0.138009 0.186258
C43   C     C_3   0.297604 0.699636 0.930317 -0.296684
C44   C     C_3   0.702390 0.199690 0.069708 -0.296831
H19   H     H_    0.327743 0.721577 0.857256 0.193617
H20   H     H_    0.672235 0.221646 0.142758 0.193651
H21   H     H_    0.309814 0.560542 0.952225 0.158620
H22   H     H_    0.690194 0.060575 0.047802 0.158589
H23   H     H_    0.171124 0.695547 0.124120 0.161133
H24   H     H_    0.828845 0.195316 0.875968 0.161187
H25   H     H_    0.278512 0.684243 0.121816 0.174476
H26   H     H_    0.721473 0.184183 0.878195 0.174474
C45   C     C_3   0.195154 0.827958 0.096260 -0.364360
C46   C     C_3   0.804845 0.327801 0.903757 -0.364383
C47   C     C_3   0.223810 0.051213 0.962152 -0.092367
C48   C     C_3   0.776200 0.551274 0.037780 -0.092314
C49   C     C_3   0.188269 0.863653 0.996760 0.018917
C50   C     C_3   0.811731 0.363662 0.003242 0.018936
H27   H     H_    0.201954 0.158007 0.015645 0.112586
H28   H     H_    0.798049 0.657963 0.984233 0.112611
C51   C     C_3   0.313345 0.851209 0.994737 0.057507
C52   C     C_3   0.686655 0.351214 0.005263 0.057608
C53   C     C_3   0.267939 0.820520 0.094865 -0.303506
C54   C     C_3   0.732061 0.320451 0.905141 -0.303492
C55   C     C_3   0.297005 0.039711 0.957295 -0.368784
C56   C     C_3   0.703000 0.539742 0.042676 -0.368850
H29   H     H_    0.328412 0.058900 0.884545 0.162013
H30   H     H_    0.671609 0.558942 0.115436 0.162033
H31   H     H_    0.309085 0.155137 0.998388 0.145346
H32   H     H_    0.690903 0.655149 0.001587 0.145355
H33   H     H_    0.170129 0.938876 0.144706 0.158276
H34   H     H_    0.829898 0.438595 0.855264 0.158217
H35   H     H_    0.277596 0.927099 0.142638 0.180155
H36   H     H_    0.722423 0.427038 0.857356 0.180109
O11   O     O_R   0.913210 0.208550 0.002110 -0.538581
O12   O     O_R   0.086790 0.708550 0.997890 -0.538608
O13   O     O_R   0.032060 0.539960 0.861980 -0.542363
O14   O     O_R   0.967940 0.039960 0.138020 -0.542339
C57   C     C_R   0.043821 0.372851 0.825672 0.729950
C58   C     C_R   0.956180 0.872854 0.174329 0.729954
O15   O     O_R   0.910290 0.538020 0.993280 -0.535650
O16   O     O_R   0.089710 0.038020 0.006720 -0.535661
O17   O     O_R   0.964160 0.712340 0.130090 -0.527362
O18   O     O_R   0.035840 0.212340 0.869910 -0.527346
C59   C     C_R   0.883635 0.370161 0.999925 0.641794
C60   C     C_R   0.116365 0.870159 0.000078 0.641772
O19   O     O_3   0.017820 0.379210 0.044690 -0.378061
O20   O     O_3   0.982180 0.879210 0.955310 -0.378022
V3    V     V_3+5 0.996690 0.652500 0.991710 1.476935
V4    V     V_3+5 0.003310 0.152500 0.008290 1.476943
C61   C     C_2   0.610159 0.920222 0.368011 0.743433
O21   O     O_2   0.625009 0.018916 0.298763 -0.572647
O22   O     O_R   0.555651 0.805538 0.383747 -0.674099
H37   H     H_    0.531844 0.819592 0.334119 0.295794
C62   C     C_2   0.389834 0.419759 0.632019 0.743470
O23   O     O_2   0.374898 0.517922 0.701448 -0.572682
O24   O     O_R   0.444435 0.305396 0.616089 -0.674134
H38   H     H_    0.468214 0.319191 0.665761 0.295825
C63   C     C_2   0.215109 0.117833 0.870236 0.725426
O25   O     O_2   0.185169 0.260512 0.868499 -0.591537
O26   O     O_R   0.241905 0.019801 0.787679 -0.666254
H39   H     H_    0.231692 0.078004 0.731585 0.295570
C64   C     C_2   0.784921 0.618109 0.129649 0.725317
O27   O     O_2   0.814851 0.760835 0.131307 -0.591572
O28   O     O_R   0.758152 0.520215 0.212250 -0.666225
H40   H     H_    0.768378 0.578550 0.268299 0.295566
C65   C     C_2   0.886805 0.944709 0.632732 0.737606
O29   O     O_2   0.938444 0.027803 0.608463 -0.581353
O30   O     O_R   0.863605 0.881509 0.724742 -0.667747
H41   H     H_    0.894362 0.910222 0.763716 0.285113
C66   C     C_2   0.113184 0.444506 0.367276 0.737598
O31   O     O_2   0.061553 0.527646 0.391532 -0.581293
O32   O     O_R   0.136369 0.381192 0.275283 -0.667743
H42   H     H_    0.105612 0.409853 0.236307 0.285133
C67   C     C_2   0.677590 0.740544 0.740727 0.716997
O33   O     O_2   0.709770 0.603533 0.709861 -0.552738
O34   O     O_R   0.678999 0.815204 0.826556 -0.679311
H43   H     H_    0.713007 0.754421 0.852035 0.281391
C68   C     C_2   0.322421 0.240576 0.259244 0.716986
O35   O     O_2   0.290240 0.103554 0.290084 -0.552761
O36   O     O_R   0.321017 0.315301 0.173429 -0.679297
H44   H     H_    0.287020 0.254520 0.147924 0.281373

loop_
_geom_bond_atom_site_label_1
_geom_bond_atom_site_label_2
_ccdc_geom_bond_type
C45   C49   S    
C3    C6    S    
H26   C54   S    
O12   V3    S    
C15   C17   A    
C21   C33   A    
O14   V4    S    
O34   H43   S    
O1    C3    A    
H24   C46   S    
O2    C4    A    
C53   H35   S    
C2    O7    A    
C67   O33   D    
O22   H37   S    
C27   C29   A    
C11   H7    S    
C65   O30   S    
C5    C11   A    
C44   H20   S    
C6    C12   A    
C23   C25   A    
C68   O36   S    
C48   C50   S    
C41   H17   S    
C33   C39   A    
C42   C44   S    
O32   H42   S    
C45   C53   S    
C34   C40   A    
C52   C56   S    
C46   H34   S    
C18   C26   A    
O15   V3    S    
C44   C52   S    
O20   V3    S    
C8    C38   A    
C47   C63   S    
O17   V3    S    
C40   H2    S    
C56   H30   S    
C4    C5    S    
O36   H44   S    
C19   C21   A    
O11   V4    S    
C22   C34   A    
O28   H40   S    
C29   C31   A    
C29   C65   S    
C12   H8    S    
C36   C38   A    
C54   H36   S    
O6    V2    S    
O13   C57   A    
C30   C32   A    
C24   H10   S    
O13   V3    S    
C67   O34   S    
C32   C34   A    
C47   C49   S    
C15   C19   A    
C16   C20   A    
C43   C51   S    
C35   C37   A    
C48   H28   S    
O19   V4    S    
O16   V4    S    
C47   H27   S    
O5    V1    S    
C37   H3    S    
C9    C17   A    
C38   H4    S    
O12   C60   A    
C42   H18   S    
C39   H1    S    
C20   C22   A    
O4    V2    S    
O5    C3    A    
C9    H5    S    
C51   C53   S    
H25   C53   S    
C7    C37   A    
C48   C64   S    
C19   C27   A    
O6    C4    A    
C6    C14   A    
C30   C66   S    
C52   C54   S    
C61   O21   D    
C23   H9    S    
O1    V2    S    
C46   C54   S    
O2    V1    S    
C31   C33   A    
C58   O17   A    
C49   C60   S    
C48   C56   S    
C57   O18   A    
C25   C61   S    
C41   C43   S    
O4    C2    A    
C9    C11   A    
C64   O27   D    
C42   C50   S    
C10   C12   A    
C43   H19   S    
O24   H38   S    
O16   C60   A    
C26   C62   S    
O3    V1    S    
C64   O28   S    
C63   O25   D    
C7    C58   S    
C41   H15   S    
C43   H21   S    
C10   C18   A    
C41   C49   S    
O11   C59   A    
C14   C68   S    
C46   C50   S    
O3    C1    A    
C10   H6    S    
O15   C59   A    
O30   H41   S    
C55   H29   S    
C13   C15   A    
C27   H11   S    
C65   O29   D    
C14   C16   A    
C28   H12   S    
C5    C13   A    
C50   C59   S    
C66   O32   S    
O7    V1    S    
C16   C18   A    
C8    C40   A    
C32   C36   A    
O8    V2    S    
C68   O35   D    
C24   C26   A    
H23   C45   S    
C47   C55   S    
C62   O23   D    
C56   H32   S    
C28   C30   A    
C21   C23   A    
C22   C24   A    
O14   C58   A    
C55   H31   S    
C20   C28   A    
O26   H39   S    
C61   O22   S    
C1    C52   S    
C51   C55   S    
C8    C57   S    
C7    C39   A    
C1    O8    A    
C42   H16   S    
C44   H22   S    
O9    V2    S    
C17   C25   A    
C62   O24   S    
C45   H33   S    
O10   V1    S    
C13   C67   S    
C36   H14   S    
C66   O31   D    
C31   C35   A    
C35   H13   S    
O18   V4    S    
C2    C51   S    
C63   O26   S    
