data_mof_unit_46320.cif
_audit_creation_date              2013-03-05T16:30:29-0500
_audit_creation_method            fapswitch 2.2
_symmetry_space_group_name_H-M    P1
_symmetry_Int_Tables_number       1
_space_group_crystal_system       triclinic
_cell_length_a                    8.576233
_cell_length_b                    14.963588
_cell_length_c                    14.279936
_cell_angle_alpha                 89.234499
_cell_angle_beta                  98.440218
_cell_angle_gamma                 91.664447
_cell_volume                      1811.87258303

loop_
_atom_site_label
_atom_site_type_symbol
_atom_site_description
_atom_site_fract_x
_atom_site_fract_y
_atom_site_fract_z
_atom_type_partial_charge
O1    O     O_R   0.500010 0.369070 0.579480 -0.587077
O2    O     O_R   0.499990 0.630930 0.420520 -0.597874
O3    O     O_R   0.500010 0.369060 0.420520 -0.582017
O4    O     O_R   0.499990 0.630940 0.579480 -0.567966
C1    C     C_R   0.501198 0.328421 0.500743 0.946068
C2    C     C_R   0.491992 0.671965 0.498726 0.932757
O5    O     O_R   0.271750 0.500000 0.560890 -0.585311
O6    O     O_R   0.728250 0.500000 0.439110 -0.600762
O7    O     O_R   0.271750 0.499990 0.401930 -0.592481
O8    O     O_R   0.728250 0.500010 0.598070 -0.583132
C3    C     C_R   0.201361 0.498517 0.475372 0.979083
C4    C     C_R   0.798691 0.500984 0.524756 1.017013
Zn1   Zn    Zn3+2 0.500000 0.500010 0.606140 1.105628
Zn2   Zn    Zn3+2 0.500000 0.499990 0.393860 1.084491
C5    C     C_2   0.036252 0.494106 0.462720 -0.250420
C6    C     C_2   0.963976 0.503113 0.538070 -0.233175
H1    H     H_    0.974558 0.482113 0.391917 0.232147
H2    H     H_    0.025677 0.513341 0.609456 0.218972
C7    C     C_R   0.343267 0.097738 0.509973 -0.114133
C8    C     C_R   0.528218 0.907904 0.420825 -0.146551
H3    H     H_    0.232029 0.064619 0.518246 0.170518
H4    H     H_    0.578199 0.944299 0.365689 0.169968
C9    C     C_R   0.356179 0.189769 0.514967 -0.106801
C10   C     C_R   0.534277 0.816081 0.423710 -0.177834
H5    H     H_    0.254847 0.227435 0.526881 0.209802
H6    H     H_    0.590901 0.783320 0.371243 0.225037
C11   C     C_R   0.497873 0.233145 0.502056 -0.131747
C12   C     C_R   0.472032 0.767637 0.494831 -0.151068
C13   C     C_R   0.629811 0.185325 0.485373 0.302797
C14   C     C_R   0.393315 0.811763 0.560592 0.329034
C15   C     C_R   0.615581 0.092807 0.481049 -0.195932
C16   C     C_R   0.393645 0.904735 0.559106 -0.192205
H7    H     H_    0.717118 0.054558 0.470967 0.181607
H8    H     H_    0.339981 0.939795 0.611552 0.186322
C17   C     C_R   0.472966 0.049196 0.492996 0.052637
C18   C     C_R   0.462622 0.952501 0.490219 0.065701
C19   C     C_R   0.371633 0.460518 0.094447 -0.276746
C20   C     C_R   0.562269 0.571321 0.900485 -0.273249
H9    H     H_    0.270797 0.430203 0.050543 0.193426
H10   H     H_    0.613557 0.628365 0.940892 0.194967
C21   C     C_R   0.375955 0.460215 0.193850 0.390723
C22   C     C_R   0.567073 0.570142 0.802150 0.400699
N1    N     N_R   0.500000 0.499980 0.252470 -0.203821
N2    N     N_R   0.500000 0.500020 0.747530 -0.203915
C23   C     C_R   0.622591 0.538848 0.212059 0.390209
C24   C     C_R   0.430221 0.429851 0.790729 0.390656
C25   C     C_R   0.621802 0.537377 0.113161 -0.265309
C26   C     C_R   0.428486 0.428544 0.889494 -0.276372
H11   H     H_    0.721108 0.566956 0.084023 0.201933
H12   H     H_    0.375847 0.371281 0.921348 0.194028
C27   C     C_R   0.495442 0.499128 0.052357 0.060310
C28   C     C_R   0.494315 0.499791 0.946259 0.065429
N3    N     N_R   0.778208 0.228953 0.475022 0.205796
O9    O     O_R   0.829369 0.297444 0.526909 -0.403768
O10   O     O_R   0.872223 0.193253 0.423179 -0.366161
N4    N     N_R   0.307186 0.763937 0.625502 0.227974
O11   O     O_R   0.213524 0.696996 0.595796 -0.389839
O12   O     O_R   0.298163 0.797279 0.708183 -0.309400
N5    N     N_R   0.248129 0.416909 0.231889 0.228988
O13   O     O_R   0.271475 0.341944 0.278084 -0.351784
O14   O     O_R   0.104282 0.437907 0.198768 -0.342759
N6    N     N_R   0.646034 0.642988 0.761237 0.228482
O15   O     O_R   0.772671 0.628398 0.724443 -0.347224
O16   O     O_R   0.616993 0.724609 0.782180 -0.330372
N7    N     N_R   0.754236 0.582592 0.268259 0.212646
O17   O     O_R   0.730445 0.647383 0.323447 -0.389452
O18   O     O_R   0.894353 0.576028 0.244716 -0.364825
N8    N     N_R   0.358236 0.356042 0.736739 0.224123
O19   O     O_R   0.224901 0.366391 0.681924 -0.366729
O20   O     O_R   0.403839 0.275459 0.759536 -0.361759

loop_
_geom_bond_atom_site_label_1
_geom_bond_atom_site_label_2
_geom_bond_distance
_ccdc_geom_bond_type
C7    C9    1.380307 A    
O7    Zn2   1.977728 S    
C15   H7    1.083774 S    
C12   C14   1.414966 A    
C24   N8    1.427846 S    
N6    O15   1.299087 A    
C27   C28   1.513588 S    
C9    C11   1.395964 A    
N4    O12   1.301426 A    
C11   C13   1.407081 A    
N1    C23   1.382118 A    
C22   N6    1.429813 S    
O5    C3    1.280525 A    
C17   C18   1.447760 S    
N7    O18   1.301174 A    
C26   C28   1.402203 A    
O6    C4    1.282193 A    
C3    C5    1.400671 S    
N3    O10   1.301676 A    
N6    O16   1.300937 A    
O2    Zn2   2.000967 S    
N5    O13   1.299255 A    
C19   H9    1.082752 S    
C6    H2    1.087982 S    
C7    C17   1.398020 A    
N3    O9    1.300231 A    
C14   C16   1.390992 A    
C21   N1    1.379004 A    
O8    C4    1.282951 A    
O7    C3    1.284229 A    
O2    C2    1.293134 A    
O3    Zn2   1.990828 S    
C22   N2    1.376708 A    
C13   C15   1.387638 A    
O1    C1    1.286963 A    
C16   C18   1.398565 A    
C26   H12   1.082737 S    
C20   H10   1.082524 S    
C10   H6    1.080724 S    
C20   C22   1.411212 A    
C15   C17   1.401008 A    
C9    H5    1.084561 S    
C19   C21   1.414449 A    
C4    C6    1.401772 S    
C19   C27   1.401759 A    
O6    Zn2   1.969290 S    
N5    O14   1.300625 A    
O4    C2    1.292919 A    
C20   C28   1.403366 A    
C5    C6    1.328400 D    
C8    C18   1.395324 A    
C24   C26   1.412480 A    
C8    C10   1.376321 A    
O5    Zn1   1.969292 S    
O1    Zn1   2.000967 S    
N4    O11   1.301206 A    
C21   N5    1.428606 S    
C25   H11   1.082397 S    
N7    O17   1.296819 A    
C23   C25   1.411744 A    
O4    Zn1   1.990828 S    
C5    H1    1.084759 S    
N8    O20   1.300952 A    
N8    O19   1.299462 A    
C25   C27   1.398893 A    
N2    C24   1.376842 A    
C7    H3    1.083383 S    
C1    C11   1.425052 S    
C23   N7    1.432595 S    
C14   N4    1.438580 S    
Zn1   N2    2.019044 S    
C2    C12   1.446100 S    
C10   C12   1.399600 A    
C13   N3    1.439495 S    
C8    H4    1.083641 S    
Zn2   N1    2.019044 S    
O3    C1    1.288632 A    
O8    Zn1   1.977727 S    
C16   H8    1.083352 S    
