data_mof_unit_16204.cif
_audit_creation_date              2012-12-10T17:19:04-0500
_audit_creation_method            fapswitch 2.2
_symmetry_space_group_name_H-M    P1
_symmetry_Int_Tables_number       1
_space_group_crystal_system       triclinic
_cell_length_a                    18.408235
_cell_length_b                    18.399338
_cell_length_c                    34.217929
_cell_angle_alpha                 90.015671
_cell_angle_beta                  90.175463
_cell_angle_gamma                 90.068951
_cell_volume                      11589.5267085

loop_
_atom_site_label
_atom_site_type_symbol
_atom_type_description
_atom_site_fract_x
_atom_site_fract_y
_atom_site_fract_z
_atom_type_partial_charge
C1    C     C_R   0.627590 0.036156 0.521069 0.376526
C2    C     C_R   0.869175 0.477768 0.979738 0.372840
C3    C     C_R   0.486253 0.934699 0.958299 -0.157427
C4    C     C_R   0.933713 0.491915 0.041355 -0.156369
C5    C     C_R   0.064100 0.517916 0.959538 -0.161031
C6    C     C_R   0.478144 0.937110 0.040353 -0.162895
C7    C     C_R   0.513963 0.065348 0.958375 -0.152468
C8    C     C_R   0.999591 0.499205 0.644390 1.013767
C9    C     C_R   0.000379 0.499673 0.355595 1.017460
C10   C     C_R   0.499908 0.999977 0.644433 0.995968
C11   C     C_R   0.499993 0.000010 0.355853 0.958389
C12   C     C_R   0.499908 0.000029 0.144125 0.956999
C13   C     C_R   0.531339 0.128920 0.019876 0.315178
C14   C     C_R   0.500095 0.000003 0.855540 0.996158
C15   C     C_R   0.999975 0.500000 0.144397 0.987782
C16   C     C_R   0.999996 0.500022 0.855840 0.958237
C17   C     C_R   0.859394 0.640074 0.750078 0.829310
C18   C     C_R   0.139590 0.359921 0.250163 0.845023
C19   C     C_R   0.360026 0.859402 0.750128 0.847896
C20   C     C_R   0.639940 0.139863 0.250097 0.822495
C21   C     C_R   0.140203 0.359512 0.749942 0.864417
C22   C     C_R   0.860414 0.640039 0.250095 0.857707
C23   C     C_R   0.640069 0.140550 0.750134 0.845694
C24   C     C_R   0.461552 0.872899 0.978936 0.371042
C25   C     C_R   0.360138 0.860171 0.249972 0.820570
C26   C     C_R   0.860034 0.359464 0.250100 0.844016
C27   C     C_R   0.139892 0.639834 0.750099 0.817747
C28   C     C_R   0.359579 0.140350 0.249981 0.860899
C29   C     C_R   0.639646 0.859884 0.750186 0.840858
C30   C     C_R   0.140499 0.640184 0.249937 0.862050
C31   C     C_R   0.860080 0.360148 0.750037 0.806802
C32   C     C_R   0.640225 0.859522 0.249932 0.858331
C33   C     C_R   0.360194 0.139829 0.749965 0.789451
C34   C     C_R   0.297263 0.606642 0.734307 0.165289
C35   C     C_R   0.870151 0.471944 0.020594 0.371586
C36   C     C_R   0.734882 0.354131 0.308733 0.153773
C37   C     C_R   0.392303 0.297586 0.734995 0.170097
C38   C     C_R   0.637628 0.722914 0.302084 0.131448
C39   C     C_R   0.702477 0.393188 0.734348 0.166681
C40   C     C_R   0.276107 0.637766 0.302925 0.126888
C41   C     C_R   0.606418 0.702929 0.735242 0.152786
C42   C     C_R   0.362735 0.276634 0.302189 0.123962
C43   C     C_R   0.297510 0.393410 0.263210 0.163246
C44   C     C_R   0.723089 0.635808 0.697628 0.121287
C45   C     C_R   0.393331 0.702570 0.264309 0.161307
C46   C     C_R   0.130600 0.523174 0.980198 0.369721
C47   C     C_R   0.638631 0.274471 0.696209 0.124624
C48   C     C_R   0.702729 0.606129 0.263208 0.163274
C49   C     C_R   0.274090 0.361117 0.696351 0.135084
C50   C     C_R   0.611795 0.297177 0.271209 0.160562
C51   C     C_R   0.360601 0.725350 0.696152 0.125558
C52   C     C_R   0.796868 0.107884 0.231478 0.157545
C53   C     C_R   0.231563 0.856999 0.806889 0.144928
C54   C     C_R   0.892145 0.797081 0.234859 0.160737
C55   C     C_R   0.137647 0.223500 0.802508 0.125737
C56   C     C_R   0.202409 0.891945 0.234368 0.157105
C57   C     C_R   0.468242 0.871190 0.019713 0.375576
C58   C     C_R   0.769769 0.142420 0.806469 0.143446
C59   C     C_R   0.106912 0.202891 0.235693 0.154803
C60   C     C_R   0.859762 0.772175 0.804715 0.143768
C61   C     C_R   0.798147 0.891085 0.765685 0.166296
C62   C     C_R   0.223312 0.135979 0.197793 0.129678
C63   C     C_R   0.890004 0.202160 0.767953 0.158215
C64   C     C_R   0.139282 0.773315 0.195831 0.132248
C65   C     C_R   0.202581 0.106422 0.763784 0.168323
C66   C     C_R   0.774641 0.862684 0.196931 0.124664
C67   C     C_R   0.110471 0.797719 0.768533 0.165557
C68   C     C_R   0.538474 0.127162 0.979148 0.372849
C69   C     C_R   0.857814 0.228694 0.194116 0.130221
C70   C     C_R   0.354971 0.595987 0.708485 -0.150285
C71   C     C_R   0.665341 0.377639 0.319199 -0.179183
C72   C     C_R   0.403212 0.355930 0.709524 -0.140197
C73   C     C_R   0.615816 0.651310 0.309896 -0.253464
C74   C     C_R   0.644130 0.403750 0.708746 -0.143559
C75   C     C_R   0.347492 0.615766 0.311011 -0.261659
C76   C     C_R   0.594386 0.642383 0.711288 -0.195524
C77   C     C_R   0.385157 0.348156 0.309767 -0.252431
C78   C     C_R   0.356723 0.405339 0.288051 -0.128295
C79   C     C_R   0.311999 0.736992 0.727877 0.069888
C80   C     C_R   0.651640 0.613112 0.690122 -0.233479
C81   C     C_R   0.404914 0.643917 0.289486 -0.149162
C82   C     C_R   0.616531 0.345537 0.687440 -0.261816
C83   C     C_R   0.644176 0.594055 0.288279 -0.129547
C84   C     C_R   0.345251 0.383419 0.687997 -0.256661
C85   C     C_R   0.604835 0.353509 0.298410 -0.191833
C86   C     C_R   0.382319 0.654242 0.687216 -0.265171
C87   C     C_R   0.853232 0.098788 0.204631 -0.171690
C88   C     C_R   0.161470 0.880925 0.815938 -0.184188
C89   C     C_R   0.903483 0.857509 0.210762 -0.199424
C90   C     C_R   0.681863 0.266302 0.264860 0.040600
C91   C     C_R   0.115612 0.151988 0.810359 -0.251819
C92   C     C_R   0.143914 0.902447 0.208852 -0.167042
C93   C     C_R   0.840049 0.118345 0.815184 -0.183810
C94   C     C_R   0.094780 0.142052 0.211963 -0.200093
C95   C     C_R   0.884093 0.842838 0.812434 -0.181871
C96   C     C_R   0.857335 0.901098 0.790849 -0.159967
C97   C     C_R   0.151881 0.112782 0.190673 -0.229710
C98   C     C_R   0.898990 0.144036 0.793859 -0.181914
C99   C     C_R   0.116643 0.844327 0.187348 -0.270047
C100  C     C_R   0.143912 0.094603 0.788819 -0.131334
C101  C     C_R   0.262032 0.311513 0.727659 0.054042
C102  C     C_R   0.845806 0.886013 0.189428 -0.228117
C103  C     C_R   0.102045 0.855495 0.794705 -0.183456
C104  C     C_R   0.879259 0.158176 0.183788 -0.264174
C105  C     C_R   0.499846 0.999787 0.521024 -0.069069
C106  C     C_R   0.499873 0.999883 0.480067 -0.067200
C107  C     C_R   0.000529 0.500045 0.520625 -0.070909
C108  C     C_R   0.999272 0.500180 0.479325 -0.069609
C109  C     C_R   0.999895 0.500333 0.020916 -0.067728
C110  C     C_R   0.999901 0.500342 0.979992 -0.066293
C111  C     C_R   0.499870 0.000052 0.019839 -0.059461
C112  C     C_R   0.370551 0.970591 0.479817 0.373784
C113  C     C_R   0.731805 0.677819 0.260058 -0.000599
C114  C     C_R   0.500021 0.000030 0.978886 -0.065457
C115  C     C_R   0.687797 0.262843 0.727838 0.072244
C116  C     C_R   0.321844 0.731878 0.260869 0.017820
C117  C     C_R   0.736312 0.687009 0.728143 0.052618
C118  C     C_R   0.268114 0.321810 0.260220 -0.009556
C119  C     C_R   0.312300 0.263306 0.271319 0.062962
C120  C     C_R   0.677901 0.731815 0.738578 0.052679
C121  C     C_R   0.263232 0.687740 0.271833 0.061760
C122  C     C_R   0.731764 0.321846 0.738591 0.007523
C123  C     C_R   0.687578 0.736263 0.271142 0.063020
C124  C     C_R   0.018960 0.630389 0.518743 0.391521
C125  C     C_R   0.321004 0.267837 0.738643 0.009883
C126  C     C_R   0.742522 0.307848 0.275538 0.010253
C127  C     C_R   0.268145 0.678021 0.738673 0.020011
C128  C     C_R   0.810831 0.238452 0.226702 0.071190
C129  C     C_R   0.180962 0.766871 0.763575 0.037964
C130  C     C_R   0.762124 0.811782 0.227560 0.035992
C131  C     C_R   0.231875 0.178032 0.760586 0.012478
C132  C     C_R   0.188770 0.761620 0.227304 0.056181
C133  C     C_R   0.819401 0.233008 0.763279 0.039039
C134  C     C_R   0.236774 0.187500 0.228082 0.036358
C135  C     C_R   0.989482 0.368196 0.479676 0.375485
C136  C     C_R   0.767504 0.820124 0.761904 0.016500
C137  C     C_R   0.810335 0.760724 0.773074 0.011407
C138  C     C_R   0.178353 0.232102 0.238652 0.053629
C139  C     C_R   0.759584 0.190694 0.774285 0.013605
C140  C     C_R   0.232293 0.820761 0.238256 0.017202
C141  C     C_R   0.187708 0.236587 0.771583 0.056747
C142  C     C_R   0.820920 0.767577 0.238123 0.051455
C143  C     C_R   0.241038 0.809064 0.774510 0.010394
C144  C     C_R   0.767652 0.178862 0.237262 0.018129
C145  C     C_R   0.304517 0.801770 0.750788 -0.173010
C146  C     C_R   0.372088 0.963444 0.520553 0.382192
C147  C     C_R   0.696503 0.195204 0.250688 -0.159140
C148  C     C_R   0.196553 0.302559 0.749755 -0.151735
C149  C     C_R   0.804155 0.695338 0.249408 -0.163678
C150  C     C_R   0.695673 0.198064 0.750726 -0.166400
C151  C     C_R   0.304540 0.804137 0.249729 -0.157107
C152  C     C_R   0.801956 0.695795 0.750405 -0.174903
C153  C     C_R   0.195602 0.304432 0.249674 -0.174250
C154  C     C_R   0.302919 0.197002 0.249809 -0.152840
C155  C     C_R   0.695309 0.803877 0.750140 -0.175140
C156  C     C_R   0.197492 0.696412 0.249721 -0.162019
C157  C     C_R   0.629190 0.029264 0.480324 0.377754
C158  C     C_R   0.803693 0.304789 0.750541 -0.168102
C159  C     C_R   0.696551 0.802521 0.249577 -0.153971
C160  C     C_R   0.304206 0.195453 0.749754 -0.181585
C161  C     C_R   0.804605 0.301873 0.250731 -0.174022
C162  C     C_R   0.196378 0.695129 0.750723 -0.157706
C163  C     C_R   0.433389 0.002027 0.581827 0.384205
C164  C     C_R   0.556118 0.035743 0.419420 0.398026
C165  C     C_R   0.983573 0.435569 0.581668 0.374298
C166  C     C_R   0.996699 0.568203 0.417748 0.369501
C167  C     C_R   0.566243 0.997456 0.582046 0.383057
C168  C     C_R   0.001378 0.367700 0.520005 0.376473
C169  C     C_R   0.443675 0.964284 0.419174 0.398469
C170  C     C_R   0.007082 0.567453 0.582326 0.373831
C171  C     C_R   0.011821 0.435093 0.418147 0.370055
C172  C     C_R   0.933926 0.507614 0.081673 0.386792
C173  C     C_R   0.057619 0.533418 0.919338 0.399786
C174  C     C_R   0.463104 0.944458 0.080531 0.398706
C175  C     C_R   0.498950 0.066498 0.917985 0.381480
C176  C     C_R   0.065938 0.492798 0.081859 0.385290
C177  C     C_R   0.942206 0.467069 0.919157 0.396225
C178  C     C_R   0.536425 0.055772 0.080666 0.389250
C179  C     C_R   0.988839 0.631354 0.481459 0.391826
C180  C     C_R   0.501509 0.933572 0.917978 0.383882
C181  C     C_R   0.499836 0.999878 0.602187 -0.276745
C182  C     C_R   0.499923 0.000024 0.398568 -0.286299
C183  C     C_R   0.997848 0.500696 0.602043 -0.288680
C184  C     C_R   0.002037 0.501096 0.397901 -0.289681
C185  C     C_R   0.999933 0.500042 0.102097 -0.276355
C186  C     C_R   0.999971 0.500114 0.898533 -0.285162
C187  C     C_R   0.499744 0.000128 0.101363 -0.300048
C188  C     C_R   0.500280 0.000033 0.897749 -0.273097
C189  C     C_R   0.565369 0.012598 0.541686 -0.155424
C190  C     C_R   0.129564 0.528985 0.021051 0.371842
C191  C     C_R   0.436610 0.979322 0.459369 -0.162623
C192  C     C_R   0.009436 0.566708 0.541020 -0.147732
C193  C     C_R   0.999248 0.433661 0.458703 -0.147999
C194  C     C_R   0.434299 0.986893 0.541447 -0.155348
C195  C     C_R   0.563155 0.020562 0.459622 -0.162545
C196  C     C_R   0.996070 0.433547 0.541112 -0.151406
C197  C     C_R   0.994551 0.567333 0.459063 -0.144818
C198  C     C_R   0.066074 0.508741 0.041574 -0.156316
C199  C     C_R   0.935707 0.482772 0.959319 -0.160083
C200  C     C_R   0.521454 0.063032 0.040446 -0.180500
H1    H     H_    0.048906 0.878904 0.799598 0.151021
H2    H     H_    0.923329 0.852640 0.835492 0.161160
H3    H     H_    0.054247 0.687992 0.336641 0.369600
H4    H     H_    0.664462 0.874332 0.647323 0.372743
H5    H     H_    0.422024 0.798108 0.361786 0.375859
H6    H     H_    0.950036 0.686529 0.663217 0.366735
H7    H     H_    0.149746 0.354054 0.354489 0.379858
H8    H     H_    0.845859 0.641353 0.144775 0.373742
H9    H     H_    0.084617 0.698642 0.861981 0.379981
H10   H     H_    0.296151 0.925695 0.137171 0.376575
H11   H     H_    0.377907 0.166738 0.852464 0.373391
H12   H     H_    0.154757 0.359559 0.145206 0.374047
H13   H     H_    0.121051 0.956076 0.204832 0.152880
H14   H     H_    0.914375 0.301807 0.861799 0.379302
H15   H     H_    0.703698 0.074482 0.137600 0.374482
H16   H     H_    0.623067 0.833659 0.852995 0.380176
H17   H     H_    0.733362 0.203328 0.525920 0.399234
H18   H     H_    0.198692 0.067965 0.475313 0.404611
H19   H     H_    0.123412 0.794879 0.539756 0.398842
H20   H     H_    0.844487 0.233653 0.482356 0.413510
H21   H     H_    0.262237 0.798534 0.523516 0.399111
H22   H     H_    0.801113 0.932003 0.476004 0.398101
H23   H     H_    0.139450 0.226386 0.517325 0.404295
H24   H     H_    0.848971 0.079843 0.838641 0.165127
H25   H     H_    0.891347 0.798970 0.458319 0.391282
H26   H     H_    0.250248 0.685787 0.026762 0.414312
H27   H     H_    0.700615 0.580648 0.974108 0.405418
H28   H     H_    0.420265 0.175184 0.078789 0.345580
H29   H     H_    0.291316 0.772936 0.972971 0.408084
H30   H     H_    0.748428 0.315965 0.025767 0.414156
H31   H     H_    0.299657 0.421119 0.975147 0.412040
H32   H     H_    0.560961 0.696733 0.024063 0.406303
H33   H     H_    0.709793 0.224802 0.973942 0.406185
H34   H     H_    0.957521 0.879686 0.207026 0.147501
H35   H     H_    0.076144 0.141119 0.833026 0.155539
H36   H     H_    0.875506 0.045372 0.199178 0.151890
H37   H     H_    0.153077 0.919142 0.839569 0.165615
H38   H     H_    0.552094 0.376944 0.304324 0.151333
H39   H     H_    0.420979 0.644375 0.664026 0.162418
H40   H     H_    0.622407 0.539793 0.292022 0.150862
H41   H     H_    0.916917 0.149658 0.159975 0.166283
H42   H     H_    0.355386 0.422587 0.665030 0.156253
H43   H     H_    0.458873 0.621667 0.293262 0.152617
H44   H     H_    0.577403 0.355403 0.664353 0.159146
H45   H     H_    0.379041 0.459421 0.291514 0.151252
H46   H     H_    0.640653 0.572915 0.667749 0.154346
H47   H     H_    0.540136 0.620631 0.707553 0.147857
H48   H     H_    0.424943 0.359187 0.332381 0.154183
H49   H     H_    0.621642 0.457470 0.704503 0.149613
H50   H     H_    0.358219 0.576297 0.333773 0.158783
H51   H     H_    0.457069 0.378358 0.705489 0.150273
H52   H     H_    0.121899 0.040445 0.792541 0.149941
H53   H     H_    0.576528 0.640262 0.332630 0.155729
H54   H     H_    0.377061 0.542139 0.704017 0.151095
H55   H     H_    0.658251 0.414740 0.343461 0.167005
H56   H     H_    0.244007 0.564294 0.782189 0.209810
H57   H     H_    0.251864 0.507328 0.743012 0.218077
H58   H     H_    0.838181 0.333943 0.329626 0.228744
H59   H     H_    0.805172 0.419313 0.338671 0.232682
H60   H     H_    0.433981 0.243726 0.782992 0.193768
H61   H     H_    0.491458 0.252128 0.744126 0.218738
H62   H     H_    0.644781 0.763182 0.356851 0.220987
H63   H     H_    0.856225 0.926044 0.166941 0.153884
H64   H     H_    0.564522 0.777936 0.334504 0.232095
H65   H     H_    0.756394 0.435500 0.782211 0.211391
H66   H     H_    0.748235 0.492393 0.743012 0.214632
H67   H     H_    0.235270 0.645163 0.357471 0.230227
H68   H     H_    0.220551 0.564653 0.335352 0.228372
H69   H     H_    0.532402 0.687994 0.777852 0.207000
H70   H     H_    0.503835 0.740400 0.740593 0.210677
H71   H     H_    0.356048 0.236852 0.357033 0.217424
H72   H     H_    0.435930 0.221468 0.334696 0.232516
H73   H     H_    0.241415 0.433592 0.215570 0.198229
H74   H     H_    0.952209 0.120528 0.798474 0.152500
H75   H     H_    0.250792 0.491957 0.254099 0.216684
H76   H     H_    0.762746 0.641968 0.642778 0.224269
H77   H     H_    0.778225 0.562154 0.665400 0.228103
H78   H     H_    0.433965 0.757312 0.216456 0.211147
H79   H     H_    0.492059 0.748884 0.255221 0.213787
H80   H     H_    0.647542 0.231955 0.642086 0.235009
H81   H     H_    0.566636 0.217471 0.663563 0.221656
H82   H     H_    0.758292 0.565865 0.215576 0.196911
H83   H     H_    0.749257 0.507522 0.254088 0.220290
H84   H     H_    0.231908 0.352660 0.642006 0.220644
H85   H     H_    0.077278 0.854200 0.164379 0.163209
H86   H     H_    0.217607 0.433451 0.663783 0.216112
H87   H     H_    0.564810 0.249540 0.222699 0.209755
H88   H     H_    0.510585 0.255632 0.263028 0.217105
H89   H     H_    0.351108 0.768235 0.642121 0.240578
H90   H     H_    0.432360 0.782282 0.663579 0.220235
H91   H     H_    0.746593 0.063203 0.279674 0.208307
H92   H     H_    0.753147 0.007728 0.239818 0.218808
H93   H     H_    0.333245 0.837025 0.830004 0.239442
H94   H     H_    0.300357 0.923104 0.837284 0.239183
H95   H     H_    0.966489 0.812922 0.277465 0.201038
H96   H     H_    0.880629 0.954678 0.794844 0.150183
H97   H     H_    0.995066 0.760367 0.240341 0.207811
H98   H     H_    0.144794 0.264109 0.857201 0.217200
H99   H     H_    0.064523 0.278813 0.834856 0.231940
H100  H     H_    0.256028 0.934001 0.282390 0.209814
H101  H     H_    0.247757 0.991278 0.243334 0.216647
H102  H     H_    0.668721 0.162377 0.830061 0.239881
H103  H     H_    0.701594 0.076134 0.836916 0.238718
H104  H     H_    0.033288 0.188407 0.278541 0.207926
H105  H     H_    0.004247 0.240169 0.241118 0.209424
H106  H     H_    0.839881 0.672320 0.829985 0.218033
H107  H     H_    0.140784 0.072307 0.168460 0.153308
H108  H     H_    0.926590 0.705095 0.835590 0.249969
H109  H     H_    0.744167 0.933711 0.717948 0.192865
H110  H     H_    0.753276 0.990675 0.757138 0.221743
H111  H     H_    0.261931 0.141717 0.142726 0.207214
H112  H     H_    0.278390 0.062491 0.165679 0.232968
H113  H     H_    0.933829 0.253333 0.719779 0.207653
H114  H     H_    0.990119 0.245798 0.759395 0.217723
H115  H     H_    0.067251 0.716232 0.163231 0.222409
H116  H     H_    0.147943 0.731093 0.141607 0.236994
H117  H     H_    0.257554 0.065938 0.715997 0.196155
H118  H     H_    0.040515 0.120165 0.208435 0.149237
H119  H     H_    0.248951 0.007742 0.754626 0.221307
H120  H     H_    0.734487 0.855786 0.142099 0.217191
H121  H     H_    0.718446 0.935390 0.164704 0.235203
H122  H     H_    0.065587 0.747039 0.720313 0.200156
H123  H     H_    0.009985 0.754579 0.760038 0.216566
H124  H     H_    0.846039 0.274885 0.141010 0.239848
H125  H     H_    0.928188 0.287612 0.161680 0.222937
H126  H     H_    0.334506 0.124123 0.647133 0.373483
H127  H     H_    0.577624 0.202136 0.362302 0.377017
H128  H     H_    0.838170 0.364386 0.643878 0.378218
N1    N     N_3   0.277939 0.547338 0.759556 -0.428841
N2    N     N_3   0.777837 0.618538 0.669425 -0.356921
N3    N     N_3   0.451766 0.722955 0.238794 -0.422265
N4    N     N_3   0.622757 0.218130 0.668516 -0.364824
N5    N     N_3   0.723572 0.547844 0.237633 -0.419630
N6    N     N_3   0.218044 0.377263 0.668501 -0.382053
N7    N     N_3   0.550367 0.281886 0.246520 -0.422649
N8    N     N_3   0.376304 0.781798 0.668564 -0.363492
N9    N     N_3   0.779577 0.047465 0.256387 -0.431909
N10   N     N_3   0.286981 0.867920 0.836001 -0.368337
N11   N     N_3   0.950886 0.770987 0.258590 -0.433892
N12   N     N_3   0.792092 0.364105 0.336936 -0.379033
N13   N     N_3   0.120780 0.278697 0.830609 -0.385428
N14   N     N_3   0.221905 0.951091 0.259763 -0.431141
N15   N     N_3   0.715058 0.131303 0.835763 -0.369683
N16   N     N_3   0.048716 0.229818 0.259356 -0.426617
N17   N     N_3   0.871512 0.718743 0.834708 -0.394264
N18   N     N_3   0.778649 0.950491 0.740509 -0.420546
N19   N     N_3   0.277753 0.118889 0.169403 -0.391473
N20   N     N_3   0.949935 0.219882 0.742875 -0.419095
N21   N     N_3   0.123402 0.717060 0.168075 -0.367647
N22   N     N_3   0.223125 0.048029 0.738211 -0.419450
N23   N     N_3   0.451254 0.277934 0.760504 -0.424769
N24   N     N_3   0.719336 0.879077 0.168729 -0.384641
N25   N     N_3   0.050033 0.780403 0.743514 -0.430464
N26   N     N_3   0.872370 0.286824 0.167361 -0.367960
N27   N     N_3   0.620770 0.777921 0.330281 -0.383962
N28   N     N_3   0.722249 0.452495 0.759573 -0.428483
N29   N     N_3   0.220831 0.620924 0.330913 -0.359866
N30   N     N_3   0.548110 0.729654 0.758889 -0.432688
N31   N     N_3   0.379638 0.221749 0.330487 -0.385773
N32   N     N_3   0.276344 0.451661 0.237641 -0.417604
O1    O     O_3   0.000000 0.500000 0.750000 -0.507975
O2    O     O_R   0.060740 0.500000 0.337440 -0.551677
O3    O     O_3   0.612231 0.876842 0.869259 -0.540072
O4    O     O_2   0.660592 0.128681 0.580036 -0.295297
O5    O     O_2   0.762077 0.062616 0.549985 -0.136723
O6    O     O_3   0.703007 0.168018 0.511322 -0.496473
O7    O     O_2   0.298210 0.032654 0.419296 -0.271874
O8    O     O_2   0.237127 0.932159 0.453179 -0.146484
O9    O     O_3   0.245589 0.056493 0.488158 -0.489330
O10   O     O_2   0.146937 0.652105 0.555791 -0.261956
O11   O     O_2   0.139708 0.684377 0.486642 -0.252033
O12   O     O_3   0.076425 0.769471 0.536061 -0.412577
O13   O     O_R   0.500000 0.939260 0.662560 -0.598825
O14   O     O_2   0.899063 0.318408 0.422920 -0.262941
O15   O     O_2   0.979966 0.229272 0.454110 -0.155001
O16   O     O_3   0.869968 0.276565 0.493283 -0.496255
O17   O     O_2   0.339076 0.870131 0.579034 -0.292624
O18   O     O_2   0.237670 0.936982 0.549090 -0.160649
O19   O     O_3   0.296192 0.831923 0.510060 -0.477451
O20   O     O_2   0.701793 0.967880 0.419908 -0.274406
O21   O     O_2   0.762525 0.068321 0.454256 -0.160647
O22   O     O_3   0.754444 0.943689 0.488885 -0.480091
O23   O     O_2   0.087121 0.311344 0.577049 -0.270486
O24   O     O_R   0.500000 0.060740 0.337440 -0.585893
O25   O     O_2   0.002403 0.227695 0.544242 -0.148439
O26   O     O_3   0.116031 0.270454 0.506470 -0.494201
O27   O     O_2   0.859212 0.655848 0.446992 -0.255326
O28   O     O_2   0.874128 0.695216 0.514734 -0.244189
O29   O     O_3   0.937221 0.771357 0.461159 -0.419486
O30   O     O_2   0.169031 0.616630 0.081123 -0.284042
O31   O     O_2   0.265668 0.545303 0.049990 -0.134669
O32   O     O_3   0.213497 0.656037 0.012849 -0.494875
O33   O     O_2   0.800169 0.541478 0.918574 -0.274794
O34   O     O_2   0.734892 0.443826 0.952580 -0.145411
O35   O     O_R   0.560740 0.000000 0.162560 -0.583257
O36   O     O_3   0.747272 0.568421 0.987003 -0.482242
O37   O     O_2   0.572106 0.261361 0.046739 -0.111576
O38   O     O_2   0.454378 0.251977 0.014589 -0.220970
O39   O     O_3   0.465958 0.201427 0.084843 -0.491912
O40   O     O_2   0.368914 0.841606 0.919684 -0.282444
O41   O     O_2   0.432949 0.738862 0.950042 -0.135549
O42   O     O_3   0.328405 0.799756 0.988283 -0.499010
O43   O     O_2   0.830094 0.384555 0.080500 -0.286841
O44   O     O_2   0.733899 0.456357 0.048994 -0.137633
O45   O     O_3   0.785575 0.345331 0.012056 -0.494645
O46   O     O_R   0.439260 1.000000 0.837440 -0.607421
O47   O     O_2   0.200005 0.459795 0.919273 -0.272448
O48   O     O_2   0.264744 0.557786 0.953538 -0.146449
O49   O     O_3   0.252945 0.433145 0.987889 -0.476635
O50   O     O_2   0.528073 0.797300 0.080337 -0.266861
O51   O     O_2   0.426512 0.738588 0.045882 -0.155146
O52   O     O_3   0.551254 0.744219 0.011468 -0.483866
O53   O     O_2   0.631642 0.158384 0.920451 -0.280331
O54   O     O_2   0.567580 0.261209 0.950534 -0.130915
O55   O     O_3   0.671624 0.200023 0.989345 -0.498672
O56   O     O_R   0.000000 0.560740 0.162560 -0.598427
O57   O     O_R   0.000000 0.439260 0.837440 -0.585522
O58   O     O_R   0.439260 0.000000 0.162560 -0.588458
O59   O     O_R   0.560740 1.000000 0.837440 -0.606820
O60   O     O_R   0.000000 0.439260 0.162560 -0.599853
O61   O     O_3   0.000000 0.500000 0.250000 -0.511481
O62   O     O_R   0.000000 0.560740 0.837440 -0.598692
O63   O     O_R   0.853850 0.585450 0.727070 -0.629994
O64   O     O_R   0.146150 0.414550 0.272930 -0.656101
O65   O     O_R   0.414550 0.853850 0.727070 -0.635213
O66   O     O_R   0.585450 0.146150 0.272930 -0.649546
O67   O     O_R   0.146150 0.414550 0.727070 -0.652304
O68   O     O_R   0.853850 0.585450 0.272930 -0.644741
O69   O     O_R   0.585450 0.146150 0.727070 -0.639667
O70   O     O_R   0.414550 0.853850 0.272930 -0.647842
O71   O     O_R   0.853850 0.414550 0.272930 -0.688599
O72   O     O_3   0.500000 0.000000 0.750000 -0.507876
O73   O     O_R   0.146150 0.585450 0.727070 -0.642153
O74   O     O_R   0.414550 0.146150 0.272930 -0.651188
O75   O     O_R   0.585450 0.853850 0.727070 -0.627474
O76   O     O_R   0.146150 0.585450 0.272930 -0.640026
O77   O     O_R   0.853850 0.414550 0.727070 -0.653931
O78   O     O_R   0.585450 0.853850 0.272930 -0.652683
O79   O     O_R   0.414550 0.146150 0.727070 -0.644427
O80   O     O_R   0.353850 0.085450 0.227070 -0.652416
O81   O     O_R   0.646150 0.914550 0.772930 -0.648154
O82   O     O_R   0.914550 0.353850 0.227070 -0.636808
O83   O     O_3   0.500000 1.000000 0.250000 -0.512489
O84   O     O_R   0.085450 0.646150 0.772930 -0.647974
O85   O     O_R   0.646150 0.914550 0.227070 -0.652788
O86   O     O_R   0.353850 0.085450 0.772930 -0.641431
O87   O     O_R   0.085450 0.646150 0.227070 -0.646922
O88   O     O_R   0.914550 0.353850 0.772930 -0.645720
O89   O     O_R   0.353850 0.914550 0.772930 -0.687229
O90   O     O_R   0.646150 0.085450 0.227070 -0.645384
O91   O     O_R   0.914550 0.646150 0.772930 -0.688719
O92   O     O_R   0.085450 0.353850 0.227070 -0.630365
O93   O     O_R   0.646150 0.085450 0.772930 -0.687984
O94   O     O_R   0.060740 0.500000 0.662560 -0.635419
O95   O     O_R   0.353850 0.914550 0.227070 -0.645436
O96   O     O_R   0.085450 0.353850 0.772930 -0.651126
O97   O     O_R   0.914550 0.646150 0.227070 -0.635139
O98   O     O_2   0.298780 0.061592 0.575407 -0.195205
O99   O     O_2   0.322549 0.983315 0.632265 -0.274902
O100  O     O_3   0.377705 0.112932 0.631024 -0.549437
O101  O     O_2   0.651256 0.148929 0.427450 -0.198151
O102  O     O_2   0.653938 0.080331 0.365892 -0.284717
O103  O     O_3   0.547491 0.169790 0.378802 -0.550199
O104  O     O_2   0.901043 0.311917 0.576413 -0.192495
O105  O     O_R   0.939260 0.500000 0.337440 -0.648598
O106  O     O_2   0.976799 0.327651 0.635035 -0.294794
O107  O     O_3   0.858950 0.403719 0.627585 -0.541162
O108  O     O_2   0.933094 0.677683 0.378030 -0.251759
O109  O     O_2   0.041929 0.709214 0.415996 -0.184911
O110  O     O_3   0.058964 0.641722 0.351224 -0.574948
O111  O     O_2   0.700867 0.937849 0.576030 -0.186417
O112  O     O_2   0.676802 0.015264 0.633135 -0.277108
O113  O     O_3   0.621455 0.885753 0.630974 -0.547619
O114  O     O_2   0.348226 0.851309 0.426681 -0.193846
O115  O     O_2   0.345955 0.920057 0.365181 -0.288715
O116  O     O_R   0.500000 0.060740 0.662560 -0.596836
O117  O     O_3   0.452148 0.830303 0.378483 -0.548787
O118  O     O_2   0.073913 0.670095 0.625740 -0.264681
O119  O     O_2   0.973494 0.712114 0.584236 -0.179096
O120  O     O_3   0.941927 0.642838 0.646842 -0.571744
O121  O     O_2   0.087285 0.307399 0.423292 -0.193383
O122  O     O_2   0.009715 0.325580 0.365561 -0.300020
O123  O     O_3   0.132089 0.395028 0.370661 -0.539805
O124  O     O_2   0.803754 0.576282 0.074730 -0.196572
O125  O     O_2   0.823328 0.500752 0.133101 -0.282205
O126  O     O_3   0.887655 0.625889 0.128617 -0.545827
O127  O     O_R   0.500000 0.939260 0.337440 -0.585161
O128  O     O_2   0.156377 0.643246 0.927461 -0.204608
O129  O     O_2   0.156947 0.574608 0.865868 -0.285419
O130  O     O_3   0.053476 0.667566 0.878639 -0.543138
O131  O     O_2   0.348266 0.851365 0.072376 -0.208821
O132  O     O_2   0.416741 0.847240 0.134050 -0.280963
O133  O     O_3   0.329300 0.955376 0.120903 -0.559449
O134  O     O_2   0.441529 0.202109 0.924109 -0.204533
O135  O     O_2   0.518808 0.176891 0.867203 -0.296163
O136  O     O_3   0.388522 0.123539 0.868781 -0.545583
O137  O     O_2   0.196397 0.424728 0.075241 -0.192717
O138  O     O_R   0.939260 0.500000 0.662560 -0.553938
O139  O     O_2   0.176637 0.500220 0.133564 -0.282361
O140  O     O_3   0.112859 0.374795 0.128928 -0.547003
O141  O     O_2   0.842902 0.357748 0.926945 -0.203740
O142  O     O_2   0.842705 0.426323 0.865349 -0.289953
O143  O     O_3   0.945704 0.332872 0.878474 -0.547447
O144  O     O_2   0.651069 0.149170 0.072918 -0.203325
O145  O     O_2   0.582990 0.152735 0.134499 -0.273140
O146  O     O_3   0.670504 0.044865 0.121205 -0.550393
O147  O     O_2   0.559189 0.798098 0.924320 -0.194520
O148  O     O_2   0.482093 0.823140 0.867076 -0.295196
S1    S     S_3+6 0.354613 0.038773 0.605045 0.078214
S2    S     S_3+6 0.109878 0.604990 0.897757 0.093393
S3    S     S_3+6 0.388916 0.895851 0.102035 0.086259
S4    S     S_3+6 0.463199 0.145764 0.894600 0.071157
S5    S     S_3+6 0.141544 0.449122 0.104866 0.078447
S6    S     S_3+6 0.889605 0.395738 0.897400 0.090680
S7    S     S_3+6 0.610649 0.104409 0.102398 0.096490
S8    S     S_3+6 0.537510 0.854394 0.894734 0.079333
S9    S     S_3+6 0.690140 0.098574 0.542482 0.138079
S10   S     S_3+6 0.286339 0.996725 0.458206 0.142661
S11   S     S_3+6 0.098720 0.683508 0.524575 0.122784
S12   S     S_3+6 0.605961 0.109081 0.397826 0.093400
S13   S     S_3+6 0.935021 0.296315 0.460572 0.148182
S14   S     S_3+6 0.309449 0.900880 0.541564 0.129513
S15   S     S_3+6 0.713514 0.003559 0.458947 0.139189
S16   S     S_3+6 0.051179 0.292463 0.538871 0.140385
S17   S     S_3+6 0.911663 0.688077 0.475963 0.133111
S18   S     S_3+6 0.196219 0.586236 0.043116 0.148002
S19   S     S_3+6 0.786330 0.506641 0.957581 0.145274
S20   S     S_3+6 0.506607 0.213576 0.041371 0.163933
S21   S     S_3+6 0.398243 0.811442 0.957368 0.146003
S22   S     S_3+6 0.803153 0.415063 0.042392 0.146880
S23   S     S_3+6 0.930807 0.366041 0.605120 0.080784
S24   S     S_3+6 0.213615 0.494715 0.958336 0.145044
S25   S     S_3+6 0.492217 0.786325 0.041251 0.146526
S26   S     S_3+6 0.602064 0.188539 0.957997 0.149913
S27   S     S_3+6 0.006712 0.651899 0.391045 0.079277
S28   S     S_3+6 0.644856 0.960279 0.605478 0.081416
S29   S     S_3+6 0.393737 0.891113 0.397299 0.092124
S30   S     S_3+6 0.000423 0.650988 0.609445 0.079819
S31   S     S_3+6 0.059324 0.362200 0.394482 0.077194
S32   S     S_3+6 0.858575 0.551657 0.104489 0.078382
Zn1   Zn    Zn3+2 0.000000 0.586740 0.782740 0.992032
Zn2   Zn    Zn3+2 0.500000 0.913260 0.717260 1.029429
Zn3   Zn    Zn3+2 0.913260 0.500000 0.282740 1.000431
Zn4   Zn    Zn3+2 0.086740 0.500000 0.717260 1.010961
Zn5   Zn    Zn3+2 0.500000 0.913260 0.282740 1.010681
Zn6   Zn    Zn3+2 0.500000 0.086740 0.717260 1.016679
Zn7   Zn    Zn3+2 0.086740 0.500000 0.282740 1.033404
Zn8   Zn    Zn3+2 0.913260 0.500000 0.717260 1.024216
Zn9   Zn    Zn3+2 0.000000 0.413260 0.217260 1.023530
Zn10  Zn    Zn3+2 0.413260 0.000000 0.782740 1.000564
Zn11  Zn    Zn3+2 0.586740 0.000000 0.217260 1.010928
Zn12  Zn    Zn3+2 0.000000 0.413260 0.782740 1.012025
Zn13  Zn    Zn3+2 0.000000 0.586740 0.217260 1.023732
Zn14  Zn    Zn3+2 0.586740 0.000000 0.782740 1.003634
Zn15  Zn    Zn3+2 0.413260 0.000000 0.217260 1.008660
Zn16  Zn    Zn3+2 0.500000 0.086740 0.282740 1.011318

loop_
_geom_bond_atom_site_label_1
_geom_bond_atom_site_label_2
_ccdc_geom_bond_type
C48   N5    S    
O69   Zn6   S    
O109  S27   D    
C101  C148  A    
C41   N30   S    
C13   C200  A    
H58   N12   S    
C173  S2    S    
C62   N19   S    
C164  C195  A    
C95   H2    S    
O103  S12   S    
C15   C185  S    
C190  C198  A    
C52   C144  A    
O105  Zn3   S    
C63   C133  A    
H7    O123  S    
H73   N32   S    
C63   C98   A    
C27   C162  S    
C56   C140  A    
H100  N14   S    
C42   C119  A    
O98   S1    D    
H97   N11   S    
C78   H45   S    
C118  C153  A    
C133  C158  A    
O37   S20   D    
C175  C188  A    
C50   C90   A    
O104  S23   D    
C27   O73   A    
C34   C127  A    
C107  C192  A    
C135  C168  A    
C16   O57   A    
C146  C194  A    
O47   S24   D    
C169  S29   S    
C38   C123  A    
C36   C71   A    
O61   Zn7   S    
O119  S30   D    
O92   Zn9   S    
C30   C156  S    
C117  C152  A    
O110  S27   S    
H32   O52   S    
O96   Zn12  S    
C67   C129  A    
H78   N3    S    
O145  S7    D    
C164  S12   S    
C29   O81   A    
C27   O84   A    
C45   C81   A    
C116  C121  A    
C67   N25   S    
C12   O58   A    
O65   Zn2   S    
C165  C183  A    
C105  C189  A    
O128  S2    D    
O67   Zn4   S    
C16   O62   A    
O59   Zn14  S    
H11   O136  S    
C6    C174  A    
C94   C97   A    
O63   Zn8   S    
C30   O87   A    
H77   N2    S    
C120  C155  A    
C177  C186  A    
C2    C199  A    
C112  S10   S    
C130  C159  A    
C43   C78   A    
H28   O39   S    
C44   N2    S    
O10   S11   D    
C103  H1    S    
O147  S8    D    
H72   N31   S    
O29   S17   S    
O27   S17   D    
C58   N15   S    
C122  C158  A    
C10   O116  A    
C92   H13   S    
O91   Zn1   S    
H98   N13   S    
C60   N17   S    
H66   N28   S    
C128  C144  A    
C72   C84   A    
O90   Zn11  S    
C133  C139  A    
O146  S7    S    
C37   N23   S    
C79   C127  A    
C59   N16   S    
C25   O70   A    
O16   S13   S    
C139  C150  A    
C157  C195  A    
H17   O6    S    
H64   N27   S    
C36   C126  A    
O79   Zn6   S    
C9    O105  A    
O17   S14   D    
C33   O79   A    
H15   O146  S    
O36   S19   S    
H87   N7    S    
C75   C81   A    
C5    C46   A    
C26   C161  S    
C163  C194  A    
H57   N1    S    
H62   N27   S    
C77   H48   S    
C106  C195  A    
O52   S25   S    
O51   S25   D    
O12   S11   S    
C112  C191  A    
O61   Zn13  S    
C81   H43   S    
C123  C159  A    
O93   Zn14  S    
C168  S16   S    
H59   N12   S    
O78   Zn5   S    
C169  C182  A    
O43   S22   D    
H123  N25   S    
C43   C118  A    
H86   N6    S    
C60   C95   A    
C15   O60   A    
O84   Zn1   S    
O64   Zn7   S    
C17   O63   A    
O135  S4    D    
C9    C184  S    
C18   O64   A    
C124  S11   S    
C9    O2    A    
C21   O67   A    
C73   C83   A    
H21   O19   S    
C41   C76   A    
C55   N13   S    
C4    C109  A    
C121  C156  A    
C163  C181  A    
C6    C111  A    
C8    O138  A    
O56   Zn13  S    
C70   H54   S    
H91   N9    S    
C61   C96   A    
C67   C103  A    
C39   C122  A    
O107  S23   S    
C49   C84   A    
C19   O89   A    
C174  C187  A    
H29   O42   S    
H70   N30   S    
C5    C110  A    
C104  H41   S    
O144  S7    D    
C91   H35   S    
C166  S27   S    
C66   N24   S    
C85   H38   S    
O139  S5    D    
C108  C197  A    
C128  C161  A    
O6    S9    S    
C98   H74   S    
H90   N8    S    
C64   C99   A    
O120  S30   S    
C19   O65   A    
C69   C128  A    
C24   C57   A    
C11   O127  A    
C107  C108  A    
C94   H118  S    
C23   O69   A    
C111  C114  A    
C75   H50   S    
H84   N6    S    
C131  C141  A    
C33   C160  S    
C45   N3    S    
O26   S16   S    
H127  O103  S    
C11   O24   A    
C7    C68   A    
C41   C120  A    
C3    C24   A    
C26   O71   A    
C36   N12   S    
C144  C147  A    
O83   Zn15  S    
H5    O117  S    
C107  C196  A    
H61   N23   S    
C105  C194  A    
C167  C189  A    
H82   N5    S    
H76   N2    S    
O39   S20   S    
C172  S32   S    
C21   C148  S    
C174  S3    S    
C164  C182  A    
H19   O12   S    
O28   S17   D    
C136  C155  A    
C59   C138  A    
C12   C187  S    
C28   O74   A    
C167  S28   S    
H8    O126  S    
O3    S8    S    
O41   S21   D    
C3    C180  A    
H10   O133  S    
C90   C147  A    
C111  C200  A    
C62   C97   A    
H3    O110  S    
C172  C185  A    
C50   N7    S    
C137  C152  A    
C2    S19   S    
C18   C153  S    
C71   H55   S    
C8    C183  S    
C32   O78   A    
C64   N21   S    
C127  C162  A    
C91   C100  A    
C80   H46   S    
C13   S20   S    
C68   S26   S    
C169  C191  A    
H109  N18   S    
C74   H49   S    
O83   Zn11  S    
O18   S14   D    
O116  Zn6   S    
C146  S14   S    
H16   O3    S    
C34   C70   A    
C83   H40   S    
C4    C172  A    
C5    C173  A    
C76   C80   A    
C176  C198  A    
C136  C137  A    
H83   N5    S    
C3    C114  A    
C63   N20   S    
O73   Zn4   S    
C177  S6    S    
O75   Zn2   S    
C48   C83   A    
C29   C155  S    
C25   C151  S    
C69   N26   S    
O117  S29   S    
O13   Zn2   S    
O1    Zn8   S    
H125  N26   S    
O35   Zn11  S    
C45   C116  A    
C171  S31   S    
C20   O90   A    
C132  C156  A    
H31   O49   S    
O44   S22   D    
O9    S10   S    
O121  S31   D    
C72   H51   S    
C130  C142  A    
C51   C79   A    
C4    C35   A    
C18   O92   A    
H26   O32   S    
C42   C77   A    
O88   Zn12  S    
C177  C199  A    
O55   S26   S    
C102  H63   S    
O32   S18   S    
H115  N21   S    
H71   N31   S    
O89   Zn10  S    
C116  C151  A    
O58   Zn15  S    
C92   C99   A    
O8    S10   D    
C53   N10   S    
O99   S1    D    
C13   C68   A    
C1    C189  A    
C2    C35   A    
C25   O95   A    
H113  N20   S    
O143  S6    S    
H20   O16   S    
C176  C185  A    
C77   C78   A    
C165  S23   S    
O114  S29   D    
C47   C115  A    
H119  N22   S    
O137  S5    D    
O72   Zn14  S    
C7    C114  A    
C65   N22   S    
C58   C93   A    
H110  N18   S    
O80   Zn15  S    
C49   C101  A    
C170  C183  A    
O87   Zn13  S    
C21   O96   A    
O97   Zn13  S    
C143  C145  A    
O122  S31   D    
C124  C179  A    
C55   C91   A    
C180  C188  A    
C50   C85   A    
O53   S26   D    
C51   N8    S    
O113  S28   S    
C64   C132  A    
O77   Zn8   S    
C59   C94   A    
C126  C161  A    
C23   O93   A    
C171  C193  A    
H4    O113  S    
C32   C159  S    
H116  N21   S    
C40   N29   S    
C22   C149  S    
C142  C149  A    
H12   O140  S    
O21   S15   D    
H126  O100  S    
O112  S28   D    
C6    C57   A    
C14   O46   A    
C109  C198  A    
C11   C182  S    
C74   C82   A    
C51   C86   A    
C32   O85   A    
H56   N1    S    
O50   S25   D    
O33   S19   D    
H27   O36   S    
C97   H107  S    
O1    Zn4   S    
O76   Zn7   S    
C180  S8    S    
C171  C184  A    
C44   C80   A    
O72   Zn10  S    
H120  N24   S    
C178  S7    S    
H99   N13   S    
C135  S13   S    
H117  N22   S    
H80   N4    S    
O61   Zn9   S    
C34   N1    S    
C22   O68   A    
C87   H36   S    
O40   S21   D    
O46   Zn10  S    
O125  S32   D    
C20   O66   A    
O14   S13   D    
C14   C188  S    
O138  Zn8   S    
C113  C123  A    
C42   N31   S    
C86   H39   S    
C166  C184  A    
O4    S9    D    
H67   N29   S    
O71   Zn3   S    
O141  S6    D    
C140  C151  A    
O66   Zn16  S    
C73   H53   S    
C178  C187  A    
C138  C153  A    
C170  S30   S    
C23   C150  S    
C47   N4    S    
C119  C154  A    
O111  S28   D    
H22   O22   S    
O48   S24   D    
O95   Zn15  S    
C176  S5    S    
C117  C120  A    
C17   C152  S    
H30   O45   S    
C165  C196  A    
C124  C192  A    
C49   N6    S    
O148  S8    D    
H102  N15   S    
C14   O59   A    
O68   Zn3   S    
C178  C200  A    
C43   N32   S    
O140  S5    S    
C65   C100  A    
H6    O120  S    
C35   S22   S    
H89   N8    S    
H14   O143  S    
C129  C143  A    
H25   O29   S    
C132  C140  A    
C105  C106  A    
O20   S15   D    
C40   C75   A    
H81   N4    S    
O61   Zn3   S    
C166  C197  A    
O131  S3    D    
H68   N29   S    
C109  C110  A    
C31   O77   A    
C134  C154  A    
C190  S18   S    
C54   N11   S    
C112  C146  A    
C93   H24   S    
C24   S21   S    
C179  S17   S    
C157  S15   S    
H124  N26   S    
C31   C158  S    
C17   O91   A    
C87   C104  A    
O108  S27   D    
C37   C72   A    
O134  S4    D    
C10   C181  S    
O74   Zn16  S    
H69   N30   S    
C31   O88   A    
C61   C136  A    
H103  N15   S    
C48   C113  A    
C58   C139  A    
H23   O26   S    
O126  S32   S    
C89   C102  A    
C66   C102  A    
C56   N14   S    
C95   C96   A    
O1    Zn12  S    
O118  S30   D    
O42   S21   S    
C12   O35   A    
C79   C145  A    
C40   C121  A    
C19   C145  S    
C1    S9    S    
O81   Zn14  S    
O54   S26   D    
H128  O107  S    
O15   S13   D    
C170  C192  A    
C61   N18   S    
C47   C82   A    
H122  N25   S    
O82   Zn9   S    
C118  C119  A    
H111  N19   S    
H106  N17   S    
C22   O97   A    
C71   C85   A    
C8    O94   A    
H112  N19   S    
O70   Zn5   S    
C7    C175  A    
H104  N16   S    
C53   C88   A    
O130  S2    S    
C141  C148  A    
C60   C137  A    
O124  S32   D    
C28   O80   A    
C15   O56   A    
O132  S3    D    
C115  C122  A    
H94   N10   S    
O45   S22   S    
C28   C154  S    
C26   O82   A    
H105  N16   S    
C106  C191  A    
C46   C190  A    
O60   Zn9   S    
C65   C131  A    
O24   Zn16  S    
C37   C125  A    
O34   S19   D    
C99   H85   S    
C90   C126  A    
C52   N9    S    
C173  C186  A    
O136  S4    S    
O23   S16   D    
C113  C149  A    
C54   C89   A    
C29   O75   A    
H18   O9    S    
C30   O76   A    
C38   N27   S    
C179  C197  A    
O102  S12   D    
O31   S18   D    
O1    Zn1   S    
C53   C143  A    
C57   S25   S    
C89   H34   S    
C96   H96   S    
O7    S10   D    
O83   Zn5   S    
H108  N17   S    
O142  S6    D    
C135  C193  A    
H60   N23   S    
H75   N32   S    
C125  C160  A    
C54   C142  A    
O94   Zn4   S    
H92   N9    S    
O106  S23   D    
C20   C147  S    
C82   H44   S    
C175  S4    S    
H33   O55   S    
O25   S16   D    
O11   S11   D    
O129  S2    D    
O115  S29   D    
H65   N28   S    
C39   N28   S    
H93   N10   S    
O57   Zn12  S    
O72   Zn6   S    
O5    S9    D    
O83   Zn16  S    
C70   C86   A    
C88   C103  A    
C39   C74   A    
C69   C104  A    
C163  S1    S    
H9    O130  S    
O86   Zn10  S    
C110  C199  A    
C55   C141  A    
O133  S3    S    
C52   C87   A    
O62   Zn1   S    
H79   N3    S    
C100  H52   S    
O123  S31   S    
C134  C138  A    
O101  S12   D    
O30   S18   D    
C62   C134  A    
C1    C157  A    
H101  N14   S    
H95   N11   S    
C16   C186  S    
O2    Zn7   S    
H88   N7    S    
O100  S1    S    
O19   S14   S    
C167  C181  A    
O72   Zn2   S    
C44   C117  A    
C88   H37   S    
C93   C98   A    
C115  C150  A    
C129  C162  A    
O49   S24   S    
H121  N24   S    
C131  C160  A    
O22   S15   S    
O38   S20   D    
O127  Zn5   S    
C76   H47   S    
C56   C92   A    
C168  C196  A    
C10   O13   A    
C84   H42   S    
O85   Zn11  S    
C108  C193  A    
H114  N20   S    
C101  C125  A    
C46   S24   S    
C33   O86   A    
C66   C130  A    
C38   C73   A    
