data_mof_unit_56985.cif
_audit_creation_date              2013-03-05T16:42:13-0500
_audit_creation_method            fapswitch 2.2
_symmetry_space_group_name_H-M    P1
_symmetry_Int_Tables_number       1
_space_group_crystal_system       triclinic
_cell_length_a                    14.996342
_cell_length_b                    10.672228
_cell_length_c                    9.84941
_cell_angle_alpha                 90.04313
_cell_angle_beta                  90.159834
_cell_angle_gamma                 90.001539
_cell_volume                      1576.33614572

loop_
_atom_site_label
_atom_site_type_symbol
_atom_site_description
_atom_site_fract_x
_atom_site_fract_y
_atom_site_fract_z
_atom_type_partial_charge
O1    O     O_R   0.500010 0.316790 0.614690 -0.618170
O2    O     O_R   0.500000 0.316760 0.385350 -0.625441
C1    C     C_R   0.496922 0.259911 0.499992 0.883254
O3    O     O_R   0.367850 0.499990 0.614680 -0.626515
O4    O     O_R   0.367840 0.499950 0.385340 -0.620108
C2    C     C_R   0.326589 0.500504 0.499953 0.894332
Zn1   Zn    Zn3+2 0.500010 0.500020 0.653130 0.952329
Zn2   Zn    Zn3+2 0.499990 0.499980 0.346870 0.951984
O5    O     O_R   0.500000 0.683240 0.614650 -0.619002
O6    O     O_R   0.499990 0.683210 0.385310 -0.626542
O7    O     O_R   0.632160 0.500050 0.614660 -0.626703
O8    O     O_R   0.632150 0.500010 0.385320 -0.622087
C3    C     C_R   0.497010 0.740128 0.500022 0.886428
C4    C     C_R   0.673364 0.500396 0.500153 0.889676
C5    C     C_R   0.814687 0.538804 0.617979 -0.226967
C6    C     C_R   0.769152 0.502708 0.500333 -0.073833
C7    C     C_R   0.814986 0.470165 0.382228 -0.249958
C8    C     C_R   0.907172 0.472697 0.381151 0.117920
C9    C     C_R   0.953569 0.509316 0.499740 0.067602
C10   C     C_R   0.906984 0.542738 0.618322 0.056178
C11   C     C_R   0.953464 0.438410 0.263813 -0.188179
C12   C     C_R   0.045945 0.438803 0.264102 -0.142036
C13   C     C_R   0.092406 0.474377 0.381359 0.127705
C14   C     C_R   0.046385 0.511108 0.499907 0.020339
C15   C     C_R   0.093158 0.547658 0.618683 -0.015049
C16   C     C_R   0.045910 0.585755 0.735947 0.311719
C17   C     C_R   0.952905 0.580539 0.734964 -0.285868
C18   C     C_R   0.184415 0.472271 0.382224 -0.221424
C19   C     C_R   0.230722 0.504379 0.500002 -0.092782
C20   C     C_R   0.185808 0.541055 0.617651 -0.194407
H1    H     H_    0.778334 0.565181 0.708706 0.158023
H2    H     H_    0.779016 0.441600 0.291617 0.161216
H3    H     H_    0.918202 0.410372 0.172495 0.155917
H4    H     H_    0.081170 0.410562 0.173127 0.175442
H5    H     H_    0.219833 0.442932 0.292024 0.152560
H6    H     H_    0.223723 0.563055 0.708085 0.200973
H7    H     H_    0.916259 0.608622 0.824742 0.183904
C21   C     C_R   0.480221 0.064091 0.623116 0.133260
C22   C     C_R   0.481791 0.128665 0.500388 -0.108081
C23   C     C_R   0.465650 0.064723 0.378296 -0.221218
H8    H     H_    0.459653 0.113594 0.282348 0.167622
C24   C     C_R   0.465714 0.935155 0.378339 -0.211881
H9    H     H_    0.459708 0.886101 0.282403 0.175602
C25   C     C_R   0.481914 0.871430 0.500475 -0.107916
C26   C     C_R   0.480252 0.936261 0.623181 0.162919
C27   C     C_3   0.541750 0.929406 0.742722 -0.495970
C28   C     C_3   0.541781 0.071455 0.742545 -0.476381
H10   H     H_    0.508619 0.888731 0.833390 0.209057
H11   H     H_    0.607672 0.887939 0.717237 0.200445
H12   H     H_    0.508822 0.112641 0.833157 0.202897
H13   H     H_    0.607702 0.112720 0.716760 0.208165
C29   C     C_R   0.464742 0.401237 0.070935 0.211209
N1    N     N_R   0.499390 0.499140 0.142800 -0.106584
C30   C     C_R   0.542324 0.591486 0.072290 -0.123953
H14   H     H_    0.575081 0.666537 0.126886 0.148333
C31   C     C_R   0.542418 0.591407 0.928201 -0.125883
H15   H     H_    0.575460 0.666157 0.874003 0.142151
N2    N     N_R   0.499390 0.499180 0.857150 -0.104662
C32   C     C_R   0.464897 0.401165 0.928286 0.206323
C33   C     C_3   0.371065 0.355835 0.921292 -0.484587
C34   C     C_3   0.370551 0.356804 0.075407 -0.507390
H16   H     H_    0.324943 0.425801 0.875740 0.229056
H17   H     H_    0.366400 0.260105 0.877305 0.200343
H18   H     H_    0.324750 0.428288 0.118115 0.224859
H19   H     H_    0.364700 0.261781 0.120595 0.196146
N3    N     N_R   0.090547 0.632015 0.855247 0.198065
O9    O     O_R   0.149554 0.720867 0.844724 -0.397760
O10   O     O_R   0.060221 0.603662 0.975001 -0.416617

loop_
_geom_bond_atom_site_label_1
_geom_bond_atom_site_label_2
_geom_bond_distance
_ccdc_geom_bond_type
Zn2   N1    2.009977 S    
O4    Zn2   2.018702 S    
N3    O10   1.301205 A    
C13   C14   1.413204 A    
C30   C31   1.419198 A    
C5    H1    1.085042 S    
C19   C20   1.397617 A    
C10   C17   1.397043 A    
C6    C7    1.396473 A    
C34   H18   1.109893 S    
C8    C11   1.398334 A    
Zn1   N2    2.009552 S    
C5    C10   1.384752 A    
C9    C10   1.408327 A    
C20   H6    1.081041 S    
Zn2   O8    2.016737 S    
C23   C24   1.382776 A    
C7    C8    1.382784 A    
C16   C17   1.395853 A    
C14   C15   1.416857 A    
C1    C22   1.418955 S    
C32   C33   1.489357 S    
C27   C28   1.515984 S    
N1    C30   1.368073 A    
C25   C26   1.392443 A    
Zn1   O7    2.018702 S    
C27   H11   1.112379 S    
C21   C28   1.495295 S    
C21   C22   1.392154 A    
C24   C25   1.402958 A    
C17   H7    1.084464 S    
O3    Zn1   2.016738 S    
C33   H16   1.111764 S    
C23   H8    1.083274 S    
C29   C32   1.405026 A    
C31   N2    1.367950 A    
C9    C14   1.392023 A    
C28   H12   1.111707 S    
O2    C1    1.283171 A    
C29   C34   1.490755 S    
C33   H17   1.111545 S    
O4    C2    1.288782 A    
C12   H4    1.083984 S    
O7    C4    1.287521 A    
C4    C6    1.436667 S    
C26   C27   1.495418 S    
O3    C2    1.286812 A    
C11   H3    1.084000 S    
C13   C18   1.379974 A    
C5    C6    1.397241 A    
C16   N3    1.437784 S    
C27   H10   1.111676 S    
C34   H19   1.111356 S    
O8    C4    1.287387 A    
C15   C20   1.391271 A    
C2    C19   1.438246 S    
N3    O9    1.301372 A    
C31   H15   1.081199 S    
Zn2   O6    1.991509 S    
C8    C9    1.412765 A    
C24   H9    1.083431 S    
C22   C23   1.402671 A    
Zn1   O5    1.992037 S    
C7    H2    1.085033 S    
O5    C3    1.282980 A    
C30   H14   1.081606 S    
C18   C19   1.392933 A    
C21   C26   1.364227 A    
C28   H13   1.112326 S    
O1    Zn1   1.991508 S    
C15   C16   1.416048 A    
C11   C12   1.386890 A    
N2    C32   1.362267 A    
C3    C25   1.419468 S    
O2    Zn2   1.992037 S    
C12   C13   1.399371 A    
C18   H5    1.082429 S    
C29   N1    1.363633 A    
C33   C34   1.518009 S    
O1    C1    1.282789 A    
O6    C3    1.283268 A    
