data_mof_unit_13643.cif
_audit_creation_date              2012-12-10T18:56:31-0500
_audit_creation_method            fapswitch 2.2
_symmetry_space_group_name_H-M    P1
_symmetry_Int_Tables_number       1
_space_group_crystal_system       triclinic
_cell_length_a                    10.670387
_cell_length_b                    9.838355
_cell_length_c                    19.073287
_cell_angle_alpha                 90.263959
_cell_angle_beta                  90.1624
_cell_angle_gamma                 89.099162
_cell_volume                      2002.01928809

loop_
_atom_site_label
_atom_site_type_symbol
_atom_type_description
_atom_site_fract_x
_atom_site_fract_y
_atom_site_fract_z
_atom_type_partial_charge
C1    C     C_R   0.871887 0.497054 0.501676 -0.157738
C2    C     C_R   0.739430 0.499019 0.501965 0.918384
C3    C     C_R   0.499339 0.499416 0.365602 0.835584
C4    C     C_R   0.498311 0.500406 0.634383 0.843409
C5    C     C_R   0.067107 0.452141 0.561539 0.104274
C6    C     C_R   0.932205 0.547784 0.441878 0.107037
C7    C     C_R   0.935939 0.454116 0.562690 0.119227
C8    C     C_R   0.061348 0.565932 0.445310 0.090146
C9    C     C_R   0.545373 0.415676 0.752992 -0.207235
C10   C     C_R   0.579539 0.504147 0.244704 -0.209239
C11   C     C_R   0.355985 0.486432 0.265620 -0.200016
C12   C     C_R   0.127227 0.506431 0.502144 -0.161198
C13   C     C_R   0.381580 0.587045 0.735878 -0.207165
C14   C     C_R   0.523014 0.419033 0.824632 -0.099303
C15   C     C_R   0.557190 0.503247 0.172988 -0.089224
C16   C     C_R   0.333068 0.491082 0.194072 -0.097212
C17   C     C_R   0.355238 0.585664 0.806988 -0.103451
C18   C     C_R   0.427886 0.504030 0.851601 0.179714
C19   C     C_R   0.433762 0.499513 0.147737 0.179510
C20   C     C_R   0.559702 0.071397 0.551866 -0.064899
C21   C     C_R   0.441262 0.928612 0.447834 -0.081896
C22   C     C_R   0.440690 0.072479 0.448012 -0.064282
C23   C     C_R   0.443443 0.628594 0.964090 0.135455
C24   C     C_R   0.559569 0.927495 0.551910 -0.066353
C25   C     C_R   0.476678 0.502178 0.708975 -0.016350
C26   C     C_R   0.478663 0.497518 0.290909 -0.001071
C27   C     C_3   0.142829 0.401839 0.624878 -0.384121
C28   C     C_3   0.157071 0.246921 0.624850 -0.795201
C29   C     C_3   0.859177 0.571177 0.373620 -0.397107
C30   C     C_3   0.818651 0.719555 0.362617 -0.775466
C31   C     C_3   0.863784 0.421295 0.629672 -0.436664
C32   C     C_3   0.837367 0.550707 0.671999 -0.857178
C33   C     C_3   0.126694 0.656055 0.391954 -0.367484
C34   C     C_R   0.371506 0.391382 0.035675 0.136676
C35   C     C_3   0.123849 0.804503 0.416250 -0.815524
C36   C     C_R   0.440619 0.628048 0.037379 0.134378
C37   C     C_R   0.366645 0.394685 0.962351 0.132168
C38   C     C_R   0.411423 0.507261 0.072589 -0.138767
C39   C     C_R   0.408744 0.510667 0.927038 -0.134709
C40   C     C_R   0.260115 0.501516 0.499499 0.884134
H1    H     H_    0.607636 0.125433 0.593271 0.127721
H2    H     H_    0.635440 0.508509 0.137068 0.150600
H3    H     H_    0.237638 0.486870 0.174728 0.149134
H4    H     H_    0.280943 0.650523 0.827605 0.158428
H5    H     H_    0.064458 0.197326 0.624632 0.238714
H6    H     H_    0.210002 0.211428 0.578081 0.274973
H7    H     H_    0.209382 0.214316 0.672459 0.259120
H8    H     H_    0.237499 0.445931 0.626477 0.196565
H9    H     H_    0.100520 0.437539 0.674819 0.211042
H10   H     H_    0.734892 0.724109 0.327996 0.247888
H11   H     H_    0.794554 0.770185 0.413021 0.272882
H12   H     H_    0.394975 0.874569 0.405904 0.146316
H13   H     H_    0.893649 0.776831 0.336379 0.249043
H14   H     H_    0.913309 0.533142 0.327770 0.186540
H15   H     H_    0.774377 0.507617 0.372589 0.183255
H16   H     H_    0.926024 0.603660 0.684133 0.261676
H17   H     H_    0.774444 0.620597 0.642239 0.263504
H18   H     H_    0.791292 0.524742 0.722147 0.256662
H19   H     H_    0.774064 0.370610 0.618157 0.209614
H20   H     H_    0.914001 0.347086 0.663309 0.221747
H21   H     H_    0.180280 0.817314 0.464676 0.270065
H22   H     H_    0.163081 0.869859 0.374673 0.235151
H23   H     H_    0.393087 0.127348 0.406478 0.141294
H24   H     H_    0.026873 0.839744 0.427734 0.259332
H25   H     H_    0.225408 0.624889 0.383723 0.196927
H26   H     H_    0.084735 0.649077 0.339033 0.201329
H27   H     H_    0.607367 0.872559 0.593357 0.136009
H28   H     H_    0.617620 0.348407 0.732140 0.143340
H29   H     H_    0.674780 0.509353 0.263725 0.129553
H30   H     H_    0.278188 0.474077 0.301008 0.112024
H31   H     H_    0.326266 0.652090 0.701623 0.146541
H32   H     H_    0.579334 0.355582 0.859147 0.158649
I1    I     I_    0.512049 0.802913 0.909764 -0.267951
I2    I     I_    0.329041 0.208174 0.090542 -0.252238
I3    I     I_    0.481681 0.808631 0.096128 -0.253068
I4    I     I_    0.297396 0.224768 0.903818 -0.275199
N1    N     N_R   0.500000 0.857200 0.500000 -0.083612
N2    N     N_R   0.500000 0.142800 0.500000 -0.083710
O1    O     O_R   0.316770 0.614620 0.500000 -0.618137
O2    O     O_R   0.683230 0.385380 0.500000 -0.629736
O3    O     O_R   0.683230 0.614620 0.500000 -0.608769
O4    O     O_R   0.316770 0.385380 0.500000 -0.614236
O5    O     O_R   0.500030 0.614710 0.398180 -0.612863
O6    O     O_R   0.499970 0.385290 0.601820 -0.619618
O7    O     O_R   0.499970 0.614710 0.601820 -0.619711
O8    O     O_R   0.500030 0.385290 0.398180 -0.610727
Zn1   Zn    Zn3+2 0.500000 0.653120 0.500000 0.939930
Zn2   Zn    Zn3+2 0.500000 0.346880 0.500000 0.942769

loop_
_geom_bond_atom_site_label_1
_geom_bond_atom_site_label_2
_ccdc_geom_bond_type
C27   H8    S    
O5    Zn1   S    
C30   H11   S    
C28   H7    S    
C34   C37   A    
C14   C18   A    
C32   H18   S    
C9    C14   A    
O1    Zn1   S    
C4    C25   S    
C11   H30   S    
C9    C25   A    
C15   C19   A    
C28   H6    S    
C19   C38   S    
C10   C15   A    
O8    Zn2   S    
C29   H14   S    
C1    C2    S    
C31   H19   S    
C24   H27   S    
C22   H23   S    
C5    C27   S    
C20   C24   A    
C35   H24   S    
C10   C26   A    
C30   H10   S    
C1    C7    A    
C21   C22   A    
C3    O8    A    
C13   C25   A    
C32   H17   S    
C23   I1    S    
C33   H26   S    
C20   H1    S    
O7    Zn1   S    
C30   H13   S    
C28   H5    S    
C7    C31   S    
C33   H25   S    
C1    C6    A    
C40   O4    A    
C22   N2    A    
C5    C12   A    
C5    C7    A    
C6    C8    A    
C4    O7    A    
C13   H31   S    
C11   C26   A    
C31   H20   S    
C12   C40   S    
C18   C39   S    
C29   C30   S    
C36   I3    S    
C11   C16   A    
C31   C32   S    
C4    O6    A    
C8    C12   A    
C17   C18   A    
C40   O1    A    
C35   H21   S    
C16   H3    S    
O3    Zn1   S    
C34   I2    S    
C37   I4    S    
C3    O5    A    
N2    Zn2   S    
C34   C38   A    
C14   H32   S    
C3    C26   S    
O6    Zn2   S    
C15   H2    S    
C20   N2    A    
C29   H15   S    
C13   C17   A    
C36   C38   A    
C9    H28   S    
O2    Zn2   S    
C16   C19   A    
O4    Zn2   S    
C33   C35   S    
C32   H16   S    
C35   H22   S    
C8    C33   S    
C17   H4    S    
C2    O2    A    
C10   H29   S    
C24   N1    A    
C6    C29   S    
N1    Zn1   S    
C37   C39   A    
C23   C36   A    
C21   N1    A    
C27   C28   S    
C2    O3    A    
C23   C39   A    
C21   H12   S    
C27   H9    S    
