data_mof_unit_66492.cif
_audit_creation_date              2012-12-10T18:17:04-0500
_audit_creation_method            fapswitch 2.2
_symmetry_space_group_name_H-M    P1
_symmetry_Int_Tables_number       1
_space_group_crystal_system       orthorhombic
_cell_length_a                    29.182941
_cell_length_b                    29.18294
_cell_length_c                    38.833253
_cell_angle_alpha                 90.0
_cell_angle_beta                  90.0
_cell_angle_gamma                 90.0
_cell_volume                      33072.1075481

loop_
_atom_site_label
_atom_site_type_symbol
_atom_type_description
_atom_site_fract_x
_atom_site_fract_y
_atom_site_fract_z
_atom_type_partial_charge
C1    C     C_R   0.500000 0.913187 0.000001 0.885200
C2    C     C_1   0.229425 0.499999 0.000004 0.013612
C3    C     C_R   0.000000 0.500000 0.894443 -0.339398
C4    C     C_R   1.000000 0.500000 0.605534 -0.338473
C5    C     C_R   0.500000 0.000000 0.605534 -0.338472
C6    C     C_R   0.000000 0.500000 0.394444 -0.339398
C7    C     C_R   0.500000 0.000000 0.394444 -0.339398
C8    C     C_R   0.500000 1.000000 0.284833 0.368319
C9    C     C_R   1.000000 0.500000 0.284833 0.368319
C10   C     C_R   0.500000 0.000000 0.715411 0.381965
C11   C     C_R   1.000000 0.500000 0.715411 0.381965
C12   C     C_R   1.000000 0.500000 0.784833 0.368319
C13   C     C_1   0.500001 0.229425 0.000004 0.013612
C14   C     C_R   0.500000 0.000000 0.784833 0.368319
C15   C     C_R   0.000000 0.500000 0.215411 0.381965
C16   C     C_R   0.500000 1.000000 0.215411 0.381965
C17   C     C_1   0.500000 0.862551 0.000003 -0.208829
C18   C     C_1   0.137449 0.500000 0.000003 -0.208829
C19   C     C_1   0.500000 0.137449 0.000003 -0.208829
C20   C     C_1   0.862551 0.500000 0.000003 -0.208829
C21   C     C_1   1.000000 0.362551 0.500003 -0.208829
C22   C     C_1   0.637449 1.000000 0.500003 -0.208829
C23   C     C_1   0.000000 0.637449 0.500003 -0.208829
C24   C     C_1   0.770575 0.500001 0.000004 0.013612
C25   C     C_1   0.362551 0.000000 0.500003 -0.208829
C26   C     C_1   0.499999 0.820368 0.000004 0.013350
C27   C     C_1   0.179631 0.499999 0.000004 0.013350
C28   C     C_1   0.500001 0.179631 0.000004 0.013350
C29   C     C_1   0.820368 0.500001 0.000004 0.013350
C30   C     C_1   0.999999 0.320369 0.500004 0.013350
C31   C     C_1   0.679631 0.999999 0.500004 0.013350
C32   C     C_1   0.000001 0.679631 0.500004 0.013350
C33   C     C_1   0.320369 0.000001 0.500004 0.013350
C34   C     C_3   0.459864 0.891410 0.180166 -0.677852
C35   C     C_1   0.999999 0.270575 0.500004 0.013612
C36   C     C_3   0.108590 0.459863 0.180166 -0.677854
C37   C     C_3   0.540136 0.108590 0.180166 -0.677852
C38   C     C_3   0.891410 0.540137 0.180166 -0.677853
C39   C     C_3   0.462032 0.102186 0.811353 -0.715466
C40   C     C_3   0.102186 0.537968 0.811353 -0.715467
C41   C     C_3   0.537968 0.897814 0.811353 -0.715465
C42   C     C_3   0.897814 0.462031 0.811353 -0.715467
C43   C     C_3   0.959864 0.391410 0.680166 -0.677852
C44   C     C_3   0.608590 0.959863 0.680166 -0.677852
C45   C     C_3   0.040136 0.608590 0.680166 -0.677852
C46   C     C_1   0.729425 0.999999 0.500004 0.013612
C47   C     C_3   0.391410 0.040137 0.680166 -0.677852
C48   C     C_3   0.962032 0.602186 0.311353 -0.715467
C49   C     C_3   0.602186 0.037968 0.311353 -0.715467
C50   C     C_3   0.037968 0.397814 0.311353 -0.715466
C51   C     C_3   0.397814 0.962032 0.311353 -0.715467
C52   C     C_1   0.000001 0.729425 0.500004 0.013612
C53   C     C_1   0.270575 0.000001 0.500004 0.013612
C54   C     C_1   0.499999 0.728392 0.000003 0.011909
C55   C     C_1   0.271608 0.499999 0.000003 0.011909
C56   C     C_1   0.500001 0.271608 0.000003 0.011909
C57   C     C_R   0.086813 0.500000 0.000001 0.885199
C58   C     C_1   0.728392 0.500001 0.000003 0.011909
C59   C     C_1   0.999999 0.228392 0.500003 0.011909
C60   C     C_1   0.771608 0.999999 0.500003 0.011909
C61   C     C_1   0.000001 0.771608 0.500003 0.011909
C62   C     C_1   0.228392 0.000001 0.500003 0.011909
C63   C     C_1   0.499999 0.678597 0.000002 0.008304
C64   C     C_1   0.321403 0.499999 0.000002 0.008304
C65   C     C_1   0.500000 0.321402 0.000002 0.008304
C66   C     C_1   0.678597 0.500000 0.000002 0.008304
C67   C     C_1   0.999999 0.178597 0.500002 0.008304
C68   C     C_R   0.500000 0.086813 0.000001 0.885199
C69   C     C_1   0.821403 0.999999 0.500002 0.008304
C70   C     C_1   0.000000 0.821403 0.500002 0.008304
C71   C     C_1   0.178597 0.000000 0.500002 0.008304
C72   C     C_1   0.500000 0.636413 0.000001 -0.197816
C73   C     C_1   0.363587 0.500000 0.000001 -0.197815
C74   C     C_1   0.500000 0.363587 0.000001 -0.197815
C75   C     C_1   0.636413 0.500000 0.000001 -0.197816
C76   C     C_1   1.000000 0.136413 0.500001 -0.197816
C77   C     C_1   0.863587 1.000000 0.500001 -0.197815
C78   C     C_1   0.000000 0.863587 0.500001 -0.197815
C79   C     C_R   0.913187 0.500000 0.000001 0.885200
C80   C     C_1   0.136413 0.000000 0.500001 -0.197816
C81   C     C_R   0.414231 0.500000 0.000000 0.880041
C82   C     C_R   0.500000 0.414231 0.000000 0.880041
C83   C     C_R   0.585769 0.500000 0.000000 0.880040
C84   C     C_R   0.500000 0.585769 0.000000 0.880040
C85   C     C_R   0.914231 1.000000 0.500000 0.880041
C86   C     C_R   0.000000 0.914231 0.500000 0.880041
C87   C     C_R   0.085769 0.000000 0.500000 0.880040
C88   C     C_R   1.000000 0.085769 0.500000 0.880040
C89   C     C_R   0.500000 1.000000 0.067978 0.903532
C90   C     C_R   1.000000 0.413187 0.500001 0.885200
C91   C     C_R   1.000000 0.500000 0.067978 0.903532
C92   C     C_R   0.500000 0.000000 0.932013 0.905718
C93   C     C_R   0.000000 0.500000 0.932013 0.905718
C94   C     C_R   0.000000 0.500000 0.567978 0.903532
C95   C     C_R   0.500000 1.000000 0.567978 0.903532
C96   C     C_R   0.000000 0.500000 0.432013 0.905718
C97   C     C_R   0.500000 0.000000 0.432013 0.905718
C98   C     C_R   0.472057 0.968486 0.123662 0.347213
C99   C     C_R   0.031514 0.472057 0.123662 0.347213
C100  C     C_R   0.527943 0.031514 0.123662 0.347213
C101  C     C_R   0.586813 1.000000 0.500001 0.885199
C102  C     C_R   0.968486 0.527943 0.123662 0.347214
C103  C     C_R   0.470813 0.030404 0.876302 0.340319
C104  C     C_R   0.030404 0.529187 0.876302 0.340319
C105  C     C_R   0.529186 0.969596 0.876302 0.340319
C106  C     C_R   0.969596 0.470813 0.876302 0.340320
C107  C     C_R   0.972057 0.468486 0.623662 0.347213
C108  C     C_R   0.531514 0.972057 0.623662 0.347213
C109  C     C_R   0.027943 0.531514 0.623662 0.347213
C110  C     C_R   0.468486 0.027943 0.623662 0.347214
C111  C     C_R   0.970813 0.530404 0.376302 0.340320
C112  C     C_R   1.000000 0.586813 0.500001 0.885199
C113  C     C_R   0.530404 0.029187 0.376302 0.340319
C114  C     C_R   0.029187 0.469596 0.376302 0.340320
C115  C     C_R   0.469596 0.970813 0.376302 0.340320
C116  C     C_R   0.472101 0.968722 0.159703 0.154852
C117  C     C_R   0.031277 0.472101 0.159703 0.154852
C118  C     C_R   0.527899 0.031277 0.159703 0.154852
C119  C     C_R   0.968722 0.527899 0.159703 0.154851
C120  C     C_R   0.470121 0.029418 0.840287 0.164730
C121  C     C_R   0.029418 0.529879 0.840287 0.164729
C122  C     C_R   0.529879 0.970582 0.840287 0.164729
C123  C     C_R   0.413187 1.000000 0.500001 0.885200
C124  C     C_R   0.970582 0.470121 0.840287 0.164729
C125  C     C_R   0.972101 0.468722 0.659703 0.154852
C126  C     C_R   0.531277 0.972101 0.659703 0.154852
C127  C     C_R   0.027899 0.531278 0.659703 0.154852
C128  C     C_R   0.468722 0.027899 0.659703 0.154851
C129  C     C_R   0.970121 0.529418 0.340287 0.164729
C130  C     C_R   0.529418 0.029879 0.340287 0.164729
C131  C     C_R   0.029879 0.470582 0.340287 0.164729
C132  C     C_R   0.470582 0.970121 0.340287 0.164729
C133  C     C_R   0.500000 1.000000 0.177705 -0.168367
C134  C     C_1   0.499999 0.770575 0.000004 0.013612
C135  C     C_R   0.000000 0.500000 0.177705 -0.168367
C136  C     C_R   0.500000 0.000000 0.822395 -0.155569
C137  C     C_R   1.000000 0.500000 0.822395 -0.155569
C138  C     C_R   1.000000 0.500000 0.677705 -0.168367
C139  C     C_R   0.500000 0.000000 0.677705 -0.168367
C140  C     C_R   1.000000 0.500000 0.322394 -0.155569
C141  C     C_R   0.500000 1.000000 0.322394 -0.155569
C142  C     C_R   0.500000 0.000000 0.105534 -0.338473
C143  C     C_R   0.000000 0.500000 0.105534 -0.338472
C144  C     C_R   0.500000 0.000000 0.894443 -0.339398
H1    H     H_    0.458187 0.928761 0.084600 0.337633
H2    H     H_    0.571239 0.958187 0.584600 0.337632
H3    H     H_    0.041813 0.571239 0.584600 0.337631
H4    H     H_    0.428761 0.041813 0.584600 0.337632
H5    H     H_    0.957432 0.570852 0.415028 0.339178
H6    H     H_    0.570852 0.042568 0.415028 0.339178
H7    H     H_    0.042568 0.429148 0.415028 0.339178
H8    H     H_    0.429148 0.957432 0.415028 0.339178
H9    H     H_    0.409349 0.939302 0.170027 0.259894
H10   H     H_    0.458399 0.874558 0.154549 0.258602
H11   H     H_    0.438215 0.871634 0.198378 0.230513
H12   H     H_    0.071239 0.458187 0.084600 0.337632
H13   H     H_    0.495756 0.890735 0.189667 0.242518
H14   H     H_    0.060698 0.409349 0.170027 0.259894
H15   H     H_    0.125442 0.458399 0.154549 0.258602
H16   H     H_    0.128366 0.438215 0.198378 0.230513
H17   H     H_    0.109265 0.495756 0.189667 0.242519
H18   H     H_    0.590651 0.060698 0.170027 0.259894
H19   H     H_    0.541601 0.125442 0.154549 0.258602
H20   H     H_    0.561785 0.128366 0.198378 0.230513
H21   H     H_    0.504244 0.109265 0.189667 0.242519
H22   H     H_    0.939302 0.590651 0.170027 0.259894
H23   H     H_    0.541813 0.071239 0.084600 0.337631
H24   H     H_    0.874558 0.541601 0.154549 0.258602
H25   H     H_    0.871634 0.561785 0.198378 0.230513
H26   H     H_    0.890735 0.504244 0.189667 0.242519
H27   H     H_    0.409203 0.064912 0.833386 0.274503
H28   H     H_    0.471960 0.122624 0.834324 0.251088
H29   H     H_    0.437522 0.122459 0.795664 0.235725
H30   H     H_    0.492886 0.095337 0.795417 0.239670
H31   H     H_    0.064912 0.590797 0.833386 0.274504
H32   H     H_    0.122623 0.528040 0.834324 0.251088
H33   H     H_    0.122458 0.562478 0.795664 0.235725
H34   H     H_    0.928761 0.541813 0.084600 0.337632
H35   H     H_    0.095337 0.507114 0.795417 0.239670
H36   H     H_    0.590797 0.935088 0.833386 0.274503
H37   H     H_    0.528040 0.877376 0.834324 0.251088
H38   H     H_    0.562478 0.877541 0.795664 0.235724
H39   H     H_    0.507114 0.904663 0.795417 0.239669
H40   H     H_    0.935088 0.409203 0.833386 0.274503
H41   H     H_    0.877377 0.471960 0.834324 0.251088
H42   H     H_    0.877542 0.437522 0.795664 0.235725
H43   H     H_    0.904663 0.492886 0.795417 0.239670
H44   H     H_    0.909349 0.439302 0.670027 0.259894
H45   H     H_    0.457432 0.070852 0.915028 0.339179
H46   H     H_    0.958399 0.374558 0.654549 0.258602
H47   H     H_    0.938215 0.371634 0.698378 0.230513
H48   H     H_    0.995756 0.390735 0.689667 0.242518
H49   H     H_    0.560697 0.909349 0.670027 0.259894
H50   H     H_    0.625442 0.958399 0.654549 0.258602
H51   H     H_    0.628366 0.938214 0.698378 0.230513
H52   H     H_    0.609265 0.995755 0.689667 0.242518
H53   H     H_    0.090651 0.560698 0.670027 0.259894
H54   H     H_    0.041601 0.625442 0.654549 0.258602
H55   H     H_    0.061785 0.628366 0.698378 0.230513
H56   H     H_    0.070852 0.542568 0.915028 0.339178
H57   H     H_    0.004244 0.609265 0.689667 0.242519
H58   H     H_    0.439302 0.090651 0.670027 0.259894
H59   H     H_    0.374558 0.041601 0.654549 0.258602
H60   H     H_    0.371634 0.061785 0.698378 0.230513
H61   H     H_    0.390735 0.004245 0.689667 0.242519
H62   H     H_    0.909203 0.564912 0.333386 0.274503
H63   H     H_    0.971960 0.622624 0.334324 0.251088
H64   H     H_    0.937522 0.622458 0.295664 0.235725
H65   H     H_    0.992886 0.595337 0.295417 0.239670
H66   H     H_    0.564912 0.090797 0.333386 0.274504
H67   H     H_    0.542568 0.929148 0.915028 0.339179
H68   H     H_    0.622623 0.028040 0.334324 0.251088
H69   H     H_    0.622458 0.062478 0.295664 0.235725
H70   H     H_    0.595337 0.007114 0.295417 0.239670
H71   H     H_    0.090797 0.435088 0.333386 0.274503
H72   H     H_    0.028040 0.377377 0.334324 0.251088
H73   H     H_    0.062478 0.377542 0.295664 0.235724
H74   H     H_    0.007114 0.404663 0.295417 0.239669
H75   H     H_    0.435088 0.909203 0.333386 0.274503
H76   H     H_    0.377377 0.971960 0.334324 0.251088
H77   H     H_    0.377542 0.937522 0.295664 0.235725
H78   H     H_    0.929148 0.457432 0.915028 0.339178
H79   H     H_    0.404663 0.992886 0.295417 0.239670
H80   H     H_    0.958187 0.428761 0.584600 0.337633
N1    N     N_R   0.495398 0.039778 0.233066 -0.161296
N2    N     N_R   0.460222 0.995398 0.733066 -0.161296
N3    N     N_R   0.004602 0.460222 0.733066 -0.161296
N4    N     N_R   0.539778 0.004602 0.733066 -0.161296
N5    N     N_R   0.039825 0.504525 0.267253 -0.155284
N6    N     N_R   0.504525 0.960175 0.267253 -0.155284
N7    N     N_R   0.960175 0.495475 0.267253 -0.155284
N8    N     N_R   0.495475 0.039825 0.267253 -0.155284
N9    N     N_2   0.443022 0.938007 0.178045 -0.279624
N10   N     N_2   0.061993 0.443022 0.178045 -0.279625
N11   N     N_2   0.556978 0.061993 0.178045 -0.279624
N12   N     N_R   0.960222 0.495398 0.233066 -0.161296
N13   N     N_2   0.938007 0.556978 0.178045 -0.279625
N14   N     N_2   0.440629 0.059717 0.821872 -0.274706
N15   N     N_2   0.059717 0.559371 0.821872 -0.274706
N16   N     N_2   0.559371 0.940283 0.821872 -0.274706
N17   N     N_2   0.940283 0.440629 0.821872 -0.274706
N18   N     N_2   0.943022 0.438007 0.678045 -0.279624
N19   N     N_2   0.561993 0.943022 0.678045 -0.279624
N20   N     N_2   0.056978 0.561993 0.678045 -0.279624
N21   N     N_2   0.438007 0.056978 0.678045 -0.279624
N22   N     N_2   0.940629 0.559717 0.321872 -0.274706
N23   N     N_R   0.504602 0.960222 0.233066 -0.161296
N24   N     N_2   0.559717 0.059371 0.321872 -0.274706
N25   N     N_2   0.059371 0.440283 0.321872 -0.274706
N26   N     N_2   0.440283 0.940629 0.321872 -0.274706
N27   N     N_R   0.039778 0.504602 0.233066 -0.161296
N28   N     N_R   0.539825 0.004525 0.767253 -0.155284
N29   N     N_R   0.004525 0.460175 0.767253 -0.155284
N30   N     N_R   0.460175 0.995475 0.767253 -0.155284
N31   N     N_R   0.995475 0.539825 0.767253 -0.155284
N32   N     N_R   0.995398 0.539778 0.733066 -0.161296
O1    O     O_R   0.535610 0.936800 0.000040 -0.598336
O2    O     O_R   0.563200 0.035610 0.500040 -0.598336
O3    O     O_R   0.964390 0.563200 0.500040 -0.598336
O4    O     O_R   0.436800 0.964390 0.500040 -0.598336
O5    O     O_R   0.035610 0.563200 0.499960 -0.598416
O6    O     O_R   0.563200 0.964390 0.499960 -0.598416
O7    O     O_R   0.964390 0.436800 0.499960 -0.598416
O8    O     O_R   0.436800 0.035610 0.499960 -0.598416
O9    O     O_R   0.535610 0.999940 0.050970 -0.597278
O10   O     O_R   0.000060 0.535610 0.050970 -0.597278
O11   O     O_R   0.464390 0.000060 0.050970 -0.597277
O12   O     O_R   0.063200 0.535610 0.000040 -0.598336
O13   O     O_R   0.999940 0.464390 0.050970 -0.597277
O14   O     O_R   0.535610 0.000060 0.949030 -0.596601
O15   O     O_R   0.000060 0.464390 0.949030 -0.596600
O16   O     O_R   0.464390 0.999940 0.949030 -0.596600
O17   O     O_R   0.999940 0.535610 0.949030 -0.596600
O18   O     O_R   0.035610 0.499940 0.550970 -0.597278
O19   O     O_R   0.500060 0.035610 0.550970 -0.597278
O20   O     O_R   0.964390 0.500060 0.550970 -0.597277
O21   O     O_R   0.499940 0.964390 0.550970 -0.597277
O22   O     O_R   0.035610 0.500060 0.449030 -0.596600
O23   O     O_R   0.464390 0.063200 0.000040 -0.598336
O24   O     O_R   0.500060 0.964390 0.449030 -0.596600
O25   O     O_R   0.964390 0.499940 0.449030 -0.596600
O26   O     O_R   0.499940 0.035610 0.449030 -0.596600
O27   O     O_R   0.436800 0.499970 0.028810 -0.591782
O28   O     O_R   0.500030 0.436800 0.028810 -0.591782
O29   O     O_R   0.563200 0.500030 0.028810 -0.591782
O30   O     O_R   0.499970 0.563200 0.028810 -0.591782
O31   O     O_R   0.436800 0.500030 0.971190 -0.591674
O32   O     O_R   0.500030 0.563200 0.971190 -0.591674
O33   O     O_R   0.563200 0.499970 0.971190 -0.591674
O34   O     O_R   0.936800 0.464390 0.000040 -0.598336
O35   O     O_R   0.499970 0.436800 0.971190 -0.591674
O36   O     O_R   0.936800 0.999970 0.528810 -0.591782
O37   O     O_R   0.000030 0.936800 0.528810 -0.591782
O38   O     O_R   0.063200 0.000030 0.528810 -0.591782
O39   O     O_R   0.999970 0.063200 0.528810 -0.591782
O40   O     O_R   0.936800 0.000030 0.471190 -0.591674
O41   O     O_R   0.000030 0.063200 0.471190 -0.591674
O42   O     O_R   0.063200 0.999970 0.471190 -0.591674
O43   O     O_R   0.999970 0.936800 0.471190 -0.591674
O44   O     O_3   0.444750 0.936479 0.107251 -0.758061
O45   O     O_R   0.535610 0.063200 0.999960 -0.598416
O46   O     O_3   0.063521 0.444750 0.107251 -0.758061
O47   O     O_3   0.555250 0.063521 0.107251 -0.758060
O48   O     O_3   0.936479 0.555250 0.107251 -0.758061
O49   O     O_3   0.443556 0.062514 0.892649 -0.756436
O50   O     O_3   0.062514 0.556444 0.892649 -0.756436
O51   O     O_3   0.556444 0.937486 0.892649 -0.756436
O52   O     O_3   0.937486 0.443556 0.892649 -0.756436
O53   O     O_3   0.944750 0.436479 0.607251 -0.758061
O54   O     O_3   0.563521 0.944750 0.607251 -0.758060
O55   O     O_3   0.055250 0.563521 0.607251 -0.758060
O56   O     O_R   0.063200 0.464390 0.999960 -0.598416
O57   O     O_3   0.436479 0.055250 0.607251 -0.758061
O58   O     O_3   0.943556 0.562514 0.392649 -0.756436
O59   O     O_3   0.562514 0.056444 0.392649 -0.756436
O60   O     O_3   0.056444 0.437486 0.392649 -0.756436
O61   O     O_3   0.437486 0.943556 0.392649 -0.756436
O62   O     O_R   0.464390 0.936800 0.999960 -0.598416
O63   O     O_R   0.936800 0.535610 0.999960 -0.598416
O64   O     O_R   0.035610 0.436800 0.500040 -0.598336
Zn1   Zn    Zn3+2 0.547570 0.000000 0.000000 1.002624
Zn2   Zn    Zn3+2 0.500000 0.500000 0.961560 0.978369
Zn3   Zn    Zn3+2 0.000000 0.000000 0.538440 0.978097
Zn4   Zn    Zn3+2 1.000000 0.000000 0.461560 0.978369
Zn5   Zn    Zn3+2 1.000000 0.547570 0.000000 1.002624
Zn6   Zn    Zn3+2 0.452430 0.000000 0.000000 1.002624
Zn7   Zn    Zn3+2 1.000000 0.452430 0.000000 1.002624
Zn8   Zn    Zn3+2 0.047570 0.500000 0.500000 1.002624
Zn9   Zn    Zn3+2 0.500000 0.047570 0.500000 1.002624
Zn10  Zn    Zn3+2 0.952430 0.500000 0.500000 1.002624
Zn11  Zn    Zn3+2 0.500000 0.952430 0.500000 1.002624
Zn12  Zn    Zn3+2 0.500000 0.500000 0.038440 0.978097

loop_
_geom_bond_atom_site_label_1
_geom_bond_atom_site_label_2
_ccdc_geom_bond_type
O31   Zn2   S    
C68   O45   A    
C95   O21   A    
N3    N29   A    
C34   H11   S    
C23   C112  S    
C99   C143  A    
C97   O24   A    
C40   N15   S    
C2    C55   T    
C112  O3    A    
C54   C63   S    
H2    O54   S    
C86   O43   A    
C54   C134  T    
C49   H69   S    
O26   Zn9   S    
H34   O48   S    
C130  C141  A    
C32   C52   S    
C48   N22   S    
C131  C140  A    
C109  C127  A    
C51   H79   S    
C103  O49   S    
C116  N9    S    
N7    N12   A    
O41   Zn4   S    
C84   O32   A    
H12   O46   S    
C39   H30   S    
C73   C81   S    
C5    C95   S    
O9    Zn1   S    
C21   C90   S    
O18   Zn8   S    
C4    C107  A    
C44   H52   S    
C47   H61   S    
C124  C137  A    
C116  C133  A    
C121  N15   S    
C85   O40   A    
C48   H64   S    
C11   N32   A    
C19   C68   S    
C107  C125  A    
C72   C84   S    
C105  O51   S    
H18   N11   S    
C106  O52   S    
C36   H17   S    
C41   H38   S    
O27   Zn12  S    
C117  C135  A    
C47   N21   S    
O2    Zn9   S    
C38   H25   S    
H58   N21   S    
C7    C97   S    
C46   C60   T    
O39   Zn3   S    
C128  C139  A    
O24   Zn11  S    
C125  C138  A    
C4    C109  A    
C52   C61   T    
C51   H77   S    
O8    Zn9   S    
C47   H60   S    
O64   Zn8   S    
C49   N24   S    
C82   O35   A    
C50   N25   S    
H23   O47   S    
C106  C124  A    
H71   N25   S    
C108  C126  A    
C102  C119  A    
C110  C128  A    
C41   N16   S    
C42   H43   S    
O12   Zn5   S    
H53   N20   S    
C6    C111  A    
C69   C77   T    
C81   O27   A    
H66   N24   S    
H80   O53   S    
C82   O28   A    
C83   O33   A    
O36   Zn3   S    
O6    Zn11  S    
C86   O37   A    
C128  N21   S    
C11   C138  S    
C9    C140  S    
C5    C110  A    
C36   N10   S    
O30   Zn12  S    
O62   Zn6   S    
C121  C137  A    
O3    Zn10  S    
C6    C114  A    
C59   C67   S    
C118  N11   S    
C122  N16   S    
H75   N26   S    
C14   N30   A    
C15   N12   A    
C64   C73   T    
C8    C141  S    
H67   O51   S    
C13   C56   T    
C77   C85   S    
C101  O6    A    
C98   C142  A    
O42   Zn4   S    
C37   N11   S    
C91   C143  S    
C115  C132  A    
C43   N18   S    
C126  C139  A    
N1    N8    A    
C113  C130  A    
C113  O59   S    
C114  O60   S    
C57   O12   A    
C3    C93   S    
C40   H32   S    
C37   H21   S    
C65   C74   T    
C93   O17   A    
C26   C134  S    
C99   C117  A    
C92   O14   A    
C93   O15   A    
C108  O54   S    
C123  O8    A    
C125  N18   S    
C13   C28   S    
C19   C28   T    
C25   C123  S    
N5    N27   A    
C37   H20   S    
C42   H41   S    
C43   H48   S    
C132  C141  A    
C85   O36   A    
C12   N29   A    
H8    O61   S    
C45   H55   S    
C50   H73   S    
C1    C17   S    
C96   O25   A    
C88   O39   A    
H14   N10   S    
C60   C69   S    
C107  O53   S    
H31   N15   S    
C49   H68   S    
C105  C122  A    
C89   O9    A    
C79   O34   A    
C40   H33   S    
C34   H13   S    
O38   Zn3   S    
C31   C46   S    
C11   N3    A    
H3    O55   S    
C124  N17   S    
C34   N9    S    
O34   Zn7   S    
N6    N23   A    
C131  N25   S    
C25   C33   T    
C61   C70   S    
C114  C131  A    
H44   N18   S    
C103  C120  A    
C39   H29   S    
C105  C144  A    
H78   O52   S    
C38   H24   S    
C22   C101  S    
H62   N22   S    
O5    Zn8   S    
C94   O20   A    
C92   O16   A    
C14   N28   A    
H36   N16   S    
C89   C142  S    
C95   O19   A    
C35   C59   T    
O25   Zn10  S    
C51   N26   S    
C24   C29   S    
C36   H15   S    
C111  C129  A    
O63   Zn5   S    
C43   H46   S    
O43   Zn4   S    
C110  O57   S    
C2    C27   S    
C81   O31   A    
C127  C138  A    
H56   O50   S    
C83   O29   A    
C112  O5    A    
C12   N31   A    
H49   N19   S    
O23   Zn6   S    
C41   H37   S    
C74   C82   S    
O22   Zn8   S    
C38   H26   S    
C1    O1    A    
C129  N22   S    
C34   H10   S    
C3    C106  A    
C16   N1    A    
O11   Zn6   S    
C87   O38   A    
C18   C27   T    
H5    O58   S    
O29   Zn12  S    
C130  N24   S    
C119  N13   S    
C111  O58   S    
O35   Zn2   S    
C49   H70   S    
C119  C135  A    
C120  C136  A    
H45   O49   S    
C39   H28   S    
C40   H35   S    
C18   C57   S    
O19   Zn9   S    
C101  O2    A    
C47   H59   S    
C45   N20   S    
C99   O46   S    
C100  C118  A    
C10   C139  S    
C115  O61   S    
C16   N23   A    
H6    O59   S    
C44   H51   S    
C20   C79   S    
C87   O42   A    
C94   O18   A    
H27   N14   S    
C123  O4    A    
C21   C30   T    
O21   Zn11  S    
C42   N17   S    
C23   C32   T    
C100  O47   S    
C90   O64   A    
C75   C83   S    
C14   C136  S    
C66   C75   T    
O37   Zn3   S    
C48   H63   S    
O14   Zn1   S    
C104  O50   S    
O10   Zn5   S    
C63   C72   T    
C24   C58   T    
C126  N19   S    
C41   H39   S    
C89   O11   A    
N4    N28   A    
C5    C108  A    
C3    C104  A    
O17   Zn5   S    
C70   C78   T    
C98   O44   S    
C103  C144  A    
H1    O44   S    
C132  N26   S    
C68   O23   A    
H22   N13   S    
C30   C35   S    
C17   C26   T    
C80   C87   S    
C15   C135  S    
C56   C65   S    
C9    N5    A    
C7    C115  A    
O4    Zn11  S    
H4    O57   S    
C8    N6    A    
C58   C66   S    
C62   C71   S    
O1    Zn1   S    
H40   N17   S    
C50   H72   S    
C91   O10   A    
C76   C88   S    
C37   H19   S    
C42   H42   S    
C43   H47   S    
C1    O62   A    
C10   N4    A    
C109  O55   S    
C16   C133  S    
C71   C80   T    
O33   Zn2   S    
O7    Zn10  S    
C20   C29   T    
C33   C53   S    
C22   C31   T    
H9    N9    S    
O16   Zn6   S    
C104  C121  A    
O13   Zn7   S    
C45   H54   S    
C50   H74   S    
C53   C62   T    
C98   C116  A    
O56   Zn7   S    
C122  C136  A    
C55   C64   S    
O20   Zn10  S    
C79   O63   A    
C48   H65   S    
C90   O7    A    
C118  C133  A    
C4    C94   S    
C6    C96   S    
O45   Zn1   S    
H7    O60   S    
C102  C143  A    
N31   N32   A    
O32   Zn2   S    
C84   O30   A    
C57   O56   A    
C127  N20   S    
C91   O13   A    
C88   O41   A    
C51   H76   S    
O15   Zn7   S    
C44   H50   S    
C9    N7    A    
C96   O22   A    
C7    C113  A    
C100  C142  A    
C97   O26   A    
C38   N13   S    
C8    N8    A    
C78   C86   S    
C129  C140  A    
C15   N27   A    
C117  N10   S    
C92   C144  S    
C36   H16   S    
C102  O48   S    
N2    N30   A    
C45   H57   S    
O40   Zn4   S    
C120  N14   S    
C10   N2    A    
C12   C137  S    
C67   C76   T    
C39   N14   S    
C44   N19   S    
O28   Zn12  S    
