data_mof_unit_61388.cif
_audit_creation_date              2012-12-10T21:05:44-0500
_audit_creation_method            fapswitch 2.2
_symmetry_space_group_name_H-M    P1
_symmetry_Int_Tables_number       1
_space_group_crystal_system       triclinic
_cell_length_a                    15.850073
_cell_length_b                    15.06246
_cell_length_c                    17.636428
_cell_angle_alpha                 89.999916
_cell_angle_beta                  89.986951
_cell_angle_gamma                 89.999729
_cell_volume                      4210.53994505

loop_
_atom_site_label
_atom_site_type_symbol
_atom_type_description
_atom_site_fract_x
_atom_site_fract_y
_atom_site_fract_z
_atom_type_partial_charge
C1    C     C_R   0.338847 0.500000 0.500026 0.914643
C2    C     C_R   0.454003 0.046890 0.445454 -0.140590
C3    C     C_R   0.500000 0.905044 0.500000 0.065894
C4    C     C_R   0.500000 0.094956 0.500000 0.065894
C5    C     C_1   0.500000 0.807189 0.500000 0.069686
C6    C     C_1   0.500000 0.192811 0.500000 0.069686
C7    C     C_R   0.499990 0.500000 0.353197 0.923593
C8    C     C_R   0.499996 0.500000 0.646803 0.923592
C9    C     C_R   0.499811 0.581005 0.847256 0.384518
C10   C     C_R   0.499774 0.418995 0.152744 0.384517
C11   C     C_R   0.499775 0.581005 0.152743 0.384521
C12   C     C_R   0.661153 0.500000 0.499974 0.914651
C13   C     C_R   0.499811 0.418995 0.847257 0.384522
C14   C     C_R   0.499900 0.580694 0.768656 -0.231017
C15   C     C_R   0.499870 0.419306 0.231343 -0.231019
C16   C     C_R   0.499870 0.580694 0.231343 -0.230905
C17   C     C_R   0.499900 0.419306 0.768657 -0.230904
C18   C     C_R   0.499942 0.500000 0.729129 -0.175599
C19   C     C_R   0.499921 0.500000 0.270871 -0.175596
C20   C     C_R   0.499763 0.500000 0.886339 -0.098395
C21   C     C_R   0.499730 0.500000 0.113661 -0.098393
C22   C     C_1   0.499710 0.500000 0.966361 0.174123
C23   C     C_1   0.824377 0.499999 0.499984 -0.054114
C24   C     C_1   0.499699 0.500000 0.033639 0.174124
C25   C     C_R   0.956256 0.580767 0.502447 -0.165019
C26   C     C_R   0.043744 0.419233 0.497553 -0.165012
C27   C     C_R   0.043741 0.580768 0.502453 -0.165006
C28   C     C_R   0.956259 0.419232 0.497547 -0.165013
C29   C     C_R   0.913152 0.500000 0.499994 0.162051
C30   C     C_R   0.086848 0.500000 0.500006 0.162050
C31   C     C_1   0.175623 0.500001 0.500016 -0.054104
C32   C     C_1   0.250457 0.500001 0.500023 -0.160429
C33   C     C_1   0.749543 0.499999 0.499977 -0.160449
C34   C     C_R   0.454003 0.953110 0.445454 -0.140545
C35   C     C_R   0.545996 0.046890 0.554545 -0.140546
C36   C     C_R   0.545996 0.953110 0.554545 -0.140592
Cl1   Cl    Cl    0.499767 0.683839 0.894935 -0.494772
Cl2   Cl    Cl    0.499720 0.316161 0.105065 -0.494779
Cl3   Cl    Cl    0.499721 0.683839 0.105065 -0.494717
Cl4   Cl    Cl    0.499767 0.316161 0.894936 -0.494710
H1    H     H_    0.499932 0.643491 0.738700 0.202534
H2    H     H_    0.582042 0.918078 0.597285 0.150139
H3    H     H_    0.582042 0.081921 0.597285 0.150176
H4    H     H_    0.417958 0.918079 0.402715 0.150188
H5    H     H_    0.499902 0.356509 0.261300 0.202532
H6    H     H_    0.499903 0.643491 0.261300 0.202553
H7    H     H_    0.499931 0.356509 0.738700 0.202555
H8    H     H_    0.077655 0.643212 0.504349 0.152157
H9    H     H_    0.922346 0.356788 0.495651 0.152154
H10   H     H_    0.922340 0.643211 0.504338 0.152108
H11   H     H_    0.077659 0.356789 0.495662 0.152111
H12   H     H_    0.417957 0.081922 0.402715 0.150151
N1    N     N_1   0.500000 0.270550 0.500000 -0.084807
N2    N     N_1   0.500000 0.729450 0.500000 -0.084807
O1    O     O_R   0.378020 0.573650 0.500020 -0.607776
O2    O     O_R   0.621980 0.426350 0.499980 -0.607773
O3    O     O_R   0.621980 0.573650 0.499980 -0.607770
O4    O     O_R   0.378020 0.426350 0.500020 -0.607772
O5    O     O_R   0.500000 0.573690 0.389120 -0.616882
O6    O     O_R   0.500000 0.426310 0.610880 -0.616882
O7    O     O_R   0.500000 0.573690 0.610880 -0.616948
O8    O     O_R   0.500000 0.426310 0.389120 -0.616948
Zn1   Zn    Zn3+2 0.500000 0.598370 0.500000 0.996583
Zn2   Zn    Zn3+2 0.500000 0.401630 0.500000 0.996583

loop_
_geom_bond_atom_site_label_1
_geom_bond_atom_site_label_2
_ccdc_geom_bond_type
C27   H8    S    
C2    C4    A    
C9    C14   A    
O2    Zn2   S    
C7    O8    A    
O3    Zn1   S    
C25   C27   A    
C35   H3    S    
C28   H9    S    
C14   C18   A    
C9    C20   A    
C36   H2    S    
C35   C36   A    
C3    C34   A    
C13   C17   A    
C8    O7    A    
C10   Cl2   S    
C2    C34   A    
C9    Cl1   S    
C17   C18   A    
C1    O1    A    
C4    C35   A    
C31   C32   T    
C26   H11   S    
C8    O6    A    
C27   C30   A    
C15   C19   A    
C12   O2    A    
C2    H12   S    
C3    C36   A    
C16   C19   A    
C12   O3    A    
C23   C29   S    
C7    O5    A    
C28   C29   A    
C20   C22   S    
O6    Zn2   S    
C26   C30   A    
C7    C19   S    
C10   C15   A    
C14   H1    S    
C10   C21   A    
C25   C29   A    
C30   C31   S    
C11   Cl3   S    
N1    Zn2   S    
C22   C24   T    
O5    Zn1   S    
N2    Zn1   S    
C15   H5    S    
C6    N1    T    
O4    Zn2   S    
C5    N2    T    
C34   H4    S    
C4    C6    S    
C11   C16   A    
C21   C24   S    
C16   H6    S    
O7    Zn1   S    
C25   H10   S    
C13   Cl4   S    
O8    Zn2   S    
C13   C20   A    
C23   C33   T    
C12   C33   S    
C1    O4    A    
C26   C28   A    
C11   C21   A    
C1    C32   S    
C8    C18   S    
C17   H7    S    
C3    C5    S    
O1    Zn1   S    
