data_mof_unit_44052.cif
_audit_creation_date              2012-12-11T15:19:39-0500
_audit_creation_method            fapswitch 2.2
_symmetry_space_group_name_H-M    P1
_symmetry_Int_Tables_number       1
_space_group_crystal_system       triclinic
_cell_length_a                    19.892459
_cell_length_b                    6.871355
_cell_length_c                    18.089857
_cell_angle_alpha                 89.896063
_cell_angle_beta                  103.838154
_cell_angle_gamma                 90.101554
_cell_volume                      2400.89414222

loop_
_atom_site_label
_atom_site_type_symbol
_atom_type_description
_atom_site_fract_x
_atom_site_fract_y
_atom_site_fract_z
_atom_type_partial_charge
O1    O     O_R   0.312200 0.620210 0.189560 -0.542116
O2    O     O_R   0.687800 0.379790 0.810440 -0.538798
O3    O     O_R   0.187800 0.120210 0.310440 -0.541265
O4    O     O_R   0.812200 0.879790 0.689560 -0.527860
O5    O     O_R   0.171590 0.286140 0.165000 -0.519838
O6    O     O_R   0.828410 0.713860 0.835000 -0.536480
O7    O     O_R   0.328410 0.786140 0.335000 -0.527071
O8    O     O_R   0.671590 0.213860 0.665000 -0.540494
C1    C     C_R   0.145559 0.459478 0.143946 0.755681
C2    C     C_R   0.854505 0.540523 0.855968 0.762019
C3    C     C_R   0.354566 0.959472 0.355898 0.767205
C4    C     C_R   0.645621 0.040486 0.643858 0.742277
O9    O     O_R   0.310670 0.290220 0.180540 -0.527474
O10   O     O_R   0.689330 0.709780 0.819460 -0.540653
O11   O     O_R   0.189330 0.790220 0.319460 -0.533750
O12   O     O_R   0.810670 0.209780 0.680540 -0.544402
O13   O     O_R   0.327870 0.124170 0.326080 -0.539728
O14   O     O_R   0.672130 0.875830 0.673920 -0.523733
O15   O     O_R   0.172130 0.624170 0.173920 -0.542560
O16   O     O_R   0.827870 0.375830 0.826080 -0.533865
C5    C     C_R   0.332194 0.459676 0.164893 0.762518
C6    C     C_R   0.666734 0.540626 0.833618 0.764819
C7    C     C_R   0.167354 0.958874 0.334488 0.768095
C8    C     C_R   0.832133 0.040889 0.664832 0.748720
O17   O     O_3   0.255480 0.455050 0.297740 -0.367369
O18   O     O_3   0.744520 0.544950 0.702260 -0.359230
O19   O     O_3   0.244520 0.955050 0.202260 -0.364539
O20   O     O_3   0.755480 0.044950 0.797740 -0.366509
V1    V     V_3+5 0.248980 0.178550 0.241140 1.472113
V2    V     V_3+5 0.751020 0.821450 0.758860 1.478363
V3    V     V_3+5 0.251020 0.678550 0.258860 1.459445
V4    V     V_3+5 0.748980 0.321450 0.741140 1.458119
C9    C     C_R   0.951350 0.071347 0.641490 0.062289
C10   C     C_R   0.046273 0.971391 0.353125 0.058029
C11   C     C_R   0.547606 0.492593 0.854292 0.063301
C12   C     C_R   0.450433 0.536844 0.144442 0.058026
C13   C     C_R   0.880349 0.026960 0.613281 -0.160016
C14   C     C_R   0.118509 0.964367 0.385384 -0.150050
C15   C     C_R   0.618790 0.526253 0.885272 -0.140930
C16   C     C_R   0.382059 0.467051 0.115083 -0.160955
C17   C     C_R   0.856510 0.954077 0.538249 -0.064610
C18   C     C_R   0.143436 0.952195 0.465478 -0.074716
C19   C     C_R   0.644775 0.537205 0.965048 -0.067990
C20   C     C_R   0.363094 0.392524 0.039922 -0.081321
C21   C     C_R   0.904795 0.914038 0.492929 0.005752
C22   C     C_R   0.095509 0.934105 0.512418 -0.004732
C23   C     C_R   0.600674 0.495591 0.015197 0.008927
C24   C     C_R   0.414703 0.367826 0.998139 -0.018983
C25   C     C_R   0.975984 0.948809 0.524696 -0.036915
C26   C     C_R   0.023815 0.934779 0.478577 -0.029782
C27   C     C_R   0.530267 0.448644 0.982294 -0.024115
C28   C     C_R   0.482649 0.435431 0.028865 -0.027136
C29   C     C_R   0.000239 0.997720 0.602557 0.016123
C30   C     C_R   0.999551 0.921196 0.398878 0.022354
C31   C     C_R   0.506062 0.420396 0.902537 0.006864
C32   C     C_R   0.502963 0.491521 0.105767 0.024694
C33   C     C_R   0.886964 0.817618 0.420548 0.159451
C34   C     C_R   0.115908 0.894262 0.591779 0.169514
C35   C     C_R   0.624625 0.476826 0.096645 0.130825
C36   C     C_R   0.402614 0.263846 0.928517 0.174733
C37   C     C_R   0.932264 0.838562 0.369955 0.091842
C38   C     C_R   0.070730 0.950552 0.638650 0.110713
C39   C     C_R   0.574759 0.479519 0.142444 0.084653
C40   C     C_R   0.443915 0.308124 0.876245 0.108820
C41   C     C_1   0.583186 0.027439 0.581604 -0.167675
C42   C     C_1   0.417044 0.972411 0.418113 -0.167103
C43   C     C_1   0.916948 0.527508 0.918229 -0.162962
C44   C     C_1   0.083094 0.472397 0.081719 -0.172121
C45   C     C_1   0.530921 0.010777 0.530100 0.008757
C46   C     C_1   0.469318 0.988963 0.469617 0.006369
C47   C     C_1   0.969205 0.510846 0.969750 0.008834
C48   C     C_1   0.030810 0.488983 0.030230 0.006352
C49   C     C_3   0.971061 0.231884 0.700898 -0.366281
C50   C     C_3   0.948573 0.432159 0.666602 -0.733415
H1    H     H_    0.971381 0.460659 0.617237 0.226123
H2    H     H_    0.891616 0.443369 0.647366 0.243053
H3    H     H_    0.966869 0.546842 0.709993 0.196333
H4    H     H_    0.948586 0.203192 0.750464 0.163778
H5    H     H_    0.027210 0.244455 0.722983 0.201901
C51   C     C_3   0.020994 0.081772 0.278464 -0.362179
C52   C     C_3   0.032734 0.300892 0.290331 -0.739266
H6    H     H_    0.004862 0.354553 0.332645 0.222040
H7    H     H_    0.088340 0.336792 0.311033 0.237013
H8    H     H_    0.012575 0.378611 0.235646 0.199728
H9    H     H_    0.047012 0.028020 0.234547 0.161061
H10   H     H_    0.964996 0.065847 0.254936 0.205638
C53   C     C_3   0.515243 0.571165 0.774667 -0.368865
C54   C     C_3   0.525574 0.791065 0.768184 -0.769606
H11   H     H_    0.523365 0.865934 0.821868 0.225827
H12   H     H_    0.575482 0.824295 0.754403 0.232151
H13   H     H_    0.484432 0.851494 0.721072 0.211802
H14   H     H_    0.536120 0.493110 0.731258 0.165805
H15   H     H_    0.458763 0.553271 0.760362 0.219247
C55   C     C_3   0.463189 0.691373 0.206664 -0.373769
C56   C     C_3   0.433335 0.888780 0.175625 -0.686028
H16   H     H_    0.465083 0.952208 0.138742 0.208030
H17   H     H_    0.379121 0.876991 0.141760 0.242926
H18   H     H_    0.434894 0.990460 0.223655 0.188419
H19   H     H_    0.441855 0.644530 0.255235 0.164587
H20   H     H_    0.518562 0.719604 0.229754 0.209705
C57   C     C_2   0.780690 0.953079 0.504413 0.705998
O21   O     O_2   0.741885 0.859663 0.534213 -0.562200
O22   O     O_R   0.753832 0.057901 0.437604 -0.681973
H21   H     H_    0.701643 0.045963 0.419808 0.288059
C58   C     C_2   0.217529 0.997734 0.500001 0.704919
O23   O     O_2   0.263419 0.922767 0.475385 -0.574842
O24   O     O_R   0.234634 0.124265 0.562118 -0.670272
H22   H     H_    0.286447 0.142715 0.580986 0.291139
C59   C     C_2   0.714154 0.625239 0.992684 0.725560
O25   O     O_2   0.765497 0.542537 0.982316 -0.578775
O26   O     O_R   0.720350 0.805223 0.029450 -0.674374
H23   H     H_    0.770075 0.852211 0.044762 0.286795
C60   C     C_2   0.288322 0.386257 0.998996 0.696686
O27   O     O_2   0.244757 0.320259 0.029699 -0.567336
O28   O     O_R   0.268163 0.454236 0.923992 -0.669895
H24   H     H_    0.216542 0.440712 0.901592 0.292055
C61   C     C_3   0.828988 0.664121 0.404763 -0.364553
C62   C     C_3   0.840603 0.507285 0.466559 -0.727897
H25   H     H_    0.890878 0.432816 0.470441 0.226401
H26   H     H_    0.839780 0.568866 0.522795 0.234435
H27   H     H_    0.798418 0.398641 0.452009 0.258055
H28   H     H_    0.777189 0.729182 0.396991 0.207123
H29   H     H_    0.824589 0.583721 0.351331 0.183857
C63   C     C_3   0.170879 0.737536 0.619805 -0.349906
C64   C     C_3   0.137467 0.535765 0.615348 -0.753652
H30   H     H_    0.098712 0.528083 0.650256 0.215589
H31   H     H_    0.111485 0.500352 0.555394 0.240356
H32   H     H_    0.177919 0.424586 0.636739 0.252037
H33   H     H_    0.209714 0.728491 0.585544 0.200629
H34   H     H_    0.201259 0.764623 0.678497 0.188811
C65   C     C_3   0.700126 0.421183 0.133079 -0.374846
C66   C     C_3   0.718685 0.223858 0.104667 -0.692434
H35   H     H_    0.685052 0.108760 0.119899 0.237323
H36   H     H_    0.712400 0.223732 0.042119 0.255987
H37   H     H_    0.773456 0.188662 0.131951 0.213128
H38   H     H_    0.737248 0.534455 0.125893 0.200938
H39   H     H_    0.711918 0.408465 0.195414 0.198726
C67   C     C_3   0.359446 0.076606 0.919513 -0.335969
C68   C     C_3   0.405670 0.897697 0.942007 -0.760714
H40   H     H_    0.446969 0.889558 0.910543 0.224247
H41   H     H_    0.430643 0.901856 0.003752 0.232221
H42   H     H_    0.373735 0.763598 0.930026 0.248551
H43   H     H_    0.322707 0.071839 0.956500 0.193493
H44   H     H_    0.327121 0.060288 0.860946 0.192409
C69   C     C_3   0.914281 0.742220 0.291338 -0.366285
C70   C     C_3   0.850499 0.833685 0.237699 -0.759356
H45   H     H_    0.801879 0.789544 0.252799 0.223718
H46   H     H_    0.853186 0.994870 0.239436 0.225425
H47   H     H_    0.847404 0.784960 0.178504 0.220621
H48   H     H_    0.958040 0.745900 0.263378 0.174920
H49   H     H_    0.906475 0.583577 0.296487 0.176269
C71   C     C_3   0.094688 0.923940 0.724969 -0.365348
C72   C     C_3   0.152465 0.067256 0.761310 -0.747837
H50   H     H_    0.201940 0.029756 0.747009 0.221189
H51   H     H_    0.139580 0.218619 0.741896 0.221164
H52   H     H_    0.160939 0.062180 0.824225 0.225871
H53   H     H_    0.051421 0.936317 0.753436 0.168353
H54   H     H_    0.113449 0.773701 0.739341 0.188398
C73   C     C_3   0.595613 0.419708 0.226646 -0.348564
C74   C     C_3   0.640948 0.570840 0.278666 -0.792071
H55   H     H_    0.688993 0.500761 0.311929 0.226460
H56   H     H_    0.655444 0.693877 0.245616 0.230526
H57   H     H_    0.613588 0.629895 0.320510 0.224434
H58   H     H_    0.549846 0.386347 0.249537 0.173668
H59   H     H_    0.622984 0.277680 0.231511 0.182469
C75   C     C_3   0.425282 0.214460 0.797271 -0.382275
C76   C     C_3   0.359404 0.302636 0.746094 -0.740927
H60   H     H_    0.313312 0.213037 0.747400 0.224287
H61   H     H_    0.349873 0.452826 0.763825 0.235103
H62   H     H_    0.364517 0.307613 0.686363 0.214148
H63   H     H_    0.468571 0.223030 0.768704 0.172727
H64   H     H_    0.417383 0.055838 0.801063 0.194521

loop_
_geom_bond_atom_site_label_1
_geom_bond_atom_site_label_2
_ccdc_geom_bond_type
C34   C38   A    
C53   C54   S    
O1    C5    A    
C57   O21   D    
O19   V1    S    
O13   V1    S    
C49   C50   S    
C58   O23   D    
O3    C7    A    
C56   H16   S    
C39   C73   S    
O15   V3    S    
C62   H26   S    
C69   C70   S    
C56   H18   S    
C76   H61   S    
C42   C46   T    
C2    C43   S    
O7    C3    A    
C58   O24   S    
C21   C33   A    
C26   C30   A    
C50   H2    S    
C12   C32   A    
O9    V1    S    
C14   C18   A    
C67   H43   S    
C59   O26   S    
O4    C8    A    
C68   H42   S    
C25   C29   A    
C43   C47   T    
O28   H24   S    
O1    V3    S    
O2    V4    S    
C18   C22   A    
O3    V1    S    
C37   C69   S    
C62   H25   S    
C12   C16   A    
C40   C75   S    
C10   C51   S    
C60   O27   D    
C11   C53   S    
C1    O15   A    
O26   H23   S    
C2    O16   A    
C66   H35   S    
C50   H3    S    
O2    C6    A    
C64   H32   S    
C51   H10   S    
O24   H22   S    
O14   V2    S    
C21   C25   A    
C72   H51   S    
C16   C20   A    
O5    V1    S    
C69   H48   S    
C3    C42   S    
C44   C48   T    
O11   C7    A    
C75   H64   S    
C75   H63   S    
O12   C8    A    
C53   H14   S    
C22   C34   A    
O17   V1    S    
C45   C46   S    
O10   V2    S    
C52   H7    S    
C24   C36   A    
C76   H62   S    
C70   H46   S    
C9    C29   A    
C71   H54   S    
O7    V3    S    
C50   H1    S    
C11   C31   A    
C27   C28   A    
O8    V4    S    
C74   H57   S    
O20   V4    S    
C65   H38   S    
C76   H60   S    
O18   V4    S    
C15   C19   A    
C49   H4    S    
O19   V3    S    
C52   H6    S    
C73   H59   S    
C62   H27   S    
C74   H56   S    
C11   C15   A    
C61   H28   S    
O5    C1    A    
C51   H9    S    
C65   H39   S    
C70   H47   S    
C29   C38   A    
C73   C74   S    
C54   H13   S    
C55   H20   S    
O8    C4    A    
C35   C65   S    
C31   C40   A    
C8    C13   S    
C49   H5    S    
C32   C39   A    
C63   H34   S    
C54   H11   S    
C72   H52   S    
C33   C37   A    
C69   H49   S    
C38   C71   S    
C9    C49   S    
O6    V2    S    
C54   H12   S    
C20   C60   S    
C10   C30   A    
C75   C76   S    
C65   C66   S    
C52   H8    S    
C33   C61   S    
C70   H45   S    
O16   V4    S    
C71   H53   S    
C3    O13   A    
C10   C14   A    
C34   C63   S    
O17   V3    S    
C51   C52   S    
O6    C2    A    
C23   C27   A    
C68   H40   S    
C56   H17   S    
O11   V3    S    
C30   C37   A    
O12   V4    S    
C7    C14   S    
C4    C41   S    
C22   C26   A    
C35   C39   A    
C57   O22   S    
C36   C40   A    
C74   H55   S    
O10   C6    A    
O20   V2    S    
C61   H29   S    
C1    C44   S    
C47   C48   S    
C67   H44   S    
C61   C62   S    
O9    C5    A    
C68   H41   S    
C64   H30   S    
C5    C16   S    
C28   C32   A    
C55   H19   S    
C66   H37   S    
C41   C45   T    
C6    C15   S    
C53   H15   S    
C17   C57   S    
C63   H33   S    
C27   C31   A    
C13   C17   A    
C55   C56   S    
C18   C58   S    
C9    C13   A    
C67   C68   S    
C23   C35   A    
C12   C55   S    
C24   C28   A    
C71   C72   S    
C66   H36   S    
C25   C26   A    
C4    O14   A    
O22   H21   S    
C64   H31   S    
C17   C21   A    
C73   H58   S    
C19   C59   S    
C72   H50   S    
C59   O25   D    
C19   C23   A    
O4    V2    S    
C20   C24   A    
C36   C67   S    
C63   C64   S    
C60   O28   S    
O18   V2    S    
