data_mof_unit_11387.cif
_audit_creation_date              2012-10-26T18:50:03-0400
_audit_creation_method            fapswitch 2.2
_symmetry_space_group_name_H-M    P1
_symmetry_Int_Tables_number       1
_space_group_crystal_system       triclinic
_cell_length_a                    10.767198
_cell_length_b                    12.973995
_cell_length_c                    11.761213
_cell_angle_alpha                 99.373521
_cell_angle_beta                  92.813904
_cell_angle_gamma                 91.559489
_cell_volume                      1618.03985995

loop_
_atom_site_label
_atom_site_type_symbol
_atom_type_description
_atom_site_fract_x
_atom_site_fract_y
_atom_site_fract_z
_atom_type_partial_charge
C1    C     C_R   0.496948 0.299400 0.479012 0.519600
C2    C     C_R   0.472952 0.860933 0.437389 -0.110200
C3    C     C_R   0.516221 0.031054 0.554066 0.043290
C4    C     C_R   0.478960 0.969054 0.446901 0.044239
C5    C     C_R   0.377617 0.404938 0.027072 -0.160766
C6    C     C_R   0.622148 0.595260 0.972996 -0.160833
C7    C     C_R   0.391066 0.412889 0.147299 0.028572
C8    C     C_R   0.610660 0.585532 0.852517 0.033166
C9    C     C_R   0.552760 0.542462 0.154938 0.165184
C10   C     C_R   0.443509 0.460916 0.845510 0.164724
C11   C     C_R   0.543400 0.535859 0.032544 -0.006131
C12   C     C_R   0.502328 0.700608 0.521050 0.528786
C13   C     C_R   0.453506 0.466943 0.967853 -0.001916
C14   C     C_R   0.263161 0.500213 0.500995 0.528237
C15   C     C_R   0.736836 0.499808 0.499001 0.525389
C16   C     C_R   0.134441 0.687481 0.482979 -0.087051
C17   C     C_R   0.865536 0.312508 0.516862 -0.090374
C18   C     C_R   0.072102 0.778497 0.472516 -0.118978
C19   C     C_R   0.927872 0.221437 0.527076 -0.116024
C20   C     C_R   0.942889 0.778010 0.470376 -0.108228
C21   C     C_R   0.057073 0.221877 0.528986 -0.109258
C22   C     C_R   0.875564 0.686484 0.478562 -0.099269
C23   C     C_R   0.505167 0.813987 0.533110 -0.003529
C24   C     C_R   0.124393 0.313422 0.520877 -0.065887
C25   C     C_R   0.937008 0.592875 0.488534 -0.003733
C26   C     C_R   0.062965 0.407098 0.511224 0.026318
C27   C     C_R   0.067910 0.593436 0.491098 0.012349
C28   C     C_R   0.932070 0.406563 0.508781 0.011572
C29   C     C_R   0.870596 0.499425 0.497300 -0.017757
C30   C     C_R   0.129390 0.500588 0.502643 0.002741
C31   C     C_2   0.344895 0.392606 0.778451 0.266594
C32   C     C_2   0.645690 0.616141 0.222633 0.268792
C33   C     C_R   0.492143 0.186054 0.467327 -0.008022
C34   C     C_R   0.448832 0.016111 0.350823 -0.131474
C35   C     C_R   0.546834 0.983982 0.650021 -0.140359
C36   C     C_R   0.455696 0.124295 0.360915 -0.135141
C37   C     C_R   0.541418 0.875763 0.639572 -0.135858
C38   C     C_R   0.522382 0.139168 0.563560 -0.144336
Cu1   Cu    Cu3+1 0.509250 0.507730 0.615930 0.949749
Cu2   Cu    Cu3+1 0.490750 0.492270 0.384070 0.944339
H1    H     H_    0.105396 0.150996 0.536508 0.110756
H2    H     H_    0.224680 0.309840 0.522176 0.115169
H3    H     H_    0.443093 0.813543 0.355466 0.165548
H4    H     H_    0.551268 0.186588 0.645774 0.114654
H5    H     H_    0.566830 0.840507 0.714416 0.135461
H6    H     H_    0.431350 0.159549 0.285825 0.129737
H7    H     H_    0.420165 0.969405 0.268228 0.120519
H8    H     H_    0.575503 0.030681 0.732619 0.108136
H9    H     H_    0.672033 0.631489 0.808665 0.134331
H10   H     H_    0.332173 0.364693 0.190875 0.130241
H11   H     H_    0.367444 0.320732 0.724231 0.098768
H12   H     H_    0.894562 0.848842 0.462627 0.126798
H13   H     H_    0.732975 0.588198 0.253197 0.110862
H14   H     H_    0.308321 0.349328 0.981496 0.129895
H15   H     H_    0.693645 0.648845 0.018359 0.131135
H16   H     H_    0.234934 0.691835 0.485084 0.123134
H17   H     H_    0.765040 0.308175 0.514870 0.128424
H18   H     H_    0.124346 0.849712 0.466430 0.112616
H19   H     H_    0.875633 0.150209 0.533112 0.116309
H20   H     H_    0.775261 0.690044 0.477108 0.135085
N1    N     N_R   0.523180 0.519350 0.790130 -0.246898
N2    N     N_R   0.476820 0.480650 0.209870 -0.245248
O1    O     O_R   0.506570 0.354460 0.582000 -0.538339
O2    O     O_2   0.628543 0.709862 0.237911 -0.539276
O3    O     O_R   0.493430 0.645540 0.418000 -0.478396
O4    O     O_R   0.490940 0.341410 0.386200 -0.508879
O5    O     O_R   0.509060 0.658590 0.613800 -0.511534
O6    O     O_R   0.327470 0.506520 0.597900 -0.466208
O7    O     O_R   0.672530 0.493480 0.402100 -0.525162
O8    O     O_R   0.311840 0.493460 0.402100 -0.513804
O9    O     O_R   0.688160 0.506540 0.597900 -0.501503
O10   O     O_2   0.235916 0.414648 0.787538 -0.510848

loop_
_geom_bond_atom_site_label_1
_geom_bond_atom_site_label_2
_ccdc_geom_bond_type
C10   C13   A    
C2    C4    A    
C16   H16   S    
C7    N2    A    
C38   H4    S    
C15   C29   S    
C23   C37   A    
C25   C27   A    
C2    H3    S    
Cu1   O1    S    
Cu1   O6    S    
C6    H15   S    
C5    C13   A    
C33   C38   A    
C6    C11   A    
C3    C35   A    
C8    N1    A    
C22   H20   S    
C16   C27   A    
C6    C8    A    
C1    O4    A    
C1    C33   S    
C35   C37   A    
C20   H12   S    
Cu2   O4    S    
C24   H2    S    
C27   C30   A    
C36   H6    S    
C11   C13   A    
C12   C23   S    
C14   O8    A    
Cu2   O8    S    
C15   O9    A    
C14   C30   S    
C3    C38   A    
C21   H1    S    
C35   H8    S    
C1    O1    A    
C31   O10   D    
C17   C19   A    
C32   H13   S    
C20   C22   A    
Cu1   O5    S    
C26   C30   A    
C34   C36   A    
Cu2   O3    S    
C9    C11   A    
C9    N2    A    
C25   C29   A    
C15   O7    A    
C12   O5    A    
C4    C34   A    
C8    H9    S    
C10   N1    A    
Cu2   O7    S    
C37   H5    S    
C3    C4    A    
C5    H14   S    
C2    C23   A    
C33   C36   A    
Cu2   N2    S    
C32   O2    D    
C18   C20   A    
C16   C18   A    
C12   O3    A    
C21   C24   A    
C17   H17   S    
Cu1   Cu2   S    
C5    C7    A    
Cu1   O9    S    
C28   C29   A    
C14   O6    A    
C34   H7    S    
C9    C32   S    
C19   H19   S    
Cu1   N1    S    
C17   C28   A    
C26   C28   A    
C10   C31   S    
C18   H18   S    
C24   C26   A    
C7    H10   S    
C31   H11   S    
C19   C21   A    
C22   C25   A    
