data_mof_unit_57890.cif
_audit_creation_date              2013-03-05T15:44:47-0500
_audit_creation_method            fapswitch 2.2
_symmetry_space_group_name_H-M    P1
_symmetry_Int_Tables_number       1
_space_group_crystal_system       triclinic
_cell_length_a                    12.972611
_cell_length_b                    12.989904
_cell_length_c                    15.357994
_cell_angle_alpha                 116.71428
_cell_angle_beta                  64.13143
_cell_angle_gamma                 96.771019
_cell_volume                      2070.24999732

loop_
_atom_site_label
_atom_site_type_symbol
_atom_site_description
_atom_site_fract_x
_atom_site_fract_y
_atom_site_fract_z
_atom_type_partial_charge
C1    C     C_R   0.017615 0.835565 0.031963 0.497564
N1    N     N_R   0.037310 0.720000 0.995790 -0.118308
C2    C     C_R   0.703493 0.402953 0.208015 -0.115027
H1    H     H_    0.646213 0.345964 0.178767 0.177517
N2    N     N_R   0.790790 0.446160 0.152010 -0.051451
C3    C     C_R   0.757213 0.518165 0.890927 -0.153076
H2    H     H_    0.785745 0.539974 0.824445 0.179828
N3    N     N_R   0.824890 0.517960 0.936420 -0.077756
C4    C     C_R   0.957370 0.723184 0.316059 0.526180
N4    N     N_R   0.003210 0.648190 0.211380 -0.092499
C5    C     C_R   0.671358 0.433036 0.997934 0.503716
N5    N     N_R   0.774330 0.457010 0.995840 -0.089057
C6    C     C_R   0.036344 0.821155 0.219987 -0.218625
H3    H     H_    0.070850 0.885654 0.194544 0.233302
N6    N     N_R   0.053760 0.709140 0.151960 -0.087951
C7    C     C_R   0.804793 0.488215 0.302310 -0.059101
H4    H     H_    0.839918 0.509988 0.359793 0.178380
N7    N     N_R   0.853860 0.498840 0.211410 -0.056180
C8    C     C_R   0.907683 0.747477 0.946912 -0.216690
H5    H     H_    0.845389 0.729761 0.914099 0.149483
N8    N     N_R   0.974240 0.667310 0.936390 -0.066581
C9    C     C_R   0.928915 0.854570 0.011137 0.053802
C10   C     C_R   0.710276 0.430341 0.302315 0.031602
C11   C     C_R   0.659805 0.464128 0.926885 -0.190184
C12   C     C_R   0.970885 0.835220 0.324632 -0.082669
C13   C     C_R   0.338530 0.518369 0.953668 -0.127515
H6    H     H_    0.396868 0.566280 0.914905 0.159181
N9    N     N_R   0.225670 0.542990 0.004160 -0.080384
C14   C     C_R   0.899867 0.203152 0.792712 -0.121770
H7    H     H_    0.842160 0.149186 0.825376 0.097447
N10   N     N_R   0.946240 0.290860 0.848040 -0.040756
C15   C     C_R   0.213341 0.463331 0.684100 -0.034563
H8    H     H_    0.186330 0.422400 0.619717 0.105943
N11   N     N_R   0.146140 0.501160 0.788590 -0.052255
C16   C     C_R   0.060569 0.248919 0.076476 -0.099614
H9    H     H_    0.092278 0.262149 0.134158 0.211412
N12   N     N_R   0.025760 0.332690 0.063610 -0.060711
C17   C     C_R   0.969407 0.166041 0.973203 -0.150830
H10   H     H_    0.926542 0.104920 0.927503 0.110089
N13   N     N_R   0.962690 0.280000 0.004210 -0.048489
C18   C     C_R   0.315740 0.555088 0.779142 -0.038432
H11   H     H_    0.382249 0.603061 0.799444 0.124936
N14   N     N_R   0.209210 0.553840 0.847990 -0.068462
C19   C     C_R   0.261605 0.416222 0.046213 0.318119
N15   N     N_R   0.175110 0.482040 0.063580 -0.091715
C20   C     C_R   0.982018 0.303782 0.699215 -0.073203
H12   H     H_    0.999808 0.345872 0.648212 0.091132
N16   N     N_R   0.996790 0.351810 0.788620 -0.039490
Ni1   Ni    Ni4+2 0.130310 0.630310 0.999970 0.202337
Ni2   Ni    Ni4+2 0.869690 0.369690 0.000030 0.235274
Ni3   Ni    Ni4+2 0.985640 0.509470 0.863740 0.219841
Ni4   Ni    Ni4+2 0.014360 0.490530 0.136260 0.267049
C21   C     C_R   0.364316 0.431384 0.970855 0.017218
C22   C     C_R   0.918085 0.211670 0.700440 0.064735
C23   C     C_R   0.320248 0.494042 0.677239 0.190844
C24   C     C_R   0.031483 0.142326 0.017206 0.186076
C25   C     C_R   0.956833 0.054798 0.424905 0.368118
C26   C     C_R   0.924414 0.151615 0.523062 -0.203616
H13   H     H_    0.954586 0.232167 0.521603 0.150639
C27   C     C_R   0.879977 0.138357 0.617649 0.075427
C28   C     C_R   0.828369 0.038292 0.618663 -0.147336
H14   H     H_    0.784126 0.028977 0.692555 0.134133
C29   C     C_R   0.846117 0.943601 0.521127 -0.149150
H15   H     H_    0.806748 0.866654 0.524087 0.201235
C30   C     C_R   0.924192 0.945762 0.423254 -0.037808
C31   C     C_R   0.572274 0.554079 0.479346 -0.241067
H16   H     H_    0.613958 0.627908 0.468965 0.179563
C32   C     C_R   0.471826 0.572471 0.569678 0.351744
C33   C     C_R   0.418680 0.475271 0.580139 -0.231090
C34   C     C_R   0.462429 0.360861 0.498826 0.372246
C35   C     C_R   0.560223 0.345589 0.405660 -0.250400
H17   H     H_    0.595578 0.259605 0.340417 0.175230
C36   C     C_R   0.614815 0.441774 0.398433 0.022122
C37   C     C_2   0.480487 0.383137 0.932673 -0.237881
H18   H     H_    0.487544 0.333088 0.970083 0.218432
C38   C     C_2   0.571907 0.431295 0.885565 0.312916
C39   C     C_2   0.858878 0.963302 0.057130 -0.214311
H19   H     H_    0.816111 0.971909 0.013458 0.145232
C40   C     C_2   0.835448 0.046523 0.156592 -0.062132
H20   H     H_    0.870644 0.039323 0.206184 0.190536
O1    O     O_3   0.091851 0.918416 0.055034 -0.634683
C41   C     C_3   0.207358 0.869400 0.989649 0.169412
H21   H     H_    0.225170 0.823086 0.902652 0.160266
H22   H     H_    0.227558 0.808346 0.013967 0.097111
C42   C     C_3   0.286665 0.965578 0.002838 -0.615761
H23   H     H_    0.272481 0.013089 0.088546 0.282954
H24   H     H_    0.377790 0.928067 0.951667 0.201922
H25   H     H_    0.269339 0.027124 0.977712 0.256359
N17   N     N_R   0.254847 0.371748 0.118151 0.203279
O2    O     O_R   0.313931 0.275273 0.081672 -0.426706
O3    O     O_R   0.186519 0.426187 0.220626 -0.454922
N18   N     N_R   0.037785 0.069172 0.332643 0.215887
O4    O     O_R   0.005376 0.131890 0.301011 -0.403293
O5    O     O_R   0.147100 0.052144 0.303806 -0.388903
N19   N     N_R   0.422334 0.689360 0.647238 0.227972
O6    O     O_R   0.488706 0.771207 0.668224 -0.393253
O7    O     O_R   0.313155 0.717350 0.684361 -0.433152
N20   N     N_R   0.410608 0.260725 0.510536 0.241558
O8    O     O_R   0.373274 0.256237 0.602248 -0.347915
O9    O     O_R   0.415192 0.167553 0.425866 -0.370055
N21   N     N_R   0.581576 0.454198 0.798746 0.234157
O10   O     O_R   0.620188 0.549098 0.792963 -0.440468
O11   O     O_R   0.544355 0.383002 0.728864 -0.356419
O12   O     O_3   0.921843 0.691036 0.398118 -0.675544
C43   C     C_3   0.014323 0.695655 0.424468 0.205441
H26   H     H_    0.035043 0.786543 0.460577 0.119112
H27   H     H_    0.092710 0.642030 0.351891 0.149163
C44   C     C_3   0.980626 0.648832 0.506951 -0.781939
H28   H     H_    0.961506 0.557335 0.472491 0.263785
H29   H     H_    0.052471 0.652891 0.528975 0.217487
H30   H     H_    0.903222 0.701352 0.580946 0.250888
O13   O     O_3   0.586958 0.403372 0.074195 -0.660675
C45   C     C_3   0.515973 0.505663 0.160473 0.201358
H31   H     H_    0.465993 0.538957 0.133594 0.111245
H32   H     H_    0.567719 0.574947 0.192080 0.107683
C46   C     C_3   0.430621 0.480825 0.253634 -0.731149
H33   H     H_    0.472947 0.476640 0.301087 0.214257
H34   H     H_    0.359089 0.551282 0.308698 0.217996
H35   H     H_    0.394721 0.397402 0.222881 0.313104

loop_
_geom_bond_atom_site_label_1
_geom_bond_atom_site_label_2
_geom_bond_distance
_ccdc_geom_bond_type
C31   C32   1.370277 A    
C29   C30   1.410242 A    
N21   O10   1.300942 A    
C25   N18   1.427796 S    
C18   H11   1.078543 S    
C2    C10   1.368327 A    
C16   H9    1.071423 S    
N4    Ni4   1.829237 S    
O1    C41   1.412857 S    
C4    C12   1.397769 A    
C22   C27   1.454946 S    
C39   H19   1.084861 S    
C44   H28   1.110738 S    
C43   H27   1.114262 S    
N11   Ni3   1.876940 S    
C37   C38   1.343312 D    
C8    N8    1.339779 A    
N12   N13   1.388523 A    
N4    N6    1.376458 A    
C17   H10   1.080575 S    
C14   C22   1.385233 A    
C1    O1    1.386274 S    
C5    C11   1.389051 A    
C46   H33   1.107891 S    
C1    N1    1.358024 A    
C28   C29   1.385312 A    
O13   C45   1.417790 S    
C19   C21   1.396791 A    
N16   Ni3   1.829237 S    
C18   C23   1.377251 A    
N19   O6    1.301469 A    
C46   H34   1.110640 S    
C32   C33   1.405635 A    
C34   C35   1.384292 A    
N17   O3    1.300973 A    
C4    N4    1.334716 A    
C15   C23   1.368740 A    
C45   C46   1.524982 S    
C39   C40   1.334932 D    
C31   H16   1.085135 S    
C16   C24   1.389781 A    
C1    C9    1.395144 A    
N21   O11   1.301846 A    
C6    H3    1.052765 S    
C18   N14   1.327837 A    
C6    C12   1.385308 A    
C28   H14   1.081939 S    
C10   C36   1.409189 S    
O12   C43   1.411219 S    
C42   H24   1.110560 S    
C43   C44   1.520700 S    
C20   N16   1.320052 A    
N9    N15   1.376472 A    
C32   N19   1.439776 S    
C37   H18   1.075621 S    
N7    Ni4   1.876942 S    
C8    C9    1.377336 A    
C12   C30   1.473774 S    
C35   C36   1.386508 A    
N12   Ni4   1.827931 S    
C11   C38   1.469090 S    
C3    N3    1.340318 A    
N2    N7    1.388506 A    
N15   Ni4   1.875937 S    
C26   H13   1.079558 S    
C42   H23   1.110153 S    
C31   C36   1.392289 A    
C29   H15   1.078049 S    
C27   C28   1.393534 A    
C15   N11   1.322099 A    
C14   H7    1.080837 S    
N1    Ni1   1.811987 S    
N9    Ni1   1.813017 S    
N3    N5    1.376471 A    
C3    C11   1.387404 A    
C20   C22   1.375689 A    
N1    N8    1.388523 A    
N18   O5    1.301513 A    
C13   H6    1.069281 S    
C44   H30   1.110807 S    
N3    Ni3   1.875938 S    
C23   C33   1.413743 S    
N20   O8    1.301447 A    
C7    C10   1.360582 A    
C41   H22   1.112584 S    
N10   N16   1.376456 A    
C6    N6    1.328355 A    
N2    Ni2   1.884903 S    
N10   Ni2   1.884533 S    
C2    H1    1.079134 S    
C13   C21   1.375743 A    
N8    Ni3   1.827932 S    
C19   N15   1.349509 A    
C45   H31   1.112668 S    
C42   H25   1.110869 S    
C38   N21   1.443624 S    
C20   H12   1.078563 S    
C16   N12   1.346906 A    
C5    O13   1.380673 S    
N14   Ni1   1.884903 S    
N11   N14   1.388506 A    
C9    C39   1.471372 S    
C25   C30   1.421865 A    
C2    N2    1.330968 A    
N5    Ni2   1.813016 S    
C5    N5    1.325080 A    
N19   O7    1.301414 A    
C3    H2    1.079503 S    
C41   C42   1.520387 S    
C43   H26   1.113672 S    
C13   N9    1.320570 A    
C46   H35   1.107714 S    
C15   H8    1.081160 S    
C8    H5    1.080382 S    
C35   H17   1.084175 S    
C14   N10   1.340155 A    
C17   N13   1.336453 A    
C25   C26   1.377682 A    
C7    H4    1.078506 S    
C4    O12   1.376958 S    
N13   Ni2   1.811989 S    
N18   O4    1.300524 A    
C44   H29   1.110553 S    
N6    Ni1   1.884531 S    
C33   C34   1.414960 A    
N20   O9    1.301462 A    
C40   H20   1.083912 S    
C17   C24   1.385883 A    
C7    N7    1.322964 A    
C41   H21   1.114081 S    
N17   O2    1.300931 A    
C26   C27   1.393908 A    
C19   N17   1.428088 S    
C34   N20   1.440433 S    
C45   H32   1.115948 S    
C21   C37   1.459088 S    
