data_mof_unit_24425.cif
_audit_creation_date              2012-12-10T17:19:27-0500
_audit_creation_method            fapswitch 2.2
_symmetry_space_group_name_H-M    P1
_symmetry_Int_Tables_number       1
_space_group_crystal_system       triclinic
_cell_length_a                    15.058457
_cell_length_b                    10.766624
_cell_length_c                    9.621696
_cell_angle_alpha                 90.335491
_cell_angle_beta                  90.292529
_cell_angle_gamma                 92.784047
_cell_volume                      1558.06288195

loop_
_atom_site_label
_atom_site_type_symbol
_atom_type_description
_atom_site_fract_x
_atom_site_fract_y
_atom_site_fract_z
_atom_type_partial_charge
C1    C     C_R   0.496991 0.262665 0.499687 0.803429
C2    C     C_R   0.907586 0.536530 0.378531 0.073408
C3    C     C_R   0.952646 0.438149 0.741756 -0.171207
C4    C     C_R   0.045040 0.436210 0.740660 -0.124341
C5    C     C_R   0.092410 0.469140 0.620340 0.117685
C6    C     C_R   0.046773 0.503178 0.498762 0.030105
C7    C     C_R   0.094091 0.536227 0.376566 0.055253
C8    C     C_R   0.047239 0.570642 0.256321 0.157755
C9    C     C_R   0.954541 0.569876 0.258171 -0.215249
C10   C     C_R   0.184763 0.468444 0.619778 -0.196187
C11   C     C_R   0.231998 0.500492 0.499273 -0.091564
C12   C     C_R   0.328835 0.499719 0.499755 0.804586
C13   C     C_R   0.186836 0.533958 0.378484 -0.170067
C14   C     C_R   0.354640 0.120940 0.642579 -0.212756
C15   C     C_R   0.288595 0.052174 0.713566 0.327345
C16   C     C_R   0.289083 0.922912 0.714953 -0.130227
C17   C     C_R   0.355465 0.861858 0.645392 -0.225978
C18   C     C_R   0.423969 0.929790 0.574695 0.098405
C19   C     C_R   0.423591 0.061094 0.573507 0.056757
C20   C     C_R   0.490652 0.128456 0.498966 -0.070462
C21   C     C_R   0.553664 0.067306 0.421970 -0.162502
C22   C     C_R   0.553971 0.939255 0.422860 -0.176120
C23   C     C_R   0.497250 0.737027 0.500326 0.767344
C24   C     C_R   0.491264 0.870503 0.500749 -0.066010
C25   C     C_R   0.618935 0.664941 0.145485 -0.184910
C26   C     C_R   0.677713 0.744491 0.074168 -0.244164
C27   C     C_R   0.677799 0.744179 0.930776 0.166285
C28   C     C_R   0.618845 0.664433 0.858088 -0.164718
C29   C     C_R   0.558389 0.580932 0.926315 0.162380
C30   C     C_R   0.558402 0.581016 0.075712 0.182859
C31   C     C_R   0.444100 0.422579 0.070843 0.245781
C32   C     C_R   0.444526 0.423341 0.923766 -0.061883
C33   C     C_R   0.671203 0.501069 0.500276 0.794252
C34   C     C_R   0.815026 0.535246 0.379573 -0.218977
C35   C     C_R   0.768148 0.503078 0.500713 -0.064265
C36   C     C_R   0.814057 0.472448 0.621885 -0.206413
C37   C     C_R   0.906572 0.471639 0.621938 0.110670
C38   C     C_R   0.953662 0.503902 0.499728 0.069557
Cu1   Cu    Cu3+1 0.499990 0.499990 0.640660 0.945054
Cu2   Cu    Cu3+1 0.500010 0.500010 0.359340 0.974879
H1    H     H_    0.779603 0.560000 0.286158 0.156818
H2    H     H_    0.349985 0.220766 0.640084 0.158210
H3    H     H_    0.237218 0.869299 0.768501 0.189154
H4    H     H_    0.351270 0.761412 0.645748 0.171243
H5    H     H_    0.604715 0.893552 0.364857 0.142379
H6    H     H_    0.624176 0.673302 0.255134 0.201350
H7    H     H_    0.723417 0.806865 0.131216 0.176371
H8    H     H_    0.623433 0.672085 0.748584 0.211317
H9    H     H_    0.777822 0.447365 0.715541 0.162514
H10   H     H_    0.399218 0.360697 0.866528 0.165159
H11   H     H_    0.917220 0.412898 0.836007 0.159968
H12   H     H_    0.079514 0.408957 0.833920 0.193924
H13   H     H_    0.219806 0.441999 0.712990 0.181034
H14   H     H_    0.224770 0.559004 0.286938 0.197410
H15   H     H_    0.919113 0.595794 0.165205 0.173677
H16   H     H_    0.604240 0.119253 0.363548 0.156803
N1    N     N_R   0.500860 0.501210 0.147910 -0.217460
N2    N     N_R   0.500890 0.501290 0.852040 -0.211442
O1    O     O_R   0.499990 0.319640 0.618810 -0.580849
O2    O     O_R   0.500000 0.319660 0.381240 -0.550464
O3    O     O_R   0.370250 0.499960 0.618800 -0.597696
O4    O     O_R   0.370260 0.499980 0.381230 -0.554130
O5    O     O_R   0.500000 0.680340 0.618760 -0.597756
O6    O     O_R   0.500010 0.680360 0.381190 -0.589708
O7    O     O_R   0.629740 0.500020 0.618770 -0.597140
O8    O     O_R   0.629750 0.500040 0.381200 -0.603112
Br1   Br    Br    0.196349 0.135477 0.806160 -0.497688
I1    I     I_    0.350721 0.292455 0.159198 -0.264655
I2    I     I_    0.767413 0.864688 0.822102 -0.347854
I3    I     I_    0.110238 0.626643 0.067821 -0.373161

loop_
_geom_bond_atom_site_label_1
_geom_bond_atom_site_label_2
_ccdc_geom_bond_type
C2    C9    A    
C21   H16   S    
C23   C24   S    
C6    C38   A    
C29   C30   A    
C9    H15   S    
C12   O4    A    
Cu1   O5    S    
C2    C38   A    
C31   I1    S    
C8    I3    S    
C19   C20   A    
Cu2   O6    S    
C32   N2    A    
C11   C12   S    
C15   Br1   S    
C31   N1    A    
C23   O5    A    
C17   C18   A    
C17   H4    S    
Cu1   O1    S    
C5    C10   A    
Cu2   O8    S    
C21   C22   A    
C29   N2    A    
C12   O3    A    
Cu1   O7    S    
C16   H3    S    
C32   H10   S    
C26   C27   A    
C37   C38   A    
C34   H1    S    
C26   H7    S    
C4    H12   S    
Cu2   O2    S    
C14   C19   A    
C28   C29   A    
C33   C35   S    
C33   O8    A    
C13   H14   S    
C6    C7    A    
C22   C24   A    
C1    O1    A    
C5    C6    A    
Cu1   O3    S    
C18   C24   A    
C11   C13   A    
C7    C8    A    
C10   C11   A    
C33   O7    A    
C3    C4    A    
Cu1   Cu2   S    
C30   N1    A    
C23   O6    A    
C7    C13   A    
C22   H5    S    
Cu2   O4    S    
C20   C21   A    
C3    C37   A    
C2    C34   A    
C36   C37   A    
C34   C35   A    
C1    O2    A    
C25   C30   A    
C10   H13   S    
C18   C19   A    
C3    H11   S    
C14   C15   A    
C4    C5    A    
C1    C20   S    
Cu2   N1    S    
C25   C26   A    
C14   H2    S    
C25   H6    S    
C31   C32   A    
C28   H8    S    
C36   H9    S    
C15   C16   A    
C16   C17   A    
Cu1   N2    S    
C8    C9    A    
C27   C28   A    
C35   C36   A    
C27   I2    S    
