data_mof_unit_24200.cif
_audit_creation_date              2013-03-05T15:41:43-0500
_audit_creation_method            fapswitch 2.2
_symmetry_space_group_name_H-M    P1
_symmetry_Int_Tables_number       1
_space_group_crystal_system       triclinic
_cell_length_a                    6.957681
_cell_length_b                    13.686152
_cell_length_c                    20.475557
_cell_angle_alpha                 102.346865
_cell_angle_beta                  90.262933
_cell_angle_gamma                 91.002981
_cell_volume                      1904.30481746

loop_
_atom_site_label
_atom_site_type_symbol
_atom_site_description
_atom_site_fract_x
_atom_site_fract_y
_atom_site_fract_z
_atom_type_partial_charge
O1    O     O_R   0.506860 0.599390 0.449240 -0.530334
O2    O     O_R   0.180220 0.594600 0.586780 -0.560502
O3    O     O_R   0.004500 0.400610 0.550760 -0.547503
C1    C     C_R   0.347508 0.610175 0.615521 0.818831
O4    O     O_R   0.177490 0.611290 0.451970 -0.567005
O5    O     O_R   0.001750 0.417420 0.414990 -0.569173
C2    C     C_R   0.347009 0.636707 0.434740 0.888133
O6    O     O_R   0.509610 0.582580 0.585010 -0.526665
O7    O     O_3   0.337420 0.436370 0.488020 -0.279925
V1    V     V_3+5 0.064680 0.511800 0.502220 1.219764
O8    O     O_R   0.671710 0.405400 0.413220 -0.542147
C3    C     C_R   0.838213 0.386418 0.385959 0.878354
O9    O     O_R   0.674440 0.388710 0.548030 -0.570203
C4    C     C_R   0.842481 0.363492 0.565841 0.802524
V2    V     V_3+5 0.564010 0.488200 0.497780 1.236544
O10   O     O_3   0.841140 0.563630 0.511980 -0.254824
C5    C     C_R   0.918344 0.108384 0.604195 0.014843
C6    C     C_R   0.852080 0.281751 0.602338 -0.200279
C7    C     C_R   0.858464 0.309410 0.921487 0.315619
C8    C     C_R   0.869509 0.382464 0.883968 -0.005149
C9    C     C_R   0.874819 0.355947 0.814754 -0.016669
C10   C     C_R   0.861276 0.254858 0.780338 0.028459
C11   C     C_R   0.871429 0.178623 0.818054 -0.124304
C12   C     C_R   0.851817 0.228726 0.708888 0.045984
C13   C     C_R   0.905965 0.131274 0.675377 -0.093807
C14   C     C_R   0.946101 0.059760 0.714089 0.344545
C15   C     C_R   0.901506 0.078641 0.782344 0.342946
C16   C     C_R   0.793518 0.297269 0.669481 -0.075068
C17   C     C_R   0.921740 0.187995 0.569952 -0.064726
C18   C     C_R   0.863475 0.207562 0.889738 -0.127251
H1    H     H_    0.894983 0.416003 0.788573 0.105700
H2    H     H_    0.875665 0.460807 0.908638 0.148316
C19   C     C_2   0.988072 0.305962 0.277915 -0.109642
C20   C     C_2   0.833717 0.324184 0.317470 -0.179676
H3    H     H_    0.125809 0.340979 0.294977 0.142938
H4    H     H_    0.693604 0.296276 0.297282 0.109738
C21   C     C_2   0.970605 0.250409 0.207112 -0.090094
C22   C     C_2   0.874210 0.162236 0.185987 -0.160737
H5    H     H_    0.045935 0.283278 0.170427 0.174756
C23   C     C_2   0.209653 0.766988 0.792570 0.004229
C24   C     C_2   0.358364 0.827521 0.817159 -0.063636
H6    H     H_    0.085141 0.764261 0.824099 0.134397
H7    H     H_    0.481103 0.834902 0.785954 0.146106
C25   C     C_2   0.198045 0.708849 0.722136 -0.083490
C26   C     C_2   0.352530 0.662872 0.687851 0.216747
C27   C     C_R   0.313070 0.887990 0.394027 -0.005385
H8    H     H_    0.272248 0.828632 0.481463 0.124273
H9    H     H_    0.279630 0.961893 0.421726 0.187823
C28   C     C_R   0.357190 0.715477 0.396948 -0.112647
C29   C     C_R   0.341093 0.690458 0.077119 0.279301
C30   C     C_R   0.316119 0.615996 0.114068 -0.074613
C31   C     C_R   0.317935 0.643358 0.183862 -0.029560
C32   C     C_R   0.353433 0.742758 0.218715 0.054362
C33   C     C_R   0.347936 0.820053 0.182048 -0.064534
C34   C     C_R   0.369738 0.766895 0.289895 0.030582
C35   C     C_R   0.345713 0.867562 0.324497 -0.005163
C36   C     C_R   0.341043 0.945023 0.289020 -0.042952
C37   C     C_R   0.334060 0.921328 0.218510 -0.035456
C38   C     C_R   0.404317 0.694077 0.328815 0.304682
C39   C     C_R   0.308318 0.811787 0.428836 -0.127121
C40   C     C_R   0.352502 0.792004 0.110204 -0.124603
H10   H     H_    0.279648 0.586361 0.210815 0.173922
O11   O     O_R   0.203230 0.917310 0.915020 -0.532209
O12   O     O_R   0.535500 0.888690 0.048040 -0.531470
O13   O     O_R   0.711080 0.082610 0.085000 -0.514995
C41   C     C_R   0.366478 0.866311 0.067945 0.909565
O14   O     O_R   0.532630 0.905370 0.913230 -0.527683
O15   O     O_R   0.708190 0.099410 0.949230 -0.545387
C42   C     C_R   0.363693 0.886443 0.886206 0.892621
O16   O     O_R   0.206120 0.900510 0.050790 -0.581178
O17   O     O_3   0.375360 0.063570 0.011990 -0.268601
V3    V     V_3+5 0.648170 0.988200 0.997780 1.297590
O18   O     O_R   0.038240 0.111390 0.951940 -0.543836
C43   C     C_R   0.870301 0.135121 0.933111 0.982202
O19   O     O_R   0.041120 0.094710 0.086750 -0.571624
C44   C     C_R   0.874403 0.113349 0.114044 0.899596
V4    V     V_3+5 0.148810 0.011930 0.002180 1.262672
O20   O     O_3   0.871750 0.936430 0.988010 -0.259651
C45   C     C_2   0.985029 0.173490 0.499395 0.641664
H11   H     H_    0.904996 0.205867 0.463866 -0.066465
O21   O     O_2   0.133648 0.130102 0.481515 -0.541874
C46   C     C_2   0.801685 0.101855 0.233567 0.487151
H12   H     H_    0.803361 0.130881 0.287068 0.030901
O22   O     O_2   0.747140 0.015359 0.213175 -0.568858
C47   C     C_2   0.999794 0.695536 0.695477 0.575594
H13   H     H_    0.909069 0.759965 0.698462 0.109486
O23   O     O_2   0.931252 0.611676 0.675586 -0.526016
Cl1   Cl    Cl    0.558915 0.645089 0.733554 -0.662972
C48   C     C_2   0.338316 0.052004 0.325250 0.576897
H14   H     H_    0.237903 0.103402 0.310618 -0.018034
O24   O     O_2   0.453968 0.084163 0.370070 -0.555447
Cl2   Cl    Cl    0.085026 0.952724 0.682019 -0.730249
Cl3   Cl    Cl    0.536975 0.584293 0.297882 -0.678893
Cl4   Cl    Cl    0.349162 0.657634 0.988479 -0.675689
C49   C     C_2   0.285953 0.509110 0.080448 0.646949
H15   H     H_    0.274807 0.486700 0.026487 0.090303
O25   O     O_2   0.273149 0.443945 0.112791 -0.530803
C50   C     C_2   0.270989 0.001060 0.185712 0.443463
H16   H     H_    0.128996 0.993810 0.163899 0.018131
O26   O     O_2   0.371992 0.074570 0.184848 -0.546917
C51   C     C_2   0.885286 0.003254 0.566089 0.578530
H17   H     H_    0.809727 0.950199 0.589720 0.045836
O27   O     O_2   0.934996 0.974744 0.508194 -0.561703
C52   C     C_2   0.654779 0.378056 0.694670 0.518884
H18   H     H_    0.655868 0.445796 0.675454 0.096519
O28   O     O_2   0.532516 0.367654 0.735385 -0.538571
Cl5   Cl    Cl    0.848853 0.348641 0.009309 -0.659328
Cl6   Cl    Cl    0.887446 0.972167 0.818425 -0.675677

loop_
_geom_bond_atom_site_label_1
_geom_bond_atom_site_label_2
_geom_bond_distance
_ccdc_geom_bond_type
C34   C35   1.421187 A    
C51   H17   1.084878 S    
C34   C38   1.425633 A    
C5    C17   1.416080 A    
O18   C43   1.296969 A    
C4    C6    1.474512 S    
C49   H15   1.083655 S    
C37   C50   1.470301 S    
C1    O6    1.313563 A    
C52   O28   1.221435 D    
C22   C44   1.481951 S    
V4    O20   2.159822 S    
C31   C32   1.411529 A    
C9    H1    1.080609 S    
C14   C15   1.403071 A    
C28   C39   1.388899 A    
C36   C48   1.493653 S    
C24   C42   1.470149 S    
C47   H13   1.084676 S    
C18   C43   1.466884 S    
C14   Cl2   1.776356 S    
V2    O10   2.159853 S    
C35   C36   1.408180 A    
O14   V3    2.011081 S    
O11   V4    2.010059 S    
C5    C51   1.496180 S    
V3    O20   1.715444 S    
H8    C39   1.084214 S    
O8    V2    2.011474 S    
C40   C41   1.471752 S    
O11   C42   1.299607 A    
O1    V2    2.031268 S    
C11   C15   1.426323 A    
C48   O24   1.221267 D    
O7    V1    2.167163 S    
C23   H6    1.087642 S    
C51   O27   1.219754 D    
O9    C4    1.297353 A    
C22   C46   1.490254 S    
O16   V4    2.035126 S    
C24   H7    1.085038 S    
O4    V1    2.024324 S    
C52   H18   1.081744 S    
C8    H2    1.083147 S    
C19   C20   1.342568 D    
C1    C26   1.502192 S    
C32   C34   1.427395 A    
C27   H9    1.078397 S    
C47   O23   1.220540 D    
C30   C31   1.397672 A    
C11   C18   1.437772 A    
C26   Cl1   1.759049 S    
C6    C16   1.408714 A    
C12   C13   1.421338 A    
C2    C28   1.456241 S    
C45   O21   1.219791 D    
C29   Cl4   1.775429 S    
C13   C14   1.415466 A    
C32   C33   1.423032 A    
C19   C21   1.489405 S    
O14   C42   1.294968 A    
O12   C41   1.299256 A    
O2    C1    1.295327 A    
O19   C44   1.295470 A    
C21   C22   1.356080 D    
O19   V4    2.011492 S    
C16   C52   1.489421 S    
C17   C45   1.485508 S    
O15   V3    2.026776 S    
C29   C30   1.402078 A    
C6    C17   1.407817 A    
O13   C44   1.300773 A    
O3    C4    1.293980 A    
C23   C24   1.340614 D    
C46   H12   1.082394 S    
O6    V2    2.009606 S    
C46   O22   1.221134 D    
O9    V2    2.032617 S    
C10   C12   1.430755 A    
C3    C20   1.476791 S    
C25   C47   1.474977 S    
O2    V1    2.011079 S    
O17   V4    1.709337 S    
C25   C26   1.373237 D    
O4    C2    1.295580 A    
C33   C37   1.432021 A    
C27   C39   1.383370 A    
O1    C2    1.291374 A    
C12   C16   1.424642 A    
O5    V1    2.009147 S    
O8    C3    1.294443 A    
C49   O25   1.221583 D    
C33   C40   1.439342 A    
O13   V3    2.009150 S    
C50   O26   1.220370 D    
C28   C38   1.404387 A    
C5    C13   1.427127 A    
C7    C8    1.386385 A    
O7    V2    1.710536 S    
O17   V3    2.167221 S    
C21   H5    1.086806 S    
O3    V1    2.026627 S    
V1    O10   1.715514 S    
O5    C3    1.302715 A    
C36   C37   1.410853 A    
C41   O16   1.293163 A    
C15   Cl6   1.770555 S    
C19   H3    1.085986 S    
C20   H4    1.087592 S    
O12   V3    2.024300 S    
C45   H11   1.085535 S    
C23   C25   1.491797 S    
C8    C9    1.386556 A    
C50   H16   1.076539 S    
C27   C35   1.411226 A    
C29   C40   1.410564 A    
O18   V4    2.032539 S    
C10   C11   1.427103 A    
C31   H10   1.078051 S    
C38   Cl3   1.776955 S    
C48   H14   1.085406 S    
C9    C10   1.413316 A    
C7    C18   1.407550 A    
O15   C43   1.293478 A    
C30   C49   1.488332 S    
C7    Cl5   1.765143 S    
