data_mof_unit_9141.cif
_audit_creation_date              2012-12-11T15:39:07-0500
_audit_creation_method            fapswitch 2.2
_symmetry_space_group_name_H-M    P1
_symmetry_Int_Tables_number       1
_space_group_crystal_system       triclinic
_cell_length_a                    14.334042
_cell_length_b                    14.791288
_cell_length_c                    33.253323
_cell_angle_alpha                 97.950824
_cell_angle_beta                  90.158885
_cell_angle_gamma                 118.924806
_cell_volume                      6091.74866847

loop_
_atom_site_label
_atom_site_type_symbol
_atom_type_description
_atom_site_fract_x
_atom_site_fract_y
_atom_site_fract_z
_atom_type_partial_charge
C1    C     C_R   0.616817 0.910203 0.436958 0.541296
C2    C     C_R   0.742662 0.422337 0.185773 0.015299
C3    C     C_R   0.750048 0.877241 0.642858 -0.126880
C4    C     C_R   0.666179 0.788184 0.655452 0.032126
C5    C     C_R   0.636367 0.859603 0.584765 0.018322
C6    C     C_R   0.051998 0.781428 0.063849 0.541825
C7    C     C_R   0.743257 0.485816 0.065494 0.533708
C8    C     C_R   0.742955 0.789389 0.066409 0.548866
C9    C     C_R   0.021731 0.732044 0.947426 0.531379
C10   C     C_R   0.711819 0.436330 0.949426 0.521978
C11   C     C_R   0.742938 0.716556 0.945760 0.567288
C12   C     C_R   0.746711 0.352076 0.153649 -0.106827
C13   C     C_R   0.745644 0.369263 0.113253 -0.013158
C14   C     C_R   0.659151 0.301957 0.235486 -0.112295
C15   C     C_R   0.644400 0.283445 0.275343 -0.111360
C16   C     C_R   0.705782 0.363255 0.307728 0.032732
C17   C     C_R   0.783011 0.461721 0.300005 -0.094549
C18   C     C_R   0.797343 0.480587 0.259991 -0.108354
C19   C     C_R   0.735140 0.400725 0.227592 0.028773
C20   C     C_R   0.656238 0.390569 0.379443 0.009633
C21   C     C_R   0.595067 0.206923 0.457358 0.533774
C22   C     C_R   0.628730 0.353113 0.417120 -0.020214
C23   C     C_R   0.676707 0.218099 0.393229 -0.139532
C24   C     C_R   0.705161 0.256293 0.357169 -0.149582
C25   C     C_R   0.691581 0.339411 0.349287 -0.000922
C26   C     C_R   0.634986 0.262711 0.422775 0.022085
C27   C     C_R   0.245383 0.877510 0.393275 0.015477
C28   C     C_R   0.231202 0.957712 0.380932 -0.126105
C29   C     C_R   0.207337 0.955192 0.339880 -0.113986
C30   C     C_R   0.196813 0.872377 0.310735 0.034667
C31   C     C_R   0.204198 0.789107 0.322992 -0.112013
C32   C     C_R   0.295752 0.892648 0.434349 0.536814
C33   C     C_R   0.228051 0.791396 0.364020 -0.128688
C34   C     C_R   0.196789 0.809052 0.162916 -0.111415
C35   C     C_R   0.169005 0.788126 0.121083 -0.124227
C36   C     C_R   0.086882 0.898682 0.130295 -0.130625
C37   C     C_R   0.114219 0.918997 0.172251 -0.115753
C38   C     C_R   0.165846 0.871179 0.188727 0.036534
C39   C     C_1   0.177374 0.876222 0.232057 -0.028658
C40   C     C_1   0.185463 0.875638 0.268076 -0.028886
C41   C     C_R   0.109736 0.829112 0.104577 0.017650
C42   C     C_R   0.636511 0.878690 0.395240 0.006542
C43   C     C_R   0.613995 0.904748 0.551466 0.543642
C44   C     C_R   0.551047 0.800062 0.368407 -0.120272
C45   C     C_R   0.561538 0.787898 0.326491 0.012048
C46   C     C_R   0.658908 0.854145 0.311312 0.026786
C47   C     C_R   0.746401 0.926986 0.338210 -0.131641
C48   C     C_R   0.735454 0.939234 0.379920 -0.135134
C49   C     C_R   0.777861 0.922314 0.174465 -0.120873
C50   C     C_R   0.793174 0.908520 0.133099 -0.133564
C51   C     C_R   0.618450 0.752995 0.121477 -0.134527
C52   C     C_R   0.603251 0.767155 0.162742 -0.115757
C53   C     C_R   0.684447 0.849565 0.189424 0.035120
C54   C     C_R   0.589336 0.199124 0.570978 0.536090
C55   C     C_1   0.675817 0.853113 0.232381 -0.023711
C56   C     C_1   0.668541 0.853472 0.268348 -0.019042
C57   C     C_R   0.715421 0.821044 0.106580 0.015474
C58   C     C_R   0.620603 0.247601 0.614178 0.017289
C59   C     C_R   0.554086 0.277457 0.636648 -0.135129
C60   C     C_R   0.567406 0.298001 0.679122 -0.123664
C61   C     C_R   0.647452 0.289377 0.699500 0.039591
C62   C     C_R   0.718828 0.267249 0.677418 -0.110675
C63   C     C_R   0.705819 0.246803 0.634935 -0.131786
C64   C     C_R   0.768030 0.359251 0.844136 -0.001347
C65   C     C_R   0.288536 0.886809 0.548376 0.535735
C66   C     C_R   0.778485 0.387769 0.886280 -0.149199
C67   C     C_R   0.585417 0.315397 0.887343 -0.005009
C68   C     C_R   0.576341 0.288883 0.844648 -0.119649
C69   C     C_R   0.667194 0.314963 0.823065 0.013247
C70   C     C_1   0.657304 0.303038 0.779372 -0.018859
C71   C     C_1   0.652453 0.296936 0.742942 -0.022508
C72   C     C_R   0.689387 0.373455 0.908129 0.011551
C73   C     C_R   0.067401 0.753141 0.908220 0.019384
C74   C     C_R   0.102532 0.851638 0.896722 -0.143038
C75   C     C_R   0.120546 0.864620 0.856282 -0.128355
C76   C     C_R   0.740017 0.458158 0.105804 0.046705
C77   C     C_R   0.103523 0.779219 0.826859 0.027748
C78   C     C_R   0.076735 0.683035 0.839058 -0.113568
C79   C     C_R   0.059283 0.670175 0.879509 -0.118624
C80   C     C_R   0.152781 0.740562 0.757325 -0.117579
C81   C     C_R   0.156071 0.749526 0.716294 -0.121821
C82   C     C_R   0.114701 0.807161 0.700500 0.032265
C83   C     C_R   0.065754 0.853777 0.726085 0.016972
C84   C     C_R   0.061937 0.842918 0.767329 -0.097015
C85   C     C_R   0.107141 0.788458 0.783296 0.017805
C86   C     C_R   0.213433 0.929609 0.653529 -0.128793
C87   C     C_R   0.736165 0.527740 0.138021 -0.125475
C88   C     C_R   0.255417 0.947752 0.616201 -0.141921
C89   C     C_R   0.141765 0.763159 0.587912 -0.006356
C90   C     C_R   0.100347 0.746334 0.626070 -0.115233
C91   C     C_R   0.138310 0.828596 0.658959 0.007339
C92   C     C_R   0.224443 0.864801 0.583730 0.032114
C93   C     C_R   0.725327 0.702773 0.901119 0.016761
C94   C     C_R   0.626049 0.634471 0.879185 -0.124880
C95   C     C_R   0.613736 0.634322 0.837197 -0.116367
C96   C     C_R   0.700783 0.701734 0.817130 0.030914
C97   C     C_R   0.801120 0.762847 0.838652 -0.115110
C98   C     C_R   0.737856 0.510247 0.177710 -0.123622
C99   C     C_R   0.813126 0.763469 0.880028 -0.122033
C100  C     C_R   0.726634 0.823110 0.768601 -0.120232
C101  C     C_R   0.719987 0.844311 0.729625 -0.123403
C102  C     C_R   0.674821 0.762858 0.696375 0.026928
C103  C     C_R   0.633604 0.658859 0.703189 -0.114739
C104  C     C_R   0.639557 0.637408 0.742618 -0.111129
C105  C     C_R   0.687294 0.719809 0.775488 0.028946
C106  C     C_R   0.570001 0.730807 0.630735 -0.120872
C107  C     C_R   0.555292 0.766045 0.595680 -0.129706
C108  C     C_R   0.735175 0.912977 0.607963 -0.130949
Cr1   Cr    Cr6+3 0.424820 0.846020 0.489780 1.003551
Cr2   Cr    Cr6+3 0.657880 0.078580 0.505700 1.006402
Cr3   Cr    Cr6+3 0.417280 0.075360 0.504550 1.002210
Cr4   Cr    Cr6+3 0.903360 0.812540 0.006510 0.999541
Cr5   Cr    Cr6+3 0.914630 0.587050 0.006280 1.002615
Cr6   Cr    Cr6+3 0.673560 0.582680 0.008540 1.000031
H1    H     H_    0.732666 0.596577 0.132377 0.127649
H2    H     H_    0.749653 0.283651 0.160145 0.104155
H3    H     H_    0.683016 0.149648 0.397196 0.141078
H4    H     H_    0.187572 0.734233 0.102053 0.126822
H5    H     H_    0.237024 0.771896 0.175371 0.117492
H6    H     H_    0.195891 0.724450 0.300630 0.127317
H7    H     H_    0.238922 0.728706 0.372404 0.131304
H8    H     H_    0.244221 0.025246 0.402630 0.128455
H9    H     H_    0.089838 0.967174 0.192002 0.109079
H10   H     H_    0.040280 0.930509 0.118586 0.124704
H11   H     H_    0.201378 0.019831 0.330706 0.111788
H12   H     H_    0.868846 0.961854 0.122555 0.121481
H13   H     H_    0.841052 0.986428 0.195042 0.106931
H14   H     H_    0.821873 0.977781 0.326769 0.111982
H15   H     H_    0.802688 0.000260 0.399871 0.130544
H16   H     H_    0.474055 0.752713 0.379670 0.131066
H17   H     H_    0.530569 0.710727 0.174151 0.125946
H18   H     H_    0.557073 0.685077 0.101746 0.126278
H19   H     H_    0.858289 0.428233 0.901555 0.133889
H20   H     H_    0.733474 0.217498 0.334360 0.120406
H21   H     H_    0.781571 0.261244 0.693050 0.119873
H22   H     H_    0.758258 0.223910 0.618581 0.126867
H23   H     H_    0.487852 0.278933 0.621594 0.122743
H24   H     H_    0.498394 0.250394 0.827915 0.103343
H25   H     H_    0.512431 0.316076 0.696063 0.099923
H26   H     H_    0.110269 0.916979 0.918514 0.112294
H27   H     H_    0.031912 0.593304 0.887599 0.132356
H28   H     H_    0.041379 0.668458 0.630794 0.106600
H29   H     H_    0.584620 0.206878 0.281051 0.115824
H30   H     H_    0.195319 0.715076 0.697045 0.113622
H31   H     H_    0.188522 0.698491 0.768941 0.111309
H32   H     H_    0.144017 0.940370 0.847744 0.099189
H33   H     H_    0.023207 0.876927 0.787004 0.091979
H34   H     H_    0.245484 0.993132 0.678985 0.113896
H35   H     H_    0.318330 0.025913 0.613708 0.134292
H36   H     H_    0.063127 0.616078 0.816942 0.139877
H37   H     H_    0.557590 0.585216 0.894629 0.123124
H38   H     H_    0.609239 0.240128 0.210898 0.109010
H39   H     H_    0.890981 0.815046 0.895976 0.136120
H40   H     H_    0.825935 0.921453 0.660880 0.100639
H41   H     H_    0.748999 0.924750 0.725602 0.105793
H42   H     H_    0.762200 0.887832 0.793626 0.110525
H43   H     H_    0.535572 0.586129 0.820961 0.106192
H44   H     H_    0.597874 0.594552 0.678045 0.101424
H45   H     H_    0.609089 0.557208 0.747335 0.106647
H46   H     H_    0.503903 0.662199 0.639738 0.102335
H47   H     H_    0.478342 0.722560 0.578264 0.126446
H48   H     H_    0.869542 0.814126 0.823748 0.103384
H49   H     H_    0.732832 0.564137 0.202073 0.123374
H50   H     H_    0.799618 0.984396 0.600048 0.123794
H51   H     H_    0.832161 0.523218 0.324809 0.116253
H52   H     H_    0.856606 0.557289 0.254258 0.111582
O1    O     O_R   0.318160 0.824460 0.443680 -0.523706
O2    O     O_R   0.645130 0.163230 0.552140 -0.501456
O3    O     O_R   0.498360 0.178430 0.555780 -0.524906
O4    O     O_R   0.328690 0.978040 0.538950 -0.504174
O5    O     O_3   0.499990 0.999990 0.500010 -0.230414
O6    O     O_R   0.828710 0.851830 0.052170 -0.516026
O7    O     O_R   0.005980 0.823990 0.047210 -0.502228
O8    O     O_R   0.031900 0.688850 0.050170 -0.509444
O9    O     O_R   0.830940 0.518420 0.048680 -0.495434
O10   O     O_R   0.668160 0.499860 0.053480 -0.520219
O11   O     O_R   0.689170 0.693840 0.050110 -0.496433
O12   O     O_R   0.525040 0.857250 0.449830 -0.501135
O13   O     O_R   0.803860 0.812940 0.962540 -0.513208
O14   O     O_R   0.982950 0.787950 0.964120 -0.525947
O15   O     O_R   0.007050 0.649970 0.960540 -0.518327
O16   O     O_R   0.807910 0.482370 0.965590 -0.508587
O17   O     O_R   0.643310 0.460980 0.963840 -0.529027
O18   O     O_R   0.666140 0.657800 0.967020 -0.499231
O19   O     O_3   0.830520 0.660760 0.007110 -0.257405
O20   O     O_R   0.684760 0.998800 0.456360 -0.521327
O21   O     O_R   0.647540 0.166310 0.470260 -0.503511
O22   O     O_R   0.500960 0.181750 0.467450 -0.521198
O23   O     O_R   0.331100 0.981120 0.457080 -0.499376
O24   O     O_R   0.315560 0.821140 0.532010 -0.521448
O25   O     O_R   0.522630 0.854180 0.531710 -0.501593
O26   O     O_R   0.682160 0.995480 0.544690 -0.518894
C109  C     C_3   0.598250 0.412184 0.450963 -0.256735
C110  C     C_3   0.698314 0.508989 0.472778 -0.304912
C111  C     C_3   0.669256 0.570716 0.506166 -0.445650
H53   H     H_    0.618211 0.598358 0.492915 0.161325
H54   H     H_    0.625956 0.521225 0.529340 0.152478
H55   H     H_    0.743350 0.639849 0.521400 0.145634
H56   H     H_    0.750742 0.483870 0.486766 0.158902
H57   H     H_    0.743842 0.561214 0.450681 0.175506
H58   H     H_    0.542825 0.435488 0.438149 0.154095
H59   H     H_    0.554506 0.363177 0.474004 0.167442
C112  C     C_3   0.747551 0.291524 0.078961 -0.261799
C113  C     C_3   0.637176 0.224298 0.055504 -0.300061
C114  C     C_3   0.639982 0.149193 0.019745 -0.453250
H60   H     H_    0.696117 0.193658 0.997840 0.153170
H61   H     H_    0.665529 0.096323 0.030717 0.162650
H62   H     H_    0.558917 0.100953 0.003698 0.143038
H63   H     H_    0.578253 0.178299 0.076381 0.166243
H64   H     H_    0.609679 0.274616 0.043506 0.169016
H65   H     H_    0.808591 0.333854 0.058062 0.157393
H66   H     H_    0.771634 0.238987 0.091277 0.136934
C115  C     C_1   0.469897 0.711226 0.299521 0.194244
N1    N     N_1   0.396453 0.649882 0.277914 -0.316236
C116  C     C_1   0.862686 0.381042 0.822889 0.180739
N2    N     N_1   0.938305 0.398117 0.805821 -0.338952
C117  C     C_3   0.483392 0.280042 0.909061 -0.242130
C118  C     C_3   0.474904 0.206045 0.938762 -0.288917
C119  C     C_3   0.370111 0.166508 0.959235 -0.451788
H67   H     H_    0.364607 0.233253 0.976661 0.156590
H68   H     H_    0.300906 0.122044 0.936071 0.146461
H69   H     H_    0.366782 0.113833 0.980635 0.143035
H70   H     H_    0.478999 0.137777 0.921964 0.163012
H71   H     H_    0.542210 0.246837 0.962794 0.170618
H72   H     H_    0.478128 0.348227 0.924935 0.172890
H73   H     H_    0.412368 0.237416 0.886569 0.123146
C120  C     C_3   0.014469 0.912260 0.710446 -0.260965
C121  C     C_3   0.074510 0.028944 0.728728 -0.302600
C122  C     C_3   0.025144 0.088375 0.711795 -0.453861
H74   H     H_    0.026408 0.080444 0.678116 0.147795
H75   H     H_    0.941452 0.058056 0.720096 0.146876
H76   H     H_    0.071707 0.172649 0.724918 0.149902
H77   H     H_    0.072077 0.038712 0.762380 0.155357
H78   H     H_    0.159559 0.064154 0.721754 0.158148
H79   H     H_    0.010903 0.903854 0.676695 0.152927
H80   H     H_    0.930480 0.876913 0.718809 0.150935
C123  C     C_3   0.097269 0.671830 0.553087 -0.251844
C124  C     C_3   0.037788 0.689185 0.519087 -0.289438
C125  C     C_3   0.997731 0.599385 0.483333 -0.449704
H81   H     H_    0.066269 0.594783 0.469695 0.161848
H82   H     H_    0.943465 0.523923 0.493573 0.145566
H83   H     H_    0.953152 0.612863 0.459633 0.142089
H84   H     H_    0.968312 0.694867 0.531268 0.158323
H85   H     H_    0.091137 0.763160 0.507681 0.169106
H86   H     H_    0.162162 0.658149 0.541019 0.171266
H87   H     H_    0.040087 0.598434 0.564166 0.125840
C126  C     C_1   0.643321 0.477535 0.370904 0.175504
N3    N     N_1   0.633034 0.547004 0.364091 -0.305925

loop_
_geom_bond_atom_site_label_1
_geom_bond_atom_site_label_2
_ccdc_geom_bond_type
C65   C92   S    
C96   C105  S    
C101  C102  A    
C111  H54   S    
C29   H11   S    
C88   H35   S    
C64   C116  S    
C68   H24   S    
C95   C96   A    
C55   C56   T    
C2    C12   A    
C98   H49   S    
C18   H52   S    
C118  C119  S    
C47   H14   S    
C83   C120  S    
C114  H60   S    
C27   C33   A    
C120  H80   S    
C108  H50   S    
C28   C29   A    
C100  C105  A    
C62   C63   A    
Cr6   O19   S    
C42   C44   A    
C83   C84   A    
C106  C107  A    
C36   C37   A    
C36   H10   S    
C37   C38   A    
C67   C72   A    
C122  H76   S    
C86   C91   A    
C54   C58   S    
C38   C39   S    
C86   C88   A    
C114  H62   S    
C117  H72   S    
C20   C25   A    
C59   H23   S    
C44   H16   S    
C15   C16   A    
C124  H85   S    
Cr3   O23   S    
C16   C25   S    
C109  H58   S    
C34   C35   A    
C73   C74   A    
C23   C26   A    
C49   C50   A    
C121  C122  S    
Cr1   O1    S    
C37   H9    S    
Cr2   O2    S    
C8    O11   A    
C20   C126  S    
Cr5   O15   S    
C125  H81   S    
C16   C17   A    
C6    C41   S    
C4    C102  S    
C113  H63   S    
C123  H87   S    
C45   C115  S    
C23   C24   A    
C31   C33   A    
C22   C109  S    
C70   C71   T    
C51   C57   A    
C29   C30   A    
C103  C104  A    
C93   C99   A    
C87   H1    S    
C61   C62   A    
C109  C110  S    
C117  H73   S    
Cr5   O9    S    
C111  H55   S    
Cr2   O5    S    
C11   C93   S    
Cr6   O10   S    
Cr4   O7    S    
C5    C43   S    
C43   O25   A    
C59   C60   A    
C95   H43   S    
C123  C124  S    
C96   C97   A    
C33   H7    S    
C10   O17   A    
C50   C57   A    
C54   O3    A    
C112  H65   S    
C36   C41   A    
C69   C70   S    
C9    C73   S    
C106  H46   S    
C35   C41   A    
Cr1   O12   S    
C104  C105  A    
C97   C99   A    
C21   C26   S    
C21   O21   A    
C81   H30   S    
C75   H32   S    
C73   C79   A    
C49   H13   S    
C66   C72   A    
Cr2   O21   S    
C65   O24   A    
C74   C75   A    
C123  H86   S    
C67   C68   A    
C47   C48   A    
C88   C92   A    
C118  H70   S    
C24   C25   A    
Cr4   O19   S    
C78   C79   A    
C18   C19   A    
C6    O8    A    
C117  C118  S    
C77   C78   A    
C84   H33   S    
C4    C106  A    
C124  H84   S    
C3    H40   S    
C81   C82   A    
C109  H59   S    
C13   C112  S    
C7    O9    A    
C60   C61   A    
Cr3   O3    S    
C64   C66   A    
C62   H21   S    
C116  N2    T    
C80   C85   A    
C89   C123  S    
C8    C57   S    
C119  H68   S    
C66   H19   S    
C1    O12   A    
C120  C121  S    
C13   C76   A    
C67   C117  S    
Cr1   O24   S    
C51   H18   S    
Cr6   O11   S    
Cr5   O19   S    
C7    O10   A    
C17   C18   A    
Cr3   O22   S    
C30   C40   S    
C94   C95   A    
C125  H82   S    
C93   C94   A    
C42   C48   A    
C64   C69   A    
C84   C85   A    
C89   C92   A    
C75   C77   A    
C76   C87   A    
C121  H77   S    
C115  N1    T    
C9    O14   A    
Cr4   O13   S    
C15   H29   S    
C50   H12   S    
C80   H31   S    
C20   C22   A    
C43   O26   A    
C82   C83   A    
C10   O16   A    
C110  H57   S    
C112  H66   S    
C94   H37   S    
C11   O13   A    
C100  H42   S    
C53   C55   S    
C113  H64   S    
C3    C4    A    
Cr6   O18   S    
Cr5   O16   S    
C107  H47   S    
C119  H67   S    
C1    O20   A    
C44   C45   A    
C78   H36   S    
C21   O22   A    
C79   H27   S    
C5    C107  A    
C28   H8    S    
C24   H20   S    
C58   C63   A    
C124  C125  S    
Cr2   O20   S    
C27   C32   S    
C34   C38   A    
C52   H17   S    
C121  H78   S    
C14   C19   A    
C68   C69   A    
C11   O18   A    
C54   O2    A    
C80   C81   A    
C86   H34   S    
C23   H3    S    
C45   C46   A    
C126  N3    T    
C103  H44   S    
C118  H71   S    
C7    C76   S    
C6    O7    A    
C3    C108  A    
C90   H28   S    
C120  H79   S    
C46   C56   S    
C122  H74   S    
Cr4   O14   S    
C65   O4    A    
Cr3   O4    S    
C63   H22   S    
C87   C98   A    
C58   C59   A    
C34   H5    S    
C51   C52   A    
C122  H75   S    
C17   H51   S    
C119  H69   S    
Cr1   O5    S    
C30   C31   A    
C61   C71   S    
C90   C91   A    
Cr4   O6    S    
C74   H26   S    
Cr1   O25   S    
C49   C53   A    
C99   H39   S    
Cr2   O26   S    
C100  C101  A    
C32   O23   A    
C110  C111  S    
C125  H83   S    
Cr3   O5    S    
C102  C103  A    
C48   H15   S    
C31   H6    S    
C46   C47   A    
C9    O15   A    
C82   C91   S    
C60   H25   S    
C77   C85   S    
C111  H53   S    
C39   C40   T    
C110  H56   S    
C8    O6    A    
C1    C42   S    
C113  C114  S    
C2    C98   A    
C97   H48   S    
C22   C26   A    
C32   O1    A    
C14   H38   S    
C27   C28   A    
C101  H41   S    
C14   C15   A    
C35   H4    S    
C104  H45   S    
C112  C113  S    
C12   C13   A    
C89   C90   A    
C114  H61   S    
Cr6   O17   S    
C2    C19   S    
C52   C53   A    
Cr5   O8    S    
C12   H2    S    
C5    C108  A    
C10   C72   S    
