data_mof_unit_19601.cif
_audit_creation_date              2012-12-10T17:18:55-0500
_audit_creation_method            fapswitch 2.2
_symmetry_space_group_name_H-M    P1
_symmetry_Int_Tables_number       1
_space_group_crystal_system       triclinic
_cell_length_a                    9.61626
_cell_length_b                    10.847388
_cell_length_c                    13.434581
_cell_angle_alpha                 93.904646
_cell_angle_beta                  72.108794
_cell_angle_gamma                 89.464601
_cell_volume                      1329.83841905

loop_
_atom_site_label
_atom_site_type_symbol
_atom_type_description
_atom_site_fract_x
_atom_site_fract_y
_atom_site_fract_z
_atom_type_partial_charge
C1    C     C_R   0.501272 0.737147 0.493750 0.814986
C2    C     C_R   0.431995 0.490025 0.979332 0.040803
C3    C     C_R   0.467005 0.457200 0.870428 0.009229
C4    C     C_R   0.540766 0.474177 0.029768 -0.031494
C5    C     C_R   0.671635 0.404360 0.974469 0.021601
C6    C     C_R   0.694394 0.356714 0.870666 0.361948
C7    C     C_R   0.593179 0.383084 0.820098 -0.212525
C8    C     C_R   0.527048 0.527570 0.132045 0.318129
C9    C     C_R   0.752432 0.424462 0.128145 -0.148986
C10   C     C_R   0.372162 0.496278 0.815292 -0.140334
C11   C     C_R   0.256582 0.884461 0.455469 -0.107768
C12   C     C_R   0.421081 0.496658 0.699991 0.793206
C13   C     C_R   0.122242 0.946953 0.476318 -0.145626
C14   C     C_R   0.100053 0.063665 0.528748 -0.100550
C15   C     C_R   0.216435 0.122621 0.550797 -0.127924
C16   C     C_R   0.358209 0.065478 0.519449 0.071545
C17   C     C_R   0.371635 0.938518 0.487127 0.098441
C18   C     C_R   0.498944 0.871614 0.488672 -0.100217
C19   C     C_R   0.619758 0.935646 0.499928 -0.175930
C20   C     C_R   0.615835 0.063225 0.510310 -0.127187
C21   C     C_R   0.487289 0.129731 0.517960 -0.115651
C22   C     C_R   0.942035 0.366161 0.326692 0.375829
C23   C     C_R   0.495474 0.263501 0.508956 0.835504
C24   C     C_R   0.062054 0.333929 0.238457 -0.190112
C25   C     C_R   0.198360 0.321934 0.249551 -0.258256
C26   C     C_R   0.217226 0.356971 0.344764 -0.103305
C27   C     C_R   0.110269 0.429910 0.422514 0.172036
C28   C     C_R   0.962170 0.431351 0.419035 0.129235
C29   C     C_R   0.893217 0.565264 0.575091 -0.028319
C30   C     C_R   0.041094 0.566100 0.574480 -0.033427
C31   C     C_R   0.578661 0.501515 0.299844 0.884781
C32   C     C_R   0.777934 0.384323 0.023893 -0.088762
C33   C     C_R   0.623496 0.489191 0.184569 -0.099066
C34   C     C_R   0.233478 0.547522 0.871595 -0.207495
C35   C     C_R   0.189948 0.561490 0.980509 0.407515
C36   C     C_R   0.287110 0.531227 0.034067 -0.149442
Cu1   Cu    Cu3+1 0.359340 0.500010 0.500010 0.963049
Cu2   Cu    Cu3+1 0.640660 0.499990 0.499990 0.999004
H1    H     H_    0.834169 0.404376 0.164349 0.200538
H2    H     H_    0.269291 0.795846 0.411503 0.208222
H3    H     H_    0.034274 0.903450 0.453976 0.153511
H4    H     H_    0.192166 0.211358 0.594989 0.192011
H5    H     H_    0.811474 0.619284 0.636553 0.147270
H6    H     H_    0.287161 0.276940 0.186690 0.180101
H7    H     H_    0.069383 0.620818 0.635417 0.142022
H8    H     H_    0.879932 0.334515 0.983708 0.204623
H9    H     H_    0.245658 0.536803 0.118481 0.210772
H10   H     H_    0.612684 0.340623 0.741687 0.190004
H11   H     H_    0.718835 0.887204 0.499846 0.165044
N1    N     N_R   0.852480 0.498790 0.499000 -0.193573
N2    N     N_R   0.148360 0.498710 0.498970 -0.198063
O1    O     O_R   0.381190 0.680360 0.500010 -0.590683
O2    O     O_R   0.618760 0.680340 0.500000 -0.581229
O3    O     O_R   0.323240 0.499990 0.650990 -0.581837
O4    O     O_R   0.560820 0.499960 0.650980 -0.587460
O5    O     O_R   0.381240 0.319660 0.500000 -0.627924
O6    O     O_R   0.618810 0.319640 0.499990 -0.526005
O7    O     O_R   0.439180 0.500040 0.349020 -0.579050
O8    O     O_R   0.676760 0.500010 0.349010 -0.547654
H12   H     H_    0.993520 0.109837 0.550258 0.170027
H13   H     H_    0.714148 0.109748 0.512554 0.187998
Cl1   Cl    Cl    0.807699 0.260489 0.320522 -0.647934
H14   H     H_    0.047580 0.292906 0.166512 0.188912
H15   H     H_    0.318554 0.326881 0.352762 0.207776
Cl2   Cl    Cl    0.850478 0.265366 0.798575 -0.668857
Cl3   Cl    Cl    0.420009 0.664305 0.186453 -0.612731
H16   H     H_    0.159306 0.578117 0.831071 0.187908
Cl4   Cl    Cl    0.016298 0.625392 0.050185 -0.598207

loop_
_geom_bond_atom_site_label_1
_geom_bond_atom_site_label_2
_ccdc_geom_bond_type
C34   H16   S    
C2    C4    A    
C30   N2    A    
C31   C33   S    
C24   C25   A    
C8    Cl3   S    
C16   C21   A    
Cu2   N1    S    
C22   Cl1   S    
Cu2   O6    S    
C14   H12   S    
C19   H11   S    
C30   H7    S    
C19   C20   A    
C4    C8    A    
C5    C32   A    
C32   H8    S    
C7    H10   S    
C13   H3    S    
C2    C3    A    
C1    C18   S    
C23   O5    A    
C10   C34   A    
C3    C10   A    
C22   C28   A    
C13   C14   A    
C29   H5    S    
C9    C33   A    
C11   C13   A    
C26   C27   A    
C29   C30   A    
Cu2   O2    S    
C10   C12   S    
C35   Cl4   S    
C5    C6    A    
Cu1   O3    S    
C31   O7    A    
Cu1   Cu2   S    
C27   N2    A    
C17   C18   A    
C6    C7    A    
C3    C7    A    
C29   N1    A    
C21   C23   S    
C11   H2    S    
Cu1   N2    S    
C1    O1    A    
C22   C24   A    
C24   H14   S    
C12   O4    A    
C16   C17   A    
C15   C16   A    
C12   O3    A    
C31   O8    A    
Cu2   O8    S    
C9    H1    S    
C18   C19   A    
C20   C21   A    
C25   H6    S    
C36   H9    S    
C34   C35   A    
C2    C36   A    
C20   H13   S    
C23   O6    A    
Cu1   O1    S    
C26   H15   S    
C14   C15   A    
C4    C5    A    
C1    O2    A    
C9    C32   A    
C25   C26   A    
Cu1   O5    S    
C28   N1    A    
C6    Cl2   S    
C11   C17   A    
Cu2   O4    S    
Cu1   O7    S    
C15   H4    S    
C8    C33   A    
C27   C28   A    
C35   C36   A    
