data_mof_unit_46685.cif
_audit_creation_date              2012-12-10T17:10:28-0500
_audit_creation_method            fapswitch 2.2
_symmetry_space_group_name_H-M    P1
_symmetry_Int_Tables_number       1
_space_group_crystal_system       triclinic
_cell_length_a                    10.878283
_cell_length_b                    13.136868
_cell_length_c                    11.61297
_cell_angle_alpha                 98.819586
_cell_angle_beta                  93.8547
_cell_angle_gamma                 90.902871
_cell_volume                      1635.66512114

loop_
_atom_site_label
_atom_site_type_symbol
_atom_type_description
_atom_site_fract_x
_atom_site_fract_y
_atom_site_fract_z
_atom_type_partial_charge
C1    C     C_R   0.504826 0.299695 0.480033 0.843456
C2    C     C_R   0.499661 0.700529 0.519903 0.819214
C3    C     C_R   0.502553 0.813014 0.528920 -0.124270
C4    C     C_R   0.511194 0.187333 0.470482 -0.135084
C5    C     C_R   0.474369 0.023175 0.346660 -0.177431
C6    C     C_R   0.548596 0.976587 0.651172 -0.171227
C7    C     C_R   0.485264 0.129063 0.359986 -0.238337
C8    C     C_R   0.537540 0.870699 0.637892 -0.208102
C9    C     C_R   0.534140 0.137175 0.569404 -0.052346
C10   C     C_R   0.477583 0.863336 0.430449 -0.050808
C11   C     C_R   0.525547 0.028762 0.555286 0.083183
C12   C     C_R   0.492676 0.971303 0.443323 0.083934
C13   C     C_R   0.378412 0.406987 0.023455 -0.307799
C14   C     C_R   0.622519 0.592435 0.976577 -0.342371
C15   C     C_R   0.390575 0.415273 0.145627 0.089981
C16   C     C_R   0.610060 0.584213 0.854330 0.068853
C17   C     C_R   0.553370 0.539314 0.156336 0.035169
C18   C     C_R   0.446746 0.460921 0.843985 0.070312
C19   C     C_R   0.544854 0.533326 0.033650 0.033868
C20   C     C_R   0.455851 0.466436 0.966560 0.066691
C21   C     C_R   0.261595 0.498010 0.499613 0.856507
C22   C     C_R   0.736738 0.487002 0.498188 0.833875
C23   C     C_R   0.138675 0.367514 0.646465 0.273237
C24   C     C_R   0.870227 0.458109 0.273147 0.306843
C25   C     C_R   0.090720 0.343423 0.748110 -0.205904
C26   C     C_R   0.918227 0.507581 0.186428 -0.244694
C27   C     C_R   0.971214 0.369542 0.772645 -0.170670
C28   C     C_R   0.026567 0.566859 0.210818 -0.164737
C29   C     C_R   0.895895 0.411631 0.691232 -0.131717
C30   C     C_R   0.094772 0.567225 0.316825 -0.126376
C31   C     C_R   0.943772 0.440204 0.589649 0.021575
C32   C     C_R   0.051381 0.511945 0.402011 -0.002986
C33   C     C_R   0.071999 0.432601 0.579064 0.059490
C34   C     C_R   0.928033 0.477290 0.388896 0.054408
C35   C     C_R   0.869648 0.466262 0.492745 -0.200604
C36   C     C_R   0.126907 0.484540 0.496090 -0.194932
Cu1   Cu    Cu3+1 0.509250 0.507730 0.615930 0.959891
Cu2   Cu    Cu3+1 0.490750 0.492270 0.384070 0.973696
H1    H     H_    0.061846 0.607106 0.144808 0.166806
H2    H     H_    0.932975 0.347811 0.849385 0.148035
H3    H     H_    0.309148 0.354695 0.974100 0.143047
H4    H     H_    0.692121 0.644463 0.025874 0.159416
H5    H     H_    0.142082 0.297005 0.803003 0.135833
H6    H     H_    0.873010 0.498511 0.099341 0.132885
H7    H     H_    0.800724 0.415807 0.709200 0.199525
H8    H     H_    0.180870 0.610699 0.330641 0.205326
H9    H     H_    0.558160 0.833810 0.713987 0.168977
H10   H     H_    0.467997 0.165573 0.283106 0.173361
H11   H     H_    0.449899 0.983027 0.259519 0.171732
H12   H     H_    0.576700 0.016577 0.737648 0.165237
H13   H     H_    0.378787 0.410041 0.791563 0.131355
H14   H     H_    0.621156 0.590604 0.209268 0.151665
H15   H     H_    0.670227 0.629806 0.810647 0.132761
H16   H     H_    0.330610 0.369449 0.189257 0.127732
N1    N     N_R   0.523180 0.519350 0.790130 -0.191720
N2    N     N_R   0.476820 0.480650 0.209870 -0.180878
O1    O     O_R   0.506570 0.354460 0.582000 -0.571185
O2    O     O_R   0.493430 0.645540 0.418000 -0.570662
O3    O     O_R   0.490940 0.341410 0.386200 -0.589317
O4    O     O_R   0.509060 0.658590 0.613800 -0.592429
O5    O     O_R   0.327470 0.506520 0.597900 -0.572585
O6    O     O_R   0.672530 0.493480 0.402100 -0.558895
O7    O     O_R   0.311840 0.493460 0.402100 -0.596471
O8    O     O_R   0.688160 0.506540 0.597900 -0.610697
N3    N     N_2   0.235130 0.306520 0.597928 -0.428576
H17   H     H_    0.288220 0.273324 0.658288 0.271242
C37   C     C_3   0.192246 0.231102 0.498109 -0.684352
H18   H     H_    0.161134 0.269837 0.423137 0.228573
H19   H     H_    0.115204 0.182967 0.520914 0.236318
H20   H     H_    0.267279 0.179055 0.470808 0.231521
N4    N     N_2   0.774098 0.381692 0.239638 -0.402771
H21   H     H_    0.733342 0.380413 0.156577 0.243378
C38   C     C_3   0.800826 0.279499 0.265079 -0.657069
H22   H     H_    0.719808 0.227189 0.235793 0.229791
H23   H     H_    0.819617 0.280332 0.360290 0.229988
H24   H     H_    0.881464 0.248917 0.218255 0.215748
C39   C     C_2   0.431824 0.805037 0.315386 0.843816
O9    O     O_2   0.327242 0.767755 0.302273 -0.617821
O10   O     O_R   0.508283 0.793825 0.222467 -0.779994
H25   H     H_    0.466077 0.754151 0.148198 0.330103
C40   C     C_2   0.565742 0.196353 0.687430 0.838981
O11   O     O_2   0.490894 0.201330 0.761968 -0.637368
O12   O     O_R   0.681650 0.244501 0.713343 -0.771192
H26   H     H_    0.692539 0.281288 0.796913 0.317037

loop_
_geom_bond_atom_site_label_1
_geom_bond_atom_site_label_2
_ccdc_geom_bond_type
C27   C29   A    
C38   H22   S    
C19   C20   A    
C25   H5    S    
C13   H3    S    
C40   O11   D    
C26   H6    S    
C21   C36   S    
C39   O9    D    
C22   C35   S    
C32   C36   A    
C24   C26   A    
C1    O3    A    
C2    O4    A    
C33   C36   A    
C34   C35   A    
C16   H15   S    
Cu2   O2    S    
N3    C37   S    
C31   C33   A    
C21   O5    A    
C14   H4    S    
C38   H23   S    
C5    H11   S    
C4    C7    A    
C17   H14   S    
C40   O12   S    
C10   C39   S    
C18   H13   S    
C39   O10   S    
C21   O7    A    
C37   H18   S    
C15   H16   S    
C5    C12   A    
C3    C8    A    
C6    C11   A    
C5    C7    A    
C6    C8    A    
C28   H1    S    
C23   C33   A    
C24   C34   A    
Cu2   O3    S    
C29   H7    S    
C37   H19   S    
C32   C34   A    
Cu1   Cu2   S    
C1    O1    A    
C22   O6    A    
O12   H26   S    
C27   H2    S    
C6    H12   S    
C9    C11   A    
C17   N2    A    
C10   C12   A    
C18   N1    A    
C13   C15   A    
C38   H24   S    
C14   C16   A    
Cu1   O8    S    
N4    C38   S    
Cu2   O7    S    
C13   C20   A    
C14   C19   A    
C30   H8    S    
Cu1   O5    S    
C11   C12   A    
C2    O2    A    
C25   C27   A    
C26   C28   A    
C1    C4    S    
C15   N2    A    
C23   N3    S    
C28   C30   A    
C2    C3    S    
C8    H9    S    
N4    H21   S    
C29   C31   A    
C3    C10   A    
C7    H10   S    
C30   C32   A    
C31   C35   A    
C17   C19   A    
C18   C20   A    
C23   C25   A    
C16   N1    A    
Cu1   O4    S    
C22   O8    A    
O10   H25   S    
Cu1   N1    S    
Cu2   N2    S    
N3    H17   S    
C37   H20   S    
C4    C9    A    
Cu1   O1    S    
C24   N4    S    
C9    C40   S    
Cu2   O6    S    
