data_mof_unit_14801.cif
_audit_creation_date              2013-03-05T15:42:34-0500
_audit_creation_method            fapswitch 2.2
_symmetry_space_group_name_H-M    P1
_symmetry_Int_Tables_number       1
_space_group_crystal_system       triclinic
_cell_length_a                    10.842678
_cell_length_b                    10.931955
_cell_length_c                    9.712709
_cell_angle_alpha                 90.495398
_cell_angle_beta                  90.404237
_cell_angle_gamma                 91.93117
_cell_volume                      1150.53562003

loop_
_atom_site_label
_atom_site_type_symbol
_atom_site_description
_atom_site_fract_x
_atom_site_fract_y
_atom_site_fract_z
_atom_type_partial_charge
O1    O     O_R   0.500020 0.321960 0.617040 -0.532693
O2    O     O_R   0.499980 0.321920 0.382900 -0.515280
C1    C     C_R   0.500235 0.265085 0.498843 0.916680
O3    O     O_R   0.319670 0.500020 0.617100 -0.564911
O4    O     O_R   0.319630 0.499980 0.382950 -0.567764
C2    C     C_R   0.262968 0.502117 0.500001 0.786615
Cu1   Cu    Cu3+1 0.500020 0.500020 0.638630 1.047792
Cu2   Cu    Cu3+1 0.499980 0.499980 0.361370 1.055476
O5    O     O_R   0.500020 0.678080 0.617100 -0.568695
O6    O     O_R   0.499980 0.678040 0.382960 -0.581508
O7    O     O_R   0.680370 0.500020 0.617050 -0.569521
O8    O     O_R   0.680330 0.499980 0.382900 -0.541902
C3    C     C_R   0.491105 0.733744 0.500456 0.929495
C4    C     C_R   0.737779 0.507059 0.500481 0.923618
H1    H     H_    0.108305 0.351202 0.372557 0.190081
C5    C     C_R   0.142128 0.689669 0.657422 -0.179318
H2    H     H_    0.241531 0.692738 0.657393 0.157646
C6    C     C_R   0.085493 0.777981 0.736744 0.233088
C7    C     C_R   0.958982 0.790935 0.722516 -0.212739
H3    H     H_    0.916857 0.867843 0.772522 0.193426
C8    C     C_R   0.888304 0.713707 0.634238 0.331193
C9    C     C_R   0.942029 0.609567 0.571802 -0.058431
C10   C     C_R   0.072227 0.602408 0.578269 0.012472
C11   C     C_R   0.130203 0.510888 0.501190 -0.087266
C12   C     C_R   0.061660 0.423412 0.426443 -0.240114
C13   C     C_R   0.933960 0.421750 0.427952 0.307163
C14   C     C_R   0.872722 0.514374 0.500240 -0.192357
C15   C     C_2   0.493977 0.929380 0.386781 -0.152365
C16   C     C_2   0.478695 0.865071 0.502307 -0.282264
H4    H     H_    0.510700 0.882732 0.289738 0.202150
H5    H     H_    0.456892 0.907230 0.600080 0.168576
C17   C     C_2   0.489679 0.062957 0.381581 0.353047
C18   C     C_2   0.504979 0.132389 0.496930 -0.339291
H6    H     H_    0.522790 0.091538 0.595931 0.174400
C19   C     C_2   0.436882 0.421227 0.922425 0.353279
N1    N     N_2   0.498640 0.498660 0.846910 -0.350441
H7    H     H_    0.531665 0.577560 0.894973 0.167458
C20   C     C_2   0.416856 0.442525 0.074706 0.264804
N2    N     N_2   0.498610 0.498630 0.153040 -0.294083
H8    H     H_    0.580965 0.523813 0.107499 0.182569
N3    N     N_R   0.379139 0.314659 0.860156 0.153280
O9    O     O_R   0.421634 0.207659 0.887486 -0.298602
O10   O     O_R   0.270728 0.321294 0.803222 -0.355347
N4    N     N_2   0.303748 0.399085 0.132250 -0.354318
H9    H     H_    0.283678 0.308249 0.109842 0.308174
C21   C     C_3   0.201186 0.475623 0.099660 -0.624253
H10   H     H_    0.217579 0.568901 0.143791 0.226966
H11   H     H_    0.114959 0.435689 0.143595 0.251213
H12   H     H_    0.188073 0.482456 0.986455 0.234980
N5    N     N_2   0.157612 0.862265 0.819339 -0.405696
H13   H     H_    0.111250 0.937582 0.853264 0.284537
C22   C     C_3   0.229945 0.807982 0.927287 -0.599564
H14   H     H_    0.284175 0.880910 0.983249 0.271975
H15   H     H_    0.295859 0.742568 0.883960 0.216973
H16   H     H_    0.168130 0.759933 0.001522 0.215133
N6    N     N_R   0.772019 0.757081 0.589723 0.099888
O11   O     O_R   0.753891 0.770845 0.458259 -0.375740
O12   O     O_R   0.706834 0.819734 0.675558 -0.365879
N7    N     N_R   0.867744 0.322173 0.359665 0.139746
O13   O     O_R   0.783646 0.258705 0.425283 -0.342389
O14   O     O_R   0.905451 0.281969 0.241187 -0.319873
N8    N     N_R   0.474692 0.115510 0.247822 0.138998
O15   O     O_R   0.377811 0.083934 0.174408 -0.363566
O16   O     O_R   0.570224 0.164963 0.186731 -0.256722

loop_
_geom_bond_atom_site_label_1
_geom_bond_atom_site_label_2
_geom_bond_distance
_ccdc_geom_bond_type
O4    Cu2   1.968149 S    
N5    C22   1.448123 S    
C10   C11   1.411633 A    
C20   N4    1.420194 S    
N8    O15   1.300675 A    
Cu2   N2    2.023322 S    
C4    C14   1.462654 S    
C8    N6    1.427461 S    
Cu1   N1    2.023303 S    
C19   N1    1.297056 D    
C22   H16   1.111143 S    
C15   C17   1.463867 S    
Cu2   O8    1.965159 S    
C2    C11   1.446058 S    
C17   C18   1.353895 D    
C15   H4    1.087043 S    
O2    C1    1.290873 A    
C17   N8    1.435445 S    
N7    O13   1.300866 A    
C16   H5    1.083077 S    
C5    C6    1.391567 A    
O1    Cu1   1.956003 S    
C8    C9    1.428595 A    
C11   C12   1.387933 A    
Cu1   O7    1.968147 S    
N3    O10   1.300015 A    
C21   H12   1.111168 S    
C13   C14   1.413758 A    
C20   N2    1.298680 D    
O3    Cu1   1.965159 S    
C3    C16   1.446433 S    
N1    H7    1.029547 S    
C7    C8    1.403507 A    
O8    C4    1.297463 A    
N5    H13   1.031854 S    
C5    C10   1.416271 A    
C9    C14   1.434638 A    
N6    O12   1.301830 A    
O4    C2    1.296476 A    
C19   N3    1.431185 S    
O7    C4    1.297495 A    
C21   H11   1.108201 S    
N7    O14   1.301739 A    
H1    C12   1.084606 S    
N6    O11   1.301328 A    
C1    C18   1.453232 S    
Cu1   Cu2   2.692939 S    
C19   C20   1.513597 S    
C18   H6    1.082572 S    
C22   H14   1.110484 S    
C6    N5    1.426120 S    
O3    C2    1.289808 A    
C6    C7    1.389784 A    
N3    O9    1.300379 A    
N2    H8    1.029519 S    
Cu1   O5    1.959541 S    
O5    C3    1.295188 A    
C21   H10   1.110975 S    
C15   C16   1.337589 D    
C13   N7    1.438224 S    
N8    O16   1.301444 A    
N4    C21   1.448888 S    
C12   C13   1.384298 A    
C9    C10   1.417476 A    
Cu2   O6    1.956002 S    
O2    Cu2   1.959542 S    
N4    H9    1.030453 S    
C7    H3    1.083205 S    
C22   H15   1.110276 S    
C5    H2    1.077178 S    
O1    C1    1.300886 A    
O6    C3    1.294570 A    
