data_mof_unit_63838.cif
_audit_creation_date              2012-12-10T16:50:22-0500
_audit_creation_method            fapswitch 2.2
_symmetry_space_group_name_H-M    P1
_symmetry_Int_Tables_number       1
_space_group_crystal_system       triclinic
_cell_length_a                    26.24048
_cell_length_b                    26.241418
_cell_length_c                    22.28869
_cell_angle_alpha                 89.988692
_cell_angle_beta                  53.98149
_cell_angle_gamma                 90.00529
_cell_volume                      12413.6434965

loop_
_atom_site_label
_atom_site_type_symbol
_atom_type_description
_atom_site_fract_x
_atom_site_fract_y
_atom_site_fract_z
_atom_type_partial_charge
C1    C     C_R   0.650561 0.750033 0.699003 0.812182
C2    C     C_R   0.650565 0.249947 0.698997 0.806647
C3    C     C_R   0.150559 0.250036 0.699003 0.810409
C4    C     C_R   0.150564 0.749945 0.698997 0.805559
C5    C     C_2   0.944243 0.752060 0.499399 -0.298057
C6    C     C_2   0.944230 0.247975 0.499430 -0.297411
C7    C     C_2   0.444242 0.252060 0.499399 -0.298077
C8    C     C_2   0.442411 0.750419 0.503067 -0.297196
C9    C     C_3   0.033039 0.748495 0.043429 -0.589694
C10   C     C_3   0.029124 0.270560 0.043411 -0.588664
C11   C     C_3   0.532616 0.242895 0.043435 -0.589341
C12   C     C_3   0.526426 0.776165 0.043407 -0.588915
C13   C     C_3   0.950587 0.799917 0.044312 0.336584
C14   C     C_3   0.969997 0.193508 0.044476 0.338607
C15   C     C_3   0.455918 0.302518 0.044319 0.336790
C16   C     C_3   0.476432 0.692942 0.044503 0.338974
C17   C     C_3   0.996513 0.800555 0.957516 0.194581
C18   C     C_3   0.015892 0.193772 0.957668 0.192907
C19   C     C_3   0.501879 0.302882 0.957520 0.194237
C20   C     C_3   0.522350 0.693478 0.957699 0.192382
C21   C     C_1   0.110877 0.749891 0.778309 -0.126475
C22   C     C_1   0.110900 0.249987 0.778323 -0.127732
C23   C     C_1   0.610889 0.249912 0.778309 -0.126685
C24   C     C_1   0.610909 0.749960 0.778325 -0.127850
C25   C     C_3   0.962539 0.750620 0.073363 0.081277
C26   C     C_3   0.962923 0.248994 0.073390 0.080440
C27   C     C_3   0.462634 0.250746 0.073364 0.081182
C28   C     C_3   0.463010 0.748911 0.073394 0.080066
C29   C     C_3   0.077353 0.748857 0.956817 0.403000
C30   C     C_3   0.073519 0.270464 0.956801 0.402358
C31   C     C_3   0.576967 0.243174 0.956823 0.402899
C32   C     C_3   0.570794 0.776243 0.956799 0.401987
C33   C     C_3   0.036306 0.749707 0.926649 -0.027754
C34   C     C_3   0.036322 0.249934 0.926676 -0.027630
C35   C     C_3   0.536309 0.249795 0.926650 -0.027642
C36   C     C_3   0.536307 0.749831 0.926679 -0.027590
C37   C     C_3   0.992584 0.701405 0.957518 0.428853
C38   C     C_3   0.977483 0.285234 0.957476 0.430650
C39   C     C_3   0.487772 0.204660 0.957512 0.428929
C40   C     C_3   0.473696 0.779894 0.957466 0.430744
C41   C     C_3   0.948617 0.703166 0.043809 -0.455518
C42   C     C_3   0.934140 0.283252 0.043762 -0.457190
C43   C     C_3   0.443967 0.206513 0.043800 -0.455807
C44   C     C_3   0.430616 0.777981 0.043757 -0.456594
C45   C     C_R   0.849499 0.750026 0.301006 0.810011
C46   C     C_R   0.849509 0.249976 0.301009 0.811641
C47   C     C_R   0.349500 0.250027 0.301006 0.809700
C48   C     C_R   0.349506 0.749978 0.301009 0.811606
C49   C     C_1   0.077382 0.749846 0.845034 0.050837
C50   C     C_1   0.077416 0.249908 0.845053 0.050139
C51   C     C_1   0.577396 0.249897 0.845035 0.050666
C52   C     C_1   0.577420 0.749845 0.845055 0.050081
C53   C     C_1   0.922246 0.750223 0.154950 0.019309
C54   C     C_1   0.922455 0.249592 0.154968 0.020007
C55   C     C_1   0.422294 0.250290 0.154951 0.019425
C56   C     C_1   0.422478 0.749555 0.154971 0.020036
C57   C     C_1   0.889085 0.750070 0.221685 -0.151088
C58   C     C_1   0.889189 0.249857 0.221697 -0.150411
C59   C     C_1   0.389108 0.250099 0.221685 -0.151033
C60   C     C_1   0.389193 0.749845 0.221699 -0.150308
C61   C     C_2   0.750472 0.027687 0.449935 0.434442
C62   C     C_2   0.734980 0.972422 0.462798 0.433674
C63   C     C_2   0.251114 0.527711 0.449493 0.434547
C64   C     C_2   0.235589 0.472445 0.462202 0.433217
C65   C     C_2   0.744694 0.055900 0.504122 -0.481979
C66   C     C_2   0.755814 0.944098 0.494723 -0.480977
C67   C     C_2   0.244816 0.555901 0.503998 -0.482049
C68   C     C_2   0.255948 0.444099 0.494630 -0.481407
C69   C     C_2   0.800656 0.471954 0.456931 -0.163619
C70   C     C_2   0.800912 0.528072 0.458477 -0.162766
C71   C     C_2   0.300656 0.971954 0.456931 -0.163427
C72   C     C_2   0.300912 0.028072 0.458478 -0.162973
C73   C     C_2   0.748913 0.443884 0.502953 -0.295279
C74   C     C_2   0.748282 0.556113 0.499495 -0.294794
C75   C     C_2   0.248913 0.943884 0.502954 -0.295460
C76   C     C_2   0.248282 0.056113 0.499494 -0.294938
C77   C     C_R   0.749930 0.611397 0.499889 0.855877
C78   C     C_R   0.750007 0.388602 0.500242 0.855222
C79   C     C_R   0.249930 0.111397 0.499889 0.855772
C80   C     C_R   0.250007 0.888602 0.500242 0.855109
C81   C     C_R   0.749998 0.888766 0.499906 0.924549
C82   C     C_R   0.750132 0.111244 0.499797 0.924104
C83   C     C_R   0.250029 0.388769 0.499879 0.923829
C84   C     C_R   0.250162 0.611247 0.499772 0.924237
C85   C     C_R   0.611453 0.749903 0.499885 0.852358
C86   C     C_R   0.611274 0.249849 0.500251 0.848969
C87   C     C_R   0.111264 0.250158 0.500265 0.852096
C88   C     C_R   0.111274 0.749849 0.500251 0.848751
C89   C     C_R   0.888726 0.750194 0.499879 0.852184
C90   C     C_R   0.888727 0.249815 0.499885 0.853082
C91   C     C_R   0.388726 0.250194 0.499879 0.852040
C92   C     C_R   0.388536 0.750071 0.500266 0.853248
C93   C     C_2   0.049603 0.720859 0.456899 -0.162652
C94   C     C_2   0.049527 0.279285 0.457066 -0.161509
C95   C     C_2   0.549602 0.220858 0.456901 -0.162454
C96   C     C_2   0.548699 0.780392 0.458730 -0.161836
C97   C     C_2   0.054614 0.749517 0.503032 -0.298025
C98   C     C_2   0.054600 0.250496 0.503057 -0.298458
C99   C     C_2   0.554613 0.249517 0.503033 -0.298168
C100  C     C_2   0.556421 0.748045 0.499410 -0.298203
C101  C     C_2   0.992680 0.719814 0.458526 -0.164477
C102  C     C_2   0.992615 0.280308 0.458670 -0.165708
C103  C     C_2   0.492679 0.219813 0.458528 -0.164709
C104  C     C_2   0.493395 0.779273 0.457116 -0.165789
H1    H     H_    0.954922 0.668119 0.066970 0.206325
H2    H     H_    0.926890 0.322349 0.066921 0.204943
H3    H     H_    0.446531 0.169807 0.066981 0.206099
H4    H     H_    0.418963 0.817339 0.066835 0.204838
H5    H     H_    0.898587 0.703433 0.063528 0.171006
H6    H     H_    0.886813 0.268789 0.063427 0.171566
H7    H     H_    0.394190 0.210943 0.063490 0.171111
H8    H     H_    0.385140 0.759383 0.063496 0.172085
H9    H     H_    0.962967 0.701575 0.937165 0.029458
H10   H     H_    0.950491 0.271140 0.937062 0.029940
H11   H     H_    0.458404 0.208909 0.937129 0.029499
H12   H     H_    0.448537 0.761563 0.937133 0.030360
H13   H     H_    0.845270 0.453336 0.416562 0.174851
H14   H     H_    0.846489 0.546717 0.423622 0.174765
H15   H     H_    0.345270 0.953336 0.416562 0.174839
H16   H     H_    0.346489 0.046717 0.423625 0.174699
H17   H     H_    0.991354 0.691570 0.423836 0.175152
H18   H     H_    0.991252 0.308611 0.424060 0.174662
H19   H     H_    0.491353 0.191568 0.423839 0.175017
H20   H     H_    0.494900 0.803744 0.416779 0.174638
H21   H     H_    0.944243 0.781536 0.533258 0.150425
H22   H     H_    0.944250 0.218456 0.533235 0.150612
H23   H     H_    0.444243 0.281536 0.533257 0.150438
H24   H     H_    0.438245 0.726515 0.545243 0.150433
H25   H     H_    0.105682 0.784825 0.938012 0.026248
H26   H     H_    0.113199 0.243398 0.938126 0.026513
H27   H     H_    0.608879 0.277012 0.938044 0.026243
H28   H     H_    0.613416 0.752873 0.938074 0.027113
H29   H     H_    0.963108 0.832595 0.065772 0.030203
H30   H     H_    0.992628 0.171177 0.065887 0.029608
H31   H     H_    0.471711 0.332613 0.065766 0.029858
H32   H     H_    0.501330 0.674529 0.065975 0.029988
O1    O     O_3   0.750030 0.750030 0.500000 -0.492575
O2    O     O_3   0.750030 0.249970 0.500000 -0.493349
O3    O     O_3   0.250030 0.250030 0.500000 -0.492756
O4    O     O_3   0.250030 0.749970 0.500000 -0.493499
O5    O     O_R   0.801570 0.635440 0.457010 -0.643241
O6    O     O_R   0.801570 0.364560 0.457010 -0.643724
O7    O     O_R   0.301570 0.135440 0.457010 -0.643321
O8    O     O_R   0.301570 0.864560 0.457010 -0.643578
O9    O     O_R   0.758570 0.864610 0.542990 -0.654760
O10   O     O_R   0.758570 0.135390 0.542990 -0.654837
O11   O     O_R   0.258570 0.364610 0.542990 -0.654740
O12   O     O_R   0.258570 0.635390 0.542990 -0.654717
O13   O     O_R   0.638020 0.720010 0.663980 -0.638032
O14   O     O_R   0.638020 0.279990 0.663980 -0.636394
O15   O     O_R   0.138020 0.220010 0.663980 -0.637676
O16   O     O_R   0.138020 0.779990 0.663980 -0.635894
O17   O     O_R   0.801960 0.780050 0.336020 -0.634225
O18   O     O_R   0.801960 0.219950 0.336020 -0.626228
O19   O     O_R   0.301960 0.280050 0.336020 -0.633594
O20   O     O_R   0.301960 0.719950 0.336020 -0.625568
O21   O     O_R   0.698090 0.780090 0.663980 -0.630013
O22   O     O_R   0.698090 0.219910 0.663980 -0.628124
O23   O     O_R   0.198090 0.280090 0.663980 -0.629093
O24   O     O_R   0.198090 0.719910 0.663980 -0.627921
O25   O     O_R   0.862050 0.719970 0.336020 -0.640603
O26   O     O_R   0.862050 0.280030 0.336020 -0.642375
O27   O     O_R   0.362050 0.219970 0.336020 -0.640786
O28   O     O_R   0.362050 0.780030 0.336020 -0.642867
O29   O     O_R   0.698510 0.635460 0.542990 -0.642306
O30   O     O_R   0.698510 0.364540 0.542990 -0.641467
O31   O     O_R   0.198510 0.135460 0.542990 -0.641889
O32   O     O_R   0.198510 0.864540 0.542990 -0.641533
O33   O     O_R   0.741470 0.864610 0.457010 -0.582882
O34   O     O_R   0.741470 0.135390 0.457010 -0.582340
O35   O     O_R   0.241470 0.364610 0.457010 -0.582361
O36   O     O_R   0.241470 0.635390 0.457010 -0.582439
O37   O     O_R   0.613960 0.720010 0.542990 -0.647077
O38   O     O_R   0.613960 0.279990 0.542990 -0.645642
O39   O     O_R   0.113960 0.220010 0.542990 -0.646945
O40   O     O_R   0.113960 0.779990 0.542990 -0.645258
O41   O     O_R   0.843120 0.780070 0.542990 -0.645729
O42   O     O_R   0.843120 0.219930 0.542990 -0.644137
O43   O     O_R   0.343120 0.280070 0.542990 -0.645472
O44   O     O_R   0.343120 0.719930 0.542990 -0.643664
O45   O     O_R   0.656940 0.780080 0.457010 -0.635637
O46   O     O_R   0.656940 0.219920 0.457010 -0.641215
O47   O     O_R   0.156940 0.280080 0.457010 -0.635816
O48   O     O_R   0.156940 0.719920 0.457010 -0.641450
O49   O     O_R   0.886110 0.719980 0.457010 -0.643616
O50   O     O_R   0.886110 0.280020 0.457010 -0.643676
O51   O     O_R   0.386110 0.219980 0.457010 -0.643725
O52   O     O_R   0.386110 0.780020 0.457010 -0.643921
Zn1   Zn    Zn3+2 0.823660 0.707100 0.438580 0.960897
Zn2   Zn    Zn3+2 0.823660 0.292900 0.438580 0.961091
Zn3   Zn    Zn3+2 0.323660 0.207100 0.438580 0.960565
Zn4   Zn    Zn3+2 0.323660 0.792900 0.438580 0.960747
Zn5   Zn    Zn3+2 0.676410 0.707120 0.561420 0.970682
Zn6   Zn    Zn3+2 0.676410 0.292880 0.561420 0.970079
Zn7   Zn    Zn3+2 0.176410 0.207120 0.561420 0.970745
Zn8   Zn    Zn3+2 0.176410 0.792880 0.561420 0.970277
Zn9   Zn    Zn3+2 0.737810 0.792950 0.438580 0.992590
Zn10  Zn    Zn3+2 0.737810 0.207050 0.438580 0.994061
Zn11  Zn    Zn3+2 0.237810 0.292950 0.438580 0.992816
Zn12  Zn    Zn3+2 0.237810 0.707050 0.438580 0.994347
Zn13  Zn    Zn3+2 0.762240 0.792950 0.561420 0.971047
Zn14  Zn    Zn3+2 0.762240 0.207050 0.561420 0.972362
Zn15  Zn    Zn3+2 0.262240 0.292950 0.561420 0.971227
Zn16  Zn    Zn3+2 0.262240 0.707050 0.561420 0.972690
H33   H     H_    0.088446 0.696504 0.416412 0.178153
H34   H     H_    0.088314 0.303756 0.416706 0.178227
H35   H     H_    0.588445 0.196502 0.416414 0.178077
H36   H     H_    0.584576 0.808763 0.424202 0.177940
O53   O     O_3   0.970759 0.821052 0.921297 -0.575842
C105  C     C_3   0.933474 0.787238 0.913240 -0.219301
H37   H     H_    0.898963 0.765751 0.964488 0.185074
H38   H     H_    0.963652 0.761617 0.865142 0.136717
H39   H     H_    0.905533 0.810078 0.900264 0.174283
O54   O     O_3   0.999993 0.159166 0.921614 -0.577419
C106  C     C_3   0.953408 0.176326 0.913665 -0.216663
H40   H     H_    0.912025 0.193406 0.964900 0.184663
H41   H     H_    0.935527 0.142843 0.900915 0.176363
H42   H     H_    0.974186 0.202402 0.865465 0.139092
O55   O     O_3   0.478451 0.327775 0.921314 -0.576079
C107  C     C_3   0.437881 0.298389 0.913300 -0.218628
H43   H     H_    0.401236 0.277921 0.964554 0.184828
H44   H     H_    0.465374 0.272280 0.865188 0.137443
H45   H     H_    0.412441 0.324650 0.900373 0.174794
O56   O     O_3   0.510718 0.655177 0.921617 -0.578186
C108  C     C_3   0.462583 0.666400 0.913511 -0.215578
H46   H     H_    0.419269 0.681497 0.964716 0.185127
H47   H     H_    0.448813 0.630352 0.900632 0.177107
H48   H     H_    0.480431 0.691961 0.865336 0.139819
O57   O     O_3   0.029917 0.656427 0.933015 -0.517161
C109  C     C_3   0.998134 0.615278 0.927615 -0.307527
H49   H     H_    0.950729 0.609096 0.980466 0.140074
H50   H     H_    0.026068 0.580082 0.915442 0.203534
H51   H     H_    0.994121 0.621474 0.881183 0.147873
O58   O     O_3   0.997475 0.336166 0.932985 -0.516985
C110  C     C_3   0.953522 0.362616 0.927472 -0.319905
H52   H     H_    0.905251 0.361012 0.980267 0.140981
H53   H     H_    0.953491 0.347297 0.880978 0.150182
H54   H     H_    0.967733 0.403247 0.915330 0.197593
O59   O     O_3   0.520347 0.157340 0.933039 -0.517345
C111  C     C_3   0.484540 0.119950 0.927605 -0.308640
H55   H     H_    0.436597 0.115964 0.980435 0.140367
H56   H     H_    0.508735 0.082694 0.915461 0.203315
H57   H     H_    0.481345 0.128903 0.881144 0.147960
O60   O     O_3   0.487780 0.831355 0.932863 -0.517327
C112  C     C_3   0.441064 0.852209 0.927368 -0.320453
H58   H     H_    0.393141 0.848138 0.980204 0.141169
H59   H     H_    0.442897 0.834245 0.880947 0.150581
H60   H     H_    0.450558 0.893496 0.915121 0.197817
H61   H     H_    0.041462 0.713583 0.064840 0.241931
H62   H     H_    0.024055 0.310009 0.064666 0.241859
H63   H     H_    0.537333 0.206184 0.064823 0.241963
H64   H     H_    0.516833 0.815977 0.064705 0.241681
O61   O     O_3   0.117569 0.705576 0.929540 -0.505453
C113  C     C_3   0.172489 0.715425 0.925293 -0.287729
H65   H     H_    0.161010 0.728546 0.979431 0.142420
H66   H     H_    0.202780 0.743867 0.881154 0.147681
H67   H     H_    0.199817 0.679559 0.910327 0.194744
O62   O     O_3   0.096974 0.320283 0.929332 -0.507294
C114  C     C_3   0.151986 0.329577 0.925106 -0.282022
H68   H     H_    0.191689 0.305768 0.881081 0.149698
H69   H     H_    0.165559 0.370107 0.909981 0.196120
H70   H     H_    0.144071 0.322830 0.979292 0.142901
O63   O     O_3   0.612611 0.197399 0.929518 -0.505751
C115  C     C_3   0.668254 0.201773 0.925291 -0.286370
H71   H     H_    0.658027 0.213206 0.979443 0.142490
H72   H     H_    0.701418 0.229233 0.881175 0.148259
H73   H     H_    0.691805 0.164061 0.910302 0.194862
O64   O     O_3   0.588388 0.826867 0.929384 -0.507857
C116  C     C_3   0.642002 0.842207 0.925094 -0.280517
H74   H     H_    0.684332 0.820627 0.881009 0.150635
H75   H     H_    0.650821 0.883169 0.910019 0.196385
H76   H     H_    0.634797 0.837681 0.979243 0.142897
O65   O     O_3   0.764479 0.051238 0.385887 -0.568543
C117  C     C_3   0.814094 0.025346 0.322474 -0.287419
H77   H     H_    0.797160 0.989444 0.313331 0.199102
H78   H     H_    0.854192 0.017594 0.325671 0.134700
H79   H     H_    0.832187 0.049947 0.273307 0.174362
O66   O     O_3   0.704718 0.949049 0.435676 -0.572744
C118  C     C_3   0.648249 0.974963 0.461211 -0.274935
H80   H     H_    0.657869 0.010996 0.430073 0.200223
H81   H     H_    0.619593 0.982490 0.521994 0.136858
H82   H     H_    0.619588 0.950488 0.451024 0.179662
O67   O     O_3   0.265674 0.551296 0.385212 -0.568181
C119  C     C_3   0.315554 0.525401 0.322030 -0.287527
H83   H     H_    0.298797 0.489526 0.312571 0.199022
H84   H     H_    0.355338 0.517599 0.325793 0.134284
H85   H     H_    0.334033 0.550022 0.272789 0.175215
O68   O     O_3   0.205784 0.449107 0.434483 -0.572346
C120  C     C_3   0.149468 0.475053 0.459424 -0.273242
H86   H     H_    0.159353 0.511088 0.428204 0.200165
H87   H     H_    0.120419 0.482581 0.520227 0.136060
H88   H     H_    0.121083 0.450600 0.448783 0.180305
H89   H     H_    0.733023 0.038266 0.554861 0.123107
H90   H     H_    0.780347 0.961648 0.515171 0.121048
H91   H     H_    0.232779 0.538253 0.554889 0.122586
H92   H     H_    0.280178 0.461636 0.515477 0.121515
H93   H     H_    0.016592 0.773305 0.545335 0.150351
H94   H     H_    0.016631 0.226599 0.545252 0.149715
H95   H     H_    0.516592 0.273305 0.545335 0.150128
H96   H     H_    0.522679 0.718474 0.533136 0.150222
H97   H     H_    0.703927 0.460761 0.545085 0.152676
H98   H     H_    0.701887 0.539214 0.533588 0.151843
H99   H     H_    0.203928 0.960761 0.545086 0.152609
H100  H     H_    0.201887 0.039213 0.533585 0.151988
H101  H     H_    0.044488 0.781675 0.064633 0.137412
H102  H     H_    0.050806 0.247339 0.064733 0.138953
H103  H     H_    0.547366 0.273610 0.064665 0.137724
H104  H     H_    0.550564 0.756748 0.064683 0.139356
O69   O     O_3   0.886465 0.801861 0.070611 -0.591777
C121  C     C_3   0.863161 0.852145 0.089773 -0.266678
H105  H     H_    0.893024 0.879021 0.042962 0.185543
H106  H     H_    0.859440 0.864850 0.139817 0.152737
H107  H     H_    0.815175 0.852878 0.103309 0.182101
O70   O     O_3   0.909808 0.173673 0.070918 -0.588726
C122  C     C_3   0.904952 0.121894 0.090726 -0.269762
H108  H     H_    0.904383 0.117839 0.140790 0.146404
H109  H     H_    0.943772 0.098835 0.044152 0.184134
H110  H     H_    0.859797 0.106634 0.104526 0.183186
O71   O     O_3   0.392268 0.309735 0.070641 -0.591361
C123  C     C_3   0.374256 0.361176 0.089791 -0.266254
H111  H     H_    0.406864 0.387229 0.042968 0.185273
H112  H     H_    0.371752 0.371617 0.139823 0.151404
H113  H     H_    0.326564 0.366176 0.103342 0.182838
O72   O     O_3   0.418797 0.667926 0.070877 -0.587902
C124  C     C_3   0.419665 0.617084 0.090877 -0.272099
H114  H     H_    0.419325 0.615904 0.140993 0.145554
H115  H     H_    0.460990 0.595869 0.044404 0.184626
H116  H     H_    0.376474 0.597606 0.104681 0.182474
H117  H     H_    0.031573 0.830457 0.945184 0.068163
H118  H     H_    0.059620 0.175913 0.945277 0.067155
H119  H     H_    0.539865 0.329654 0.945171 0.068009
H120  H     H_    0.567863 0.680072 0.945383 0.067285

loop_
_geom_bond_atom_site_label_1
_geom_bond_atom_site_label_2
_ccdc_geom_bond_type
C55   C59   T    
C76   C79   S    
O26   Zn2   S    
C103  H19   S    
O20   Zn12  S    
C45   C57   S    
C41   H1    S    
C119  H83   S    
C25   C53   S    
C38   H10   S    
C27   C55   S    
C96   H36   S    
C10   H102  S    
C29   C33   S    
C108  H48   S    
O60   C112  S    
C31   O63   S    
C117  H77   S    
C45   O25   A    
O14   Zn6   S    
C113  H66   S    
C92   O44   A    
O72   C124  S    
C83   O35   A    
C70   C74   D    
C8    C92   S    
C81   O33   A    
C88   C97   S    
C64   O68   S    
C112  H58   S    
O31   Zn7   S    
O39   Zn7   S    
O3    Zn7   S    
O1    Zn5   S    
C121  H106  S    
C122  H109  S    
C123  H113  S    
C25   C41   S    
O16   Zn8   S    
C90   O50   A    
O70   C122  S    
C28   C44   S    
C86   O38   A    
O50   Zn2   S    
C106  H40   S    
C38   O58   S    
O57   C109  S    
C10   C30   S    
C15   C27   S    
C11   C27   S    
C16   C20   S    
C20   O56   S    
C14   C26   S    
C109  H50   S    
C86   C99   S    
C8    C104  D    
C40   O60   S    
C48   O28   A    
C44   H8    S    
O1    Zn9   S    
O38   Zn6   S    
C39   H11   S    
C116  H75   S    
C35   C51   S    
C75   H99   S    
C76   H100  S    
C96   C104  S    
C68   C83   S    
C13   H29   S    
C119  H85   S    
C114  H69   S    
C16   O72   S    
O3    Zn3   S    
C71   H15   S    
O11   Zn15  S    
O4    Zn12  S    
C18   H118  S    
C19   C35   S    
O2    Zn14  S    
C65   C82   S    
C12   H104  S    
C13   O69   S    
C6    C102  D    
C69   C70   S    
C14   O70   S    
C11   H63   S    
C99   H95   S    
C47   C59   S    
C118  H81   S    
C94   C102  S    
C112  H60   S    
O7    Zn3   S    
C79   O31   A    
C80   O32   A    
C5    C89   S    
C2    O14   A    
C94   H34   S    
C30   C34   S    
O45   Zn9   S    
C39   O59   S    
C28   C56   S    
C37   O57   S    
C64   C68   D    
O4    Zn16  S    
C87   O47   A    
O61   C113  S    
O18   Zn10  S    
C88   O48   A    
C66   H90   S    
C77   O29   A    
C124  H115  S    
C31   H27   S    
O13   Zn5   S    
C23   C51   T    
C8    H24   S    
C29   H25   S    
C115  H71   S    
O48   Zn12  S    
C74   C77   S    
C36   C52   S    
C19   H119  S    
C7    C103  D    
C46   C58   S    
C3    O23   A    
C18   O54   S    
C43   H7    S    
C26   C54   S    
C107  H43   S    
C95   C103  S    
O65   C117  S    
C77   O5    A    
C4    O16   A    
C11   H103  S    
C62   C66   D    
C106  H42   S    
C113  H67   S    
C6    C90   S    
C10   H62   S    
C123  H112  S    
C61   C65   D    
O4    Zn8   S    
C118  H80   S    
C72   H16   S    
O53   C105  S    
C69   C73   D    
O43   Zn15  S    
C29   O61   S    
C73   H97   S    
C110  H54   S    
O1    Zn1   S    
O21   Zn13  S    
C16   H32   S    
C93   C97   D    
O19   Zn11  S    
O12   Zn16  S    
O33   Zn9   S    
C91   O51   A    
C122  H110  S    
C85   O45   A    
C30   O62   S    
C89   O49   A    
O30   Zn6   S    
C84   O36   A    
C92   O52   A    
O49   Zn1   S    
C104  H20   S    
C105  H39   S    
C87   O39   A    
C105  H38   S    
C88   O40   A    
C13   C17   S    
O52   Zn4   S    
O67   C119  S    
C119  H84   S    
O62   C114  S    
C42   H6    S    
C71   C72   S    
O10   Zn14  S    
O1    Zn13  S    
C70   H14   S    
C115  H73   S    
O22   Zn14  S    
C96   C100  D    
C111  H55   S    
C108  H47   S    
O36   Zn12  S    
O41   Zn13  S    
C37   C41   S    
C61   C62   S    
C63   C64   S    
C40   C44   S    
C1    C24   S    
C5    H21   S    
C2    C23   S    
O66   C118  S    
C3    C22   S    
O27   Zn3   S    
C7    H23   S    
O28   Zn4   S    
C107  H45   S    
C117  H78   S    
C24   C52   T    
C90   O42   A    
C117  H79   S    
O59   C111  S    
O34   Zn10  S    
O56   C108  S    
C9    C25   S    
O63   C115  S    
C15   C19   S    
C20   H120  S    
C12   C28   S    
C17   O53   S    
C78   O6    A    
C37   H9    S    
C94   C98   D    
C95   C99   D    
C33   C49   S    
O6    Zn2   S    
C120  H88   S    
O15   Zn7   S    
C110  H52   S    
C1    O13   A    
C22   C50   T    
C87   C98   S    
C47   O27   A    
C84   O12   A    
C48   O20   A    
C122  H108  S    
C116  H74   S    
C17   C33   S    
C21   C49   T    
C82   O10   A    
C5    C101  D    
O2    Zn6   S    
C95   H35   S    
C46   O18   A    
C78   O30   A    
O5    Zn1   S    
C6    H22   S    
O55   C107  S    
C15   O71   S    
O8    Zn4   S    
C30   H26   S    
C111  H57   S    
C101  H17   S    
C56   C60   T    
C35   C39   S    
C113  H65   S    
C2    O22   A    
C7    C91   S    
C97   H93   S    
C43   H3    S    
C112  H59   S    
O37   Zn5   S    
C31   C35   S    
C45   O17   A    
O58   C110  S    
C93   C101  S    
C32   C36   S    
C121  H105  S    
C53   C57   T    
O44   Zn16  S    
O24   Zn16  S    
C12   H64   S    
C109  H49   S    
O3    Zn15  S    
O68   C120  S    
C66   C81   S    
C17   H117  S    
C74   H98   S    
C26   C42   S    
C124  H114  S    
C33   C37   S    
O71   C123  S    
C20   C36   S    
C27   C43   S    
C9    H101  S    
O64   C116  S    
C115  H72   S    
C116  H76   S    
C67   H91   S    
C86   O46   A    
C61   O65   S    
C102  H18   S    
C121  H107  S    
C16   C28   S    
O9    Zn13  S    
C82   O34   A    
C14   C18   S    
O46   Zn10  S    
C72   C76   D    
C114  H70   S    
C93   H33   S    
C107  H44   S    
C63   O67   S    
C4    O24   A    
O69   C121  S    
C38   C42   S    
C106  H41   S    
O3    Zn11  S    
C15   H31   S    
C109  H51   S    
C118  H82   S    
O35   Zn11  S    
C91   O43   A    
C85   O37   A    
C73   C78   S    
C89   O41   A    
C100  H96   S    
C75   C80   S    
O51   Zn3   S    
C9    C29   S    
C10   C26   S    
C11   C31   S    
C67   C84   S    
C12   C32   S    
C110  H53   S    
C13   C25   S    
O2    Zn2   S    
C48   C60   S    
C44   H4    S    
C63   C67   D    
C34   C50   S    
C36   C40   S    
O25   Zn1   S    
O54   C106  S    
C39   C43   S    
C14   H30   S    
C80   O8    A    
O47   Zn11  S    
C124  H116  S    
C9    H61   S    
C79   O7    A    
C42   H2    S    
O23   Zn15  S    
C111  H56   S    
C108  H46   S    
O40   Zn8   S    
C18   C34   S    
C83   O11   A    
O2    Zn10  S    
C81   O9    A    
O42   Zn14  S    
O32   Zn8   S    
O4    Zn4   S    
C19   O55   S    
C114  H68   S    
C98   H94   S    
C32   H28   S    
C120  H86   S    
C54   C58   T    
C34   C38   S    
O29   Zn5   S    
C3    O15   A    
C123  H111  S    
C1    O21   A    
C85   C100  S    
C71   C75   D    
C4    C21   S    
C40   H12   S    
C47   O19   A    
C68   H92   S    
C69   H13   S    
C120  H87   S    
C32   O64   S    
C65   H89   S    
C105  H37   S    
C46   O26   A    
C41   H5    S    
C62   O66   S    
O17   Zn9   S    
