data_mof_unit_5737.cif
_audit_creation_date              2012-10-26T19:45:32-0400
_audit_creation_method            fapswitch 2.2
_symmetry_space_group_name_H-M    P1
_symmetry_Int_Tables_number       1
_space_group_crystal_system       triclinic
_cell_length_a                    10.849963
_cell_length_b                    9.582597
_cell_length_c                    11.043869
_cell_angle_alpha                 89.518204
_cell_angle_beta                  93.9818
_cell_angle_gamma                 89.585837
_cell_volume                      1145.39285309

loop_
_atom_site_label
_atom_site_type_symbol
_atom_type_description
_atom_site_fract_x
_atom_site_fract_y
_atom_site_fract_z
_atom_type_partial_charge
C1    C     C_R   0.263208 0.500649 0.512204 0.558389
C2    C     C_R   0.412650 0.927025 0.431392 0.325948
C3    C     C_R   0.588496 0.925156 0.567620 0.389322
C4    C     C_R   0.587147 0.072803 0.568720 0.379193
C5    C     C_R   0.497893 0.501185 0.260001 0.643953
C6    C     C_R   0.736766 0.499531 0.488218 0.626731
C7    C     C_R   0.497889 0.499542 0.739943 0.638355
C8    C     C_3   0.446653 0.654327 0.064984 0.143723
C9    C     C_3   0.406774 0.380542 0.066786 0.153207
C10   C     C_3   0.470232 0.656143 0.924684 0.341442
C11   C     C_3   0.393377 0.397234 0.922091 0.338193
C12   C     C_3   0.635208 0.451549 0.938938 -0.106299
C13   C     C_3   0.636718 0.479341 0.082506 0.276174
C14   C     C_3   0.497743 0.503709 0.122432 -0.054610
C15   C     C_3   0.499621 0.499553 0.878285 -0.050069
C16   C     C_2   0.489017 0.796494 0.118706 0.459753
C17   C     C_2   0.437131 0.227781 0.102823 0.432964
C18   C     C_2   0.742681 0.527195 0.882223 0.307471
C19   C     C_2   0.672297 0.299839 0.913957 0.375000
C20   C     C_2   0.122572 0.252225 0.599198 0.395289
C21   C     C_2   0.118515 0.764770 0.549211 0.402628
C22   C     C_R   0.063990 0.375514 0.533259 0.006483
C23   C     C_R   0.061289 0.630179 0.509208 0.006391
C24   C     C_R   0.938701 0.372607 0.494086 0.255566
C25   C     C_R   0.935034 0.626012 0.473404 0.254086
C26   C     C_R   0.871520 0.498676 0.478898 0.014718
C27   C     C_R   0.128319 0.502787 0.524915 -0.099309
C28   C     C_R   0.411687 0.074729 0.432338 0.334419
Cl1   Cl    Cl    0.709868 0.839431 0.652408 -0.284501
Cl2   Cl    Cl    0.725711 0.349381 0.170505 -0.349752
Cl3   Cl    Cl    0.875120 0.213371 0.438886 -0.254744
Cl4   Cl    Cl    0.861194 0.775644 0.404330 -0.252491
Cl5   Cl    Cl    0.291767 0.160485 0.346274 -0.386038
Cl6   Cl    Cl    0.301235 0.841639 0.337062 -0.380069
Cl7   Cl    Cl    0.698397 0.157927 0.662373 -0.397706
Cl8   Cl    Cl    0.284412 0.678643 0.087052 -0.324866
Cl9   Cl    Cl    0.257275 0.383959 0.131023 -0.338645
Cl10  Cl    Cl    0.345600 0.747129 0.837210 -0.410967
Cl11  Cl    Cl    0.242206 0.459739 0.867140 -0.407615
Cl12  Cl    Cl    0.593516 0.775421 0.895304 -0.373983
Cl13  Cl    Cl    0.384580 0.229408 0.846112 -0.479237
Cl14  Cl    Cl    0.733522 0.623365 0.130236 -0.387782
Cu1   Cu    Cu3+1 0.500020 0.640660 0.500000 1.245802
Cu2   Cu    Cu3+1 0.500020 0.359340 0.500000 1.226461
H1    H     H_    0.444645 0.890070 0.079350 0.188965
H2    H     H_    0.373004 0.147179 0.071194 0.204149
H3    H     H_    0.826629 0.552263 0.936177 0.235006
H4    H     H_    0.757059 0.277801 0.870503 0.200003
H5    H     H_    0.215035 0.258008 0.641585 0.178371
H6    H     H_    0.193491 0.764297 0.619139 0.167837
N1    N     N_R   0.500030 0.852070 0.500030 -0.290308
N2    N     N_R   0.500030 0.147930 0.500030 -0.282252
O1    O     O_R   0.319660 0.618740 0.499990 -0.498070
O2    O     O_2   0.524035 0.188933 0.170272 -0.377244
O3    O     O_2   0.745548 0.542283 0.772620 -0.462408
O4    O     O_2   0.619830 0.198561 0.951611 -0.357255
O5    O     O_2   0.065551 0.145331 0.615863 -0.327729
O6    O     O_2   0.083199 0.877158 0.506802 -0.302673
O7    O     O_R   0.319660 0.381260 0.499990 -0.492892
O8    O     O_R   0.499990 0.618790 0.317690 -0.439275
O9    O     O_R   0.499990 0.381210 0.317690 -0.426428
O10   O     O_R   0.680370 0.618830 0.500010 -0.427217
O11   O     O_R   0.680370 0.381170 0.500010 -0.437486
O12   O     O_R   0.500030 0.618780 0.682310 -0.422084
O13   O     O_R   0.500030 0.381220 0.682310 -0.463411
O14   O     O_2   0.569329 0.814105 0.199628 -0.360576

loop_
_geom_bond_atom_site_label_1
_geom_bond_atom_site_label_2
_ccdc_geom_bond_type
C19   O4    D    
C6    O11   A    
C2    C28   A    
C9    C14   S    
C20   H5    S    
C1    O1    A    
C23   C27   A    
Cu2   O9    S    
C7    O13   A    
C9    C11   S    
C12   C15   S    
C10   Cl10  S    
C6    O10   A    
Cu1   Cu2   S    
C18   H3    S    
Cu2   N2    S    
C25   Cl4   S    
C9    Cl9   S    
C5    C14   S    
C24   Cl3   S    
C5    O9    A    
C21   O6    D    
C8    C16   S    
C13   C14   S    
C12   C13   S    
C11   Cl11  S    
C28   N2    A    
Cu1   N1    S    
Cu2   O13   S    
C6    C26   S    
C11   C15   S    
Cu1   O8    S    
C4    N2    A    
C18   O3    D    
C12   C19   S    
C9    C17   S    
C21   H6    S    
C1    O7    A    
C24   C26   A    
C28   Cl5   S    
C11   Cl13  S    
C22   C27   A    
C21   C23   S    
Cu2   O11   S    
C2    Cl6   S    
C22   C24   A    
C7    O12   A    
C4    Cl7   S    
C16   O14   D    
C2    N1    A    
C16   H1    S    
C3    C4    A    
C13   Cl2   S    
C10   Cl12  S    
C23   C25   A    
C17   H2    S    
C8    C10   S    
C8    Cl8   S    
C12   C18   S    
C1    C27   S    
C3    N1    A    
C19   H4    S    
C13   Cl14  S    
C3    Cl1   S    
C8    C14   S    
Cu1   O12   S    
Cu2   O7    S    
C5    O8    A    
C7    C15   S    
C25   C26   A    
C20   O5    D    
C17   O2    D    
Cu1   O1    S    
Cu1   O10   S    
C20   C22   S    
C10   C15   S    
