data_mof_unit_58437.cif
_audit_creation_date              2012-12-10T16:32:42-0500
_audit_creation_method            fapswitch 2.2
_symmetry_space_group_name_H-M    P1
_symmetry_Int_Tables_number       1
_space_group_crystal_system       triclinic
_cell_length_a                    16.919251
_cell_length_b                    16.931841
_cell_length_c                    16.960089
_cell_angle_alpha                 65.999436
_cell_angle_beta                  66.024812
_cell_angle_gamma                 65.438088
_cell_volume                      3868.82704076

loop_
_atom_site_label
_atom_site_type_symbol
_atom_type_description
_atom_site_fract_x
_atom_site_fract_y
_atom_site_fract_z
_atom_type_partial_charge
C1    C     C_R   0.585422 0.050518 0.587771 0.088156
C2    C     C_R   0.821470 0.564060 0.034177 0.938002
C3    C     C_R   0.435560 0.967781 0.178257 0.928041
C4    C     C_R   0.566697 0.026625 0.823170 0.934762
C5    C     C_R   0.563860 0.821513 0.034616 0.938692
C6    C     C_R   0.436076 0.178497 0.965476 0.938109
C7    C     C_R   0.032236 0.564437 0.821759 0.927656
C8    C     C_R   0.973425 0.433284 0.176808 0.934187
C9    C     C_R   0.823100 0.025917 0.566943 0.940929
C10   C     C_R   0.178433 0.967941 0.435270 0.943963
C11   C     C_R   0.534393 0.040370 0.540112 0.140199
C12   C     C_R   0.404580 0.983125 0.403919 0.083550
C13   C     C_R   0.448949 0.004238 0.450156 0.140595
C14   C     C_R   0.995935 0.551066 0.549747 0.138637
C15   C     C_R   0.960059 0.465365 0.459838 0.138291
C16   C     C_R   0.543455 0.544558 0.017316 0.139258
C17   C     C_R   0.456319 0.455586 0.982846 0.140290
C18   C     C_R   0.545770 0.080497 0.447052 -0.193115
C19   C     C_R   0.437089 0.965054 0.543243 -0.194789
C20   C     C_R   0.937499 0.496472 0.597281 -0.177088
C21   C     C_R   0.017314 0.521004 0.412442 -0.174379
C22   C     C_R   0.490368 0.592144 0.956875 -0.181871
C23   C     C_R   0.016981 0.595476 0.596006 0.083646
C24   C     C_R   0.509382 0.408015 0.043316 -0.183039
C25   C     C_R   0.503291 0.062904 0.402652 -0.178308
C26   C     C_R   0.479000 0.982886 0.587474 -0.175687
C27   C     C_R   0.447250 0.548242 0.940009 -0.193606
C28   C     C_R   0.552525 0.451911 0.060155 -0.194855
C29   C     C_R   0.920036 0.453875 0.552913 -0.191997
C30   C     C_R   0.035010 0.563046 0.456643 -0.193618
C31   C     C_R   0.547137 0.051183 0.677776 -0.297161
C32   C     C_R   0.446640 0.975078 0.316308 -0.285121
C33   C     C_R   0.024204 0.683439 0.554550 -0.284743
C34   C     C_R   0.949922 0.414347 0.412166 0.088235
C35   C     C_R   0.952012 0.323304 0.451316 -0.275550
C36   C     C_R   0.679601 0.549655 0.038917 -0.289207
C37   C     C_R   0.320367 0.450612 0.960755 -0.287026
C38   C     C_R   0.316637 0.975781 0.445432 -0.285303
C39   C     C_R   0.676520 0.048337 0.548629 -0.276543
C40   C     C_R   0.450938 0.319817 0.960626 -0.288356
C41   C     C_R   0.548745 0.680167 0.039871 -0.286540
C42   C     C_R   0.949147 0.452676 0.322174 -0.296043
C43   C     C_R   0.025096 0.553388 0.683621 -0.283873
C44   C     C_R   0.603341 0.031794 0.730203 -0.145892
C45   C     C_R   0.589946 0.590940 0.035079 0.083915
C46   C     C_R   0.402698 0.955522 0.274080 -0.168139
C47   C     C_R   0.044212 0.725433 0.598173 -0.168984
C48   C     C_R   0.969692 0.270114 0.396238 -0.149570
C49   C     C_R   0.724271 0.595813 0.052108 -0.169434
C50   C     C_R   0.275726 0.404401 0.947610 -0.173067
C51   C     C_R   0.274615 0.955739 0.401867 -0.169009
C52   C     C_R   0.729816 0.030448 0.603723 -0.149054
C53   C     C_R   0.404322 0.275544 0.947672 -0.167736
C54   C     C_R   0.595449 0.724451 0.052675 -0.171427
C55   C     C_R   0.968373 0.396579 0.269766 -0.145716
C56   C     C_R   0.409872 0.409181 0.965039 0.083850
C57   C     C_R   0.044565 0.597310 0.725911 -0.168612
C58   C     C_R   0.696241 0.007214 0.696085 0.438696
C59   C     C_R   0.322342 0.934346 0.321516 0.463266
C60   C     C_R   0.065668 0.677676 0.678520 0.463767
C61   C     C_R   0.992895 0.303721 0.303883 0.438586
C62   C     C_R   0.677381 0.677410 0.071972 0.461614
C63   C     C_R   0.322593 0.322631 0.928033 0.461534
C64   C     C_3   0.789844 0.958814 0.788572 -0.147736
C65   C     C_3   0.315641 0.809189 0.309459 -0.309565
C66   C     C_3   0.190848 0.684032 0.691067 -0.312785
C67   C     C_R   0.974112 0.176884 0.433033 0.940823
C68   C     C_3   0.041192 0.210226 0.211440 -0.147921
C69   C     C_3   0.688501 0.696676 0.191032 -0.302827
C70   C     C_3   0.302597 0.312330 0.808947 -0.302709
C71   C     C_R   0.032017 0.821583 0.564768 0.944026
C72   C     C_R   0.178519 0.435998 0.965746 0.938826
H1    H     H_    0.470519 0.948731 0.658648 0.138995
H2    H     H_    0.483379 0.663096 0.921237 0.134999
H3    H     H_    0.051389 0.529610 0.341251 0.141177
H4    H     H_    0.904683 0.487053 0.668718 0.134127
H5    H     H_    0.474901 0.061336 0.708186 0.169012
H6    H     H_    0.512316 0.986187 0.280277 0.173064
H7    H     H_    0.009550 0.720764 0.490431 0.177523
H8    H     H_    0.946391 0.292338 0.522427 0.166323
H9    H     H_    0.715945 0.484169 0.026217 0.175174
H10   H     H_    0.284054 0.516211 0.973200 0.176762
H11   H     H_    0.279330 0.990397 0.509545 0.177452
H12   H     H_    0.512596 0.095789 0.331227 0.131121
H13   H     H_    0.707451 0.054005 0.477515 0.166006
H14   H     H_    0.517797 0.283879 0.970166 0.172039
H15   H     H_    0.481767 0.716031 0.030610 0.173478
H16   H     H_    0.938991 0.524874 0.291762 0.169105
H17   H     H_    0.014097 0.487695 0.719619 0.173562
H18   H     H_    0.768831 0.928529 0.862619 0.185595
H19   H     H_    0.773603 0.033484 0.773428 0.127538
H20   H     H_    0.864499 0.928488 0.766888 0.185781
H21   H     H_    0.293406 0.780513 0.383970 0.137653
H22   H     H_    0.390754 0.783548 0.283189 0.137601
H23   H     H_    0.081445 0.603220 0.418028 0.131885
H24   H     H_    0.285625 0.784824 0.279848 0.193201
H25   H     H_    0.216222 0.608969 0.717676 0.137468
H26   H     H_    0.215197 0.714057 0.720680 0.191182
H27   H     H_    0.219843 0.705953 0.616581 0.138298
H28   H     H_    0.071447 0.231249 0.137391 0.185603
H29   H     H_    0.966472 0.226481 0.226587 0.126869
H30   H     H_    0.071526 0.135608 0.233142 0.185874
H31   H     H_    0.613693 0.725745 0.216245 0.137950
H32   H     H_    0.720821 0.727704 0.211248 0.192455
H33   H     H_    0.709762 0.622204 0.223317 0.141844
H34   H     H_    0.875205 0.412030 0.591467 0.127733
H35   H     H_    0.273309 0.387122 0.784144 0.137804
H36   H     H_    0.271393 0.280225 0.788684 0.192490
H37   H     H_    0.377044 0.291323 0.776320 0.142041
H38   H     H_    0.592020 0.413601 0.107818 0.130236
H39   H     H_    0.407779 0.586556 0.892324 0.130128
H40   H     H_    0.397105 0.918446 0.581818 0.130364
H41   H     H_    0.587457 0.125483 0.408540 0.125800
H42   H     H_    0.516354 0.337072 0.078994 0.132841
O1    O     O_R   0.982940 0.138950 0.510160 -0.642280
O2    O     O_R   0.982940 0.510160 0.138950 -0.640251
O3    O     O_R   0.861050 0.017060 0.489840 -0.642558
O4    O     O_R   0.138950 0.982940 0.510160 -0.649866
O5    O     O_R   0.867700 0.025880 0.612340 -0.644319
O6    O     O_R   0.132300 0.974120 0.387660 -0.574766
O7    O     O_R   0.025880 0.612340 0.867700 -0.570386
O8    O     O_R   0.974120 0.387660 0.132300 -0.648124
O9    O     O_R   0.612340 0.867700 0.025880 -0.574619
O10   O     O_R   0.387660 0.132300 0.974120 -0.566744
O11   O     O_R   0.387660 0.974120 0.132300 -0.570088
O12   O     O_R   0.017060 0.861050 0.489840 -0.649789
O13   O     O_R   0.612340 0.025880 0.867700 -0.647612
O14   O     O_R   0.132300 0.387660 0.974120 -0.574514
O15   O     O_R   0.867700 0.612340 0.025880 -0.566542
O16   O     O_R   0.974120 0.132300 0.387660 -0.644559
O17   O     O_R   0.025880 0.867700 0.612340 -0.574829
O18   O     O_3   0.749189 0.933227 0.748033 -0.607540
O19   O     O_3   0.284782 0.904670 0.283907 -0.574244
O20   O     O_3   0.095326 0.715214 0.716160 -0.573723
O21   O     O_3   0.066870 0.250814 0.251949 -0.607069
O22   O     O_3   0.717569 0.717040 0.096404 -0.574667
O23   O     O_R   0.138950 0.510160 0.982940 -0.651228
O24   O     O_3   0.282742 0.282713 0.903544 -0.574714
O25   O     O_R   0.861050 0.489840 0.017060 -0.656817
O26   O     O_R   0.510160 0.982940 0.138950 -0.652702
O27   O     O_R   0.489840 0.017060 0.861050 -0.641298
O28   O     O_R   0.489840 0.861050 0.017060 -0.652265
O29   O     O_R   0.510160 0.138950 0.982940 -0.657783
O30   O     O_R   0.017060 0.489840 0.861050 -0.651763
Zn1   Zn    Zn3+2 0.004880 0.004880 0.583590 0.941944
Zn2   Zn    Zn3+2 0.995120 0.995120 0.416410 0.941788
Zn3   Zn    Zn3+2 0.004880 0.583590 0.004880 0.991777
Zn4   Zn    Zn3+2 0.995120 0.416410 0.995120 0.935435
Zn5   Zn    Zn3+2 0.583590 0.004880 0.004880 0.934231
Zn6   Zn    Zn3+2 0.416410 0.995120 0.995120 0.990232

loop_
_geom_bond_atom_site_label_1
_geom_bond_atom_site_label_2
_ccdc_geom_bond_type
C16   C28   A    
O9    Zn5   S    
C11   C18   A    
C24   H42   S    
C38   H11   S    
O16   Zn2   S    
C9    O3    A    
C34   C42   A    
C6    O10   A    
O28   Zn6   S    
O30   Zn4   S    
C26   H1    S    
O12   Zn2   S    
C19   H40   S    
O6    Zn2   S    
C18   C25   A    
C43   H17   S    
C8    O2    A    
C72   O14   A    
C2    O25   A    
C66   H25   S    
C2    C49   S    
C14   C30   A    
C70   H35   S    
C46   C59   A    
C10   C51   S    
C40   H14   S    
C35   H8    S    
C1    C31   A    
C2    O15   A    
C23   C43   A    
C20   H4    S    
C34   C35   A    
C62   O22   S    
C19   C26   A    
C50   C72   S    
C67   O1    A    
C47   C60   A    
C66   O20   S    
C37   C56   A    
C65   H24   S    
C64   O18   S    
C58   O18   S    
C23   C33   A    
C1    C11   S    
C25   H12   S    
C16   C22   A    
O7    Zn3   S    
C71   O12   A    
C31   H5    S    
O8    Zn4   S    
C15   C34   S    
C65   H21   S    
C39   C52   A    
C27   H39   S    
C12   C32   A    
C50   C63   A    
C13   C25   A    
O1    Zn1   S    
C9    C52   S    
C7    O7    A    
C35   C48   A    
C8    C55   S    
C7    O30   A    
O27   Zn6   S    
C15   C29   A    
C20   C29   A    
C69   H31   S    
C41   H15   S    
O25   Zn4   S    
C17   C24   A    
C31   C44   A    
C13   C19   A    
C17   C27   A    
C14   C20   A    
C5    C54   S    
C68   H29   S    
C44   C58   A    
C4    O27   A    
C69   H33   S    
C33   H7    S    
C57   C60   A    
C38   C51   A    
C4    C44   S    
C11   C26   A    
C40   C56   A    
C71   O17   A    
C59   O19   S    
O3    Zn2   S    
C14   C23   S    
C68   H28   S    
C30   H23   S    
C10   O4    A    
C70   H37   S    
C42   C55   A    
C1    C39   A    
O29   Zn5   S    
C36   H9    S    
C36   C45   A    
C21   H3    S    
C17   C56   S    
C47   C71   S    
C52   C58   A    
C65   H22   S    
C70   O24   S    
C69   O22   S    
C22   C27   A    
C9    O5    A    
C63   O24   S    
C37   H10   S    
C67   O16   A    
C42   H16   S    
C39   H13   S    
C6    C53   S    
C60   O20   S    
C61   O21   S    
C69   H32   S    
O10   Zn6   S    
C72   O23   A    
C41   C45   A    
C49   C62   A    
C4    O13   A    
C32   C46   A    
O23   Zn3   S    
O4    Zn1   S    
O14   Zn4   S    
C24   C28   A    
C68   H30   S    
C66   H27   S    
C16   C45   S    
O2    Zn3   S    
C3    O11   A    
O5    Zn1   S    
C54   C62   A    
C21   C30   A    
C5    O9    A    
C3    C46   S    
C64   H19   S    
C28   H38   S    
C66   H26   S    
C70   H36   S    
O13   Zn5   S    
C37   C50   A    
C53   C63   A    
C8    O8    A    
C5    O28   A    
C68   O21   S    
C33   C47   A    
C64   H18   S    
C55   C61   A    
O17   Zn1   S    
C48   C67   S    
C12   C38   A    
C29   H34   S    
C41   C54   A    
O15   Zn3   S    
C10   O6    A    
O11   Zn6   S    
C43   C57   A    
C32   H6    S    
C15   C21   A    
C51   C59   A    
C12   C13   S    
C22   H2    S    
C40   C53   A    
C48   C61   A    
C18   H41   S    
C3    O26   A    
C64   H20   S    
C6    O29   A    
O26   Zn5   S    
C7    C57   S    
C65   O19   S    
C36   C49   A    
