data_mof_unit_5395.cif
_audit_creation_date              2012-12-11T15:30:32-0500
_audit_creation_method            fapswitch 2.2
_symmetry_space_group_name_H-M    P1
_symmetry_Int_Tables_number       1
_space_group_crystal_system       triclinic
_cell_length_a                    6.961154
_cell_length_b                    20.264396
_cell_length_c                    24.567619
_cell_angle_alpha                 89.926103
_cell_angle_beta                  89.866045
_cell_angle_gamma                 88.747707
_cell_volume                      3464.75644457

loop_
_atom_site_label
_atom_site_type_symbol
_atom_type_description
_atom_site_fract_x
_atom_site_fract_y
_atom_site_fract_z
_atom_type_partial_charge
O1    O     O_R   0.507310 0.423620 0.460450 -0.532774
O2    O     O_R   0.170760 0.556060 0.437190 -0.535827
O3    O     O_R   0.004040 0.576380 0.539550 -0.540430
C1    C     C_R   0.338991 0.577037 0.421731 0.723314
O4    O     O_R   0.177350 0.422870 0.454070 -0.536340
O5    O     O_R   0.010680 0.442240 0.556560 -0.533909
C2    C     C_R   0.348457 0.398615 0.443500 0.709741
O6    O     O_R   0.500670 0.557760 0.443440 -0.534048
O7    O     O_3   0.340380 0.506510 0.533610 -0.369845
V1    V     V_3+5 0.064130 0.498790 0.493770 1.397251
O8    O     O_R   0.681170 0.443940 0.562810 -0.536671
C3    C     C_R   0.850928 0.423937 0.578678 0.733113
O9    O     O_R   0.674570 0.577130 0.545930 -0.535485
C4    C     C_R   0.839801 0.602190 0.556159 0.695341
V2    V     V_3+5 0.564560 0.501210 0.506230 1.399251
O10   O     O_3   0.838170 0.493490 0.466390 -0.363584
C5    C     C_R   0.983775 0.837861 0.909698 -0.057557
C6    C     C_R   0.830139 0.665055 0.587862 -0.092736
C7    C     C_R   0.079006 0.722932 0.900647 -0.174806
C8    C     C_R   0.042214 0.778133 0.933183 -0.178090
C9    C     C_R   0.953760 0.840430 0.853223 -0.186489
C10   C     C_R   0.960939 0.782532 0.820546 0.053635
C11   C     C_R   0.045572 0.724640 0.843791 0.080069
C12   C     C_R   0.890409 0.780790 0.765595 0.013575
C13   C     C_R   0.950107 0.726887 0.730817 0.003248
C14   C     C_R   0.060375 0.674798 0.753815 -0.190452
C15   C     C_R   0.099555 0.670718 0.809909 0.055402
C16   C     C_R   0.747937 0.826808 0.745335 0.090226
C17   C     C_R   0.701777 0.826264 0.690234 -0.229790
C18   C     C_R   0.761041 0.775079 0.656235 0.087647
C19   C     C_R   0.885077 0.724016 0.675116 0.092806
C20   C     C_R   0.674703 0.771459 0.605228 -0.180678
C21   C     C_R   0.695477 0.715407 0.572928 0.137099
C22   C     C_R   0.927123 0.670619 0.638224 -0.261252
H1    H     H_    0.023006 0.630190 0.648691 0.111582
H2    H     H_    0.600096 0.862946 0.674583 0.116232
H3    H     H_    0.135785 0.679313 0.920813 0.110694
H4    H     H_    0.071673 0.775333 0.976428 0.108218
H5    H     H_    0.940097 0.888408 0.834865 0.093425
H6    H     H_    0.109817 0.635031 0.728531 0.119731
H7    H     H_    0.573674 0.810080 0.592621 0.113338
C23   C     C_3   0.743249 0.248804 0.794469 -0.325680
C24   C     C_3   0.099276 0.253229 0.789158 -0.383875
C25   C     C_3   0.076965 0.304257 0.741972 -0.334247
H8    H     H_    0.695782 0.346309 0.758022 0.151477
H9    H     H_    0.753216 0.280070 0.831544 0.144370
H10   H     H_    0.237949 0.225399 0.784479 0.134082
H11   H     H_    0.106548 0.279916 0.828650 0.151917
H12   H     H_    0.061535 0.354713 0.759536 0.153068
H13   H     H_    0.209697 0.304104 0.716779 0.134173
C26   C     C_1   0.863598 0.378073 0.624046 -0.200154
C27   C     C_3   0.928577 0.204840 0.789630 0.258514
C28   C     C_3   0.718919 0.294478 0.744084 -0.365241
C29   C     C_3   0.897999 0.289527 0.706422 0.237972
C30   C     C_3   0.913625 0.216691 0.684399 -0.053569
C31   C     C_3   0.936454 0.167093 0.733752 -0.031142
C32   C     C_1   0.877509 0.338799 0.661374 -0.098905
C33   C     C_1   0.946806 0.158735 0.836885 -0.091757
C34   C     C_1   0.960302 0.120995 0.875288 -0.203212
H14   H     H_    0.085087 0.145899 0.731716 0.109338
H15   H     H_    0.777337 0.206920 0.662544 0.126411
H16   H     H_    0.612672 0.219734 0.800598 0.129420
H17   H     H_    0.588094 0.280800 0.721144 0.127478
C35   C     C_3   0.567486 0.693835 0.259933 -0.375473
C36   C     C_3   0.213978 0.713149 0.258765 -0.383957
C37   C     C_3   0.238682 0.753743 0.204957 0.026061
H18   H     H_    0.620715 0.716770 0.174375 0.160483
H19   H     H_    0.538481 0.644615 0.242015 0.152870
H20   H     H_    0.082403 0.730821 0.280182 0.112780
H21   H     H_    0.186194 0.660540 0.249157 0.161910
H22   H     H_    0.115340 0.789330 0.201677 0.122926
C38   C     C_1   0.475147 0.876058 0.122451 -0.198307
C39   C     C_3   0.395055 0.716216 0.296540 0.222922
C40   C     C_3   0.600190 0.744021 0.213239 -0.393500
C41   C     C_3   0.428090 0.793786 0.208507 0.166949
C42   C     C_3   0.418108 0.837069 0.261645 -0.092968
C43   C     C_3   0.427954 0.791110 0.316015 0.234588
C44   C     C_1   0.457171 0.837697 0.160127 -0.092972
C45   C     C_1   0.369395 0.666734 0.341681 -0.054839
C46   C     C_1   0.350664 0.625449 0.377622 -0.228590
H23   H     H_    0.550686 0.866857 0.259449 0.140843
H24   H     H_    0.701606 0.686958 0.283560 0.146410
H25   H     H_    0.735484 0.770878 0.220120 0.144813
C47   C     C_R   0.452162 0.164087 0.088119 -0.065205
C48   C     C_R   0.366713 0.337274 0.411223 -0.070021
C49   C     C_R   0.287932 0.270563 0.092744 -0.192774
C50   C     C_R   0.338027 0.213673 0.064307 -0.203147
C51   C     C_R   0.516936 0.172543 0.142495 0.068358
C52   C     C_R   0.426796 0.223317 0.175558 0.025293
C53   C     C_R   0.328379 0.276335 0.148626 0.091158
C54   C     C_R   0.425067 0.222654 0.233980 0.054943
C55   C     C_R   0.371798 0.280585 0.263927 0.049765
C56   C     C_R   0.298666 0.335301 0.234642 -0.225769
C57   C     C_R   0.268591 0.333122 0.178371 0.067649
C58   C     C_R   0.452073 0.163581 0.263152 -0.210903
C59   C     C_R   0.461393 0.162899 0.319568 -0.212368
C60   C     C_R   0.436761 0.221115 0.350078 0.115848
C61   C     C_R   0.384852 0.280812 0.322443 0.073535
C62   C     C_R   0.459136 0.220748 0.407747 0.091849
C63   C     C_R   0.422643 0.278893 0.437251 -0.203866
C64   C     C_R   0.349966 0.338494 0.354408 -0.225228
H26   H     H_    0.317192 0.385957 0.336547 0.098448
H27   H     H_    0.442022 0.279262 0.481041 0.103536
H28   H     H_    0.487891 0.115580 0.338724 0.133143
H29   H     H_    0.208122 0.308170 0.070676 0.126733
H30   H     H_    0.289886 0.208815 0.022594 0.119412
H31   H     H_    0.252258 0.379761 0.255094 0.120019
H32   H     H_    0.461527 0.116496 0.242472 0.125039
O11   O     O_R   0.323590 0.942280 0.056590 -0.532434
O12   O     O_R   0.647030 0.077140 0.045940 -0.535817
O13   O     O_R   0.813570 0.057750 0.943430 -0.533512
C65   C     C_R   0.475790 0.101454 0.056883 0.696045
O14   O     O_R   0.653510 0.943950 0.062820 -0.536278
O15   O     O_R   0.820100 0.923600 0.960440 -0.539101
C66   C     C_R   0.485664 0.922837 0.077813 0.729854
O16   O     O_R   0.317060 0.076430 0.039590 -0.535652
O17   O     O_3   0.483830 0.993520 0.966410 -0.369252
V3    V     V_3+5 0.760140 0.001200 0.006230 1.393810
O18   O     O_R   0.149560 0.922820 0.954030 -0.541422
C67   C     C_R   0.983097 0.898703 0.943054 0.686264
O19   O     O_R   0.143080 0.056020 0.937150 -0.537099
C68   C     C_R   0.973265 0.076054 0.921295 0.725254
V4    V     V_3+5 0.259690 0.998730 0.993720 1.388603
O20   O     O_3   0.986120 0.006480 0.033580 -0.361607
C69   C     C_3   0.203659 0.610187 0.834227 -0.356926
C70   C     C_3   0.263965 0.554898 0.794374 -0.310933
C71   C     C_3   0.364738 0.497672 0.824008 -0.783303
H33   H     H_    0.496666 0.514872 0.844468 0.229675
H34   H     H_    0.267220 0.476117 0.854813 0.226049
H35   H     H_    0.406165 0.458621 0.794265 0.213700
H36   H     H_    0.134961 0.535523 0.773704 0.191587
H37   H     H_    0.364777 0.574436 0.763418 0.196698
H38   H     H_    0.335676 0.627184 0.854890 0.174957
H39   H     H_    0.107729 0.588253 0.865312 0.171411
C72   C     C_3   0.810058 0.104769 0.728638 -0.378462
C73   C     C_3   0.592259 0.114877 0.736479 -0.283065
C74   C     C_3   0.482781 0.057190 0.712664 -0.804289
H40   H     H_    0.498263 0.056252 0.667652 0.231078
H41   H     H_    0.538235 0.009806 0.729793 0.226997
H42   H     H_    0.328003 0.062402 0.722950 0.208733
H43   H     H_    0.559089 0.116874 0.780660 0.193090
H44   H     H_    0.539885 0.160986 0.716570 0.185551
H45   H     H_    0.835745 0.082867 0.687853 0.176091
H46   H     H_    0.861478 0.066849 0.758293 0.166030
C75   C     C_3   0.079228 0.207648 0.641946 -0.381673
C76   C     C_3   0.074570 0.141191 0.612034 -0.311745
C77   C     C_3   0.216902 0.139199 0.564717 -0.790719
H47   H     H_    0.177965 0.177607 0.534115 0.230515
H48   H     H_    0.364913 0.147473 0.579707 0.224507
H49   H     H_    0.213763 0.090143 0.544697 0.219243
H50   H     H_    0.114067 0.100491 0.640406 0.192475
H51   H     H_    0.928023 0.132867 0.595945 0.190145
H52   H     H_    0.067869 0.247262 0.610782 0.192185
H53   H     H_    0.221217 0.212010 0.662051 0.174463
C78   C     C_3   0.231555 0.708755 0.153762 -0.326520
C79   C     C_3   0.027531 0.687626 0.140616 -0.827204
H54   H     H_    0.963567 0.660854 0.175432 0.231928
H55   H     H_    0.936276 0.731587 0.130605 0.227311
H56   H     H_    0.030695 0.654328 0.104749 0.225746
H57   H     H_    0.286513 0.735226 0.117521 0.184981
H58   H     H_    0.323622 0.663801 0.159458 0.187475
C80   C     C_3   0.634581 0.802777 0.340829 -0.312094
C81   C     C_3   0.718222 0.753991 0.383663 -0.290153
C82   C     C_3   0.829767 0.790389 0.427433 -0.821029
H59   H     H_    0.912447 0.830361 0.408608 0.237739
H60   H     H_    0.735263 0.815336 0.457402 0.214002
H61   H     H_    0.924971 0.754922 0.449629 0.231203
H62   H     H_    0.609406 0.724029 0.403803 0.212977
H63   H     H_    0.819984 0.718740 0.363571 0.177223
H64   H     H_    0.744911 0.804412 0.308206 0.119481
H65   H     H_    0.632172 0.853836 0.357592 0.174153
C83   C     C_3   0.556847 0.709640 0.525863 -0.385964
C84   C     C_3   0.359658 0.687465 0.545536 -0.658676
H66   H     H_    0.264654 0.679244 0.510105 0.191514
H67   H     H_    0.371428 0.641018 0.569319 0.240923
H68   H     H_    0.291554 0.726099 0.571693 0.207759
H69   H     H_    0.535576 0.758607 0.506997 0.173891
H70   H     H_    0.613234 0.676586 0.493399 0.184084
C85   C     C_3   0.271341 0.814431 0.359227 -0.331828
C86   C     C_3   0.304684 0.798171 0.419353 -0.799251
H71   H     H_    0.300858 0.744642 0.427455 0.238305
H72   H     H_    0.437337 0.820614 0.433573 0.237844
H73   H     H_    0.194805 0.822588 0.445317 0.213055
H74   H     H_    0.259002 0.868731 0.359796 0.195666
H75   H     H_    0.129249 0.796088 0.347674 0.176724
C87   C     C_3   0.250312 0.890455 0.258150 -0.363987
C88   C     C_3   0.309280 0.958336 0.279245 -0.803451
H76   H     H_    0.381003 0.955028 0.319421 0.219249
H77   H     H_    0.410921 0.980978 0.250101 0.221896
H78   H     H_    0.180393 0.991324 0.282806 0.225798
H79   H     H_    0.204518 0.899119 0.215475 0.193525
H80   H     H_    0.116883 0.874163 0.278294 0.165244
C89   C     C_3   0.173354 0.393248 0.151830 -0.360135
C90   C     C_3   0.321465 0.434999 0.121844 -0.296148
C91   C     C_3   0.227695 0.496990 0.097354 -0.792859
H81   H     H_    0.115113 0.483432 0.067651 0.228457
H82   H     H_    0.162018 0.528187 0.129895 0.232033
H83   H     H_    0.338019 0.526114 0.075925 0.217146
H84   H     H_    0.434804 0.450025 0.150874 0.194628
H85   H     H_    0.391336 0.405867 0.088729 0.194376
H86   H     H_    0.056144 0.378317 0.124195 0.164146
H87   H     H_    0.101528 0.424897 0.183127 0.171025
C92   C     C_3   0.702248 0.137051 0.159949 -0.389717
C93   C     C_3   0.876136 0.164883 0.130092 -0.668156
H88   H     H_    0.860976 0.161678 0.085298 0.230503
H89   H     H_    0.893886 0.217517 0.141279 0.216604
H90   H     H_    0.008294 0.136878 0.142143 0.208847
H91   H     H_    0.735383 0.143779 0.203485 0.190820
H92   H     H_    0.692395 0.083165 0.152606 0.170958
C94   C     C_3   0.529807 0.160452 0.439228 -0.384215
C95   C     C_3   0.746351 0.148355 0.430718 -0.288361
C96   C     C_3   0.817475 0.087349 0.461767 -0.782196
H93   H     H_    0.788959 0.093202 0.506007 0.228966
H94   H     H_    0.744407 0.042744 0.446747 0.225827
H95   H     H_    0.974699 0.080511 0.455530 0.218438
H96   H     H_    0.779896 0.141508 0.386854 0.197792
H97   H     H_    0.825621 0.191920 0.445401 0.199890
H98   H     H_    0.504480 0.167620 0.483515 0.178242
H99   H     H_    0.446495 0.116451 0.427913 0.167857
C97   C     C_3   0.613337 0.869349 0.780557 -0.348124
C98   C     C_3   0.505975 0.828641 0.823360 -0.320113
C99   C     C_3   0.441121 0.872056 0.870601 -0.665024
H100  H     H_    0.564084 0.899151 0.887383 0.233322
H101  H     H_    0.329220 0.908182 0.856821 0.213263
H102  H     H_    0.383750 0.840541 0.903431 0.220471
H103  H     H_    0.378670 0.806039 0.804271 0.198386
H104  H     H_    0.595235 0.787495 0.839977 0.207416
H105  H     H_    0.686489 0.912347 0.797617 0.156968
H106  H     H_    0.499236 0.893637 0.755466 0.154400

loop_
_geom_bond_atom_site_label_1
_geom_bond_atom_site_label_2
_ccdc_geom_bond_type
C83   H69   S    
C69   H39   S    
C92   C93   S    
C41   C42   S    
C13   C19   A    
C70   C71   S    
O16   V4    S    
C57   C89   S    
C15   C69   S    
C4    C6    S    
O2    C1    A    
C7    C8    A    
C47   C50   A    
C40   H25   S    
C1    O6    A    
O12   V3    S    
C60   C61   A    
C55   C61   A    
V4    O20   S    
C28   C29   S    
C78   H58   S    
C74   H41   S    
C17   H2    S    
C14   C15   A    
C47   C65   S    
C97   H106  S    
O13   V3    S    
C35   H19   S    
C16   C17   A    
C77   H48   S    
C83   C84   S    
C76   C77   S    
C23   C28   S    
O5    C3    A    
C37   C78   S    
C24   C27   S    
C30   C75   S    
C83   H70   S    
V2    O10   S    
C5    C8    A    
C89   H86   S    
C97   H105  S    
C22   H1    S    
C23   H9    S    
C87   H79   S    
C88   H78   S    
C73   H44   S    
C7    H3    S    
C5    C67   S    
O8    V2    S    
C79   H55   S    
C90   H85   S    
C80   H65   S    
C77   H47   S    
C80   H64   S    
C38   C44   T    
C35   C39   S    
C96   H95   S    
C12   C13   A    
C26   C32   T    
C11   C15   A    
C52   C54   A    
C24   H11   S    
C23   H16   S    
C86   H73   S    
C91   H83   S    
C75   H52   S    
C51   C52   A    
C34   C68   S    
C72   H45   S    
C90   C91   S    
C74   H40   S    
H8    C28   S    
C16   C97   S    
O9    C4    A    
O13   C68   A    
C87   H80   S    
C82   H61   S    
C41   C44   S    
C97   C98   S    
C60   C62   A    
C86   H72   S    
C53   C57   A    
C84   H67   S    
C95   H97   S    
C74   H42   S    
O19   V4    S    
C40   C41   S    
C64   H26   S    
C12   C16   A    
C72   C73   S    
C77   H49   S    
C42   C43   S    
C49   C53   A    
C36   C39   S    
C52   C53   A    
C54   C55   A    
O4    C2    A    
C49   C50   A    
O11   V4    S    
C42   C87   S    
V3    O20   S    
C99   H102  S    
C13   C14   A    
C84   H66   S    
C98   H103  S    
C25   H12   S    
C5    C9    A    
C89   H87   S    
C91   H81   S    
C76   H50   S    
C79   H54   S    
C36   H21   S    
C7    C11   A    
C24   C25   S    
C71   H34   S    
C37   H22   S    
C17   C18   A    
C25   C29   S    
C98   C99   S    
C8    H4    S    
C95   C96   S    
C9    H5    S    
C93   H90   S    
C70   H37   S    
C18   C19   A    
C20   H7    S    
C59   C60   A    
C30   C31   S    
C39   C45   S    
C19   C22   A    
C56   C57   A    
C43   C85   S    
C93   H88   S    
O18   C67   A    
C99   H101  S    
C6    C22   A    
C35   H24   S    
O19   C68   A    
O15   V3    S    
O3    C4    A    
C27   C33   S    
O1    V2    S    
C75   H53   S    
C72   H46   S    
C96   H94   S    
C89   C90   S    
O6    V2    S    
C59   H28   S    
C69   C70   S    
C76   H51   S    
C45   C46   T    
C49   H29   S    
C71   H33   S    
O2    V1    S    
C75   C76   S    
C65   O16   A    
C3    C26   S    
C48   C64   A    
C86   H71   S    
C85   H74   S    
O7    V1    S    
C84   H68   S    
C69   H38   S    
C43   C80   S    
O15   C67   A    
C29   C30   S    
C82   H59   S    
C39   C43   S    
C94   H99   S    
C78   H57   S    
O1    C2    A    
C79   H56   S    
C47   C51   A    
C93   H89   S    
C73   C74   S    
C42   H23   S    
O5    V1    S    
O8    C3    A    
C1    C46   S    
C85   H75   S    
O18   V4    S    
C85   C86   S    
C80   C81   S    
C61   C64   A    
C92   H91   S    
C98   H104  S    
C94   H98   S    
C62   C63   A    
C20   C21   A    
O9    V2    S    
C81   H62   S    
C33   C34   T    
C71   H35   S    
O4    V1    S    
C36   C37   S    
O3    V1    S    
V1    O10   S    
O17   V3    S    
C56   H31   S    
H18   C40   S    
C18   C20   A    
C28   H17   S    
C14   H6    S    
C2    C48   S    
C50   H30   S    
C70   H36   S    
C36   H20   S    
C37   C41   S    
C30   H15   S    
C82   H60   S    
C55   C56   A    
C73   H43   S    
C95   H96   S    
C10   C12   A    
C63   H27   S    
C51   C92   S    
O17   V4    S    
C99   H100  S    
C81   H63   S    
C6    C21   A    
O12   C65   A    
C31   C72   S    
C88   H77   S    
C81   C82   S    
C58   H32   S    
O11   C66   A    
C54   C58   A    
O14   V3    S    
C90   H84   S    
C31   H14   S    
C88   H76   S    
C96   H93   S    
C25   H13   S    
C94   C95   S    
C23   C27   S    
C78   C79   S    
C48   C63   A    
C35   C40   S    
C10   C11   A    
C92   H92   S    
C91   H82   S    
C87   C88   S    
C9    C10   A    
C21   C83   S    
C24   H10   S    
C62   C94   S    
C58   C59   A    
C27   C31   S    
O7    V2    S    
C38   C66   S    
O14   C66   A    
C29   C32   S    
