data_mof_unit_17756.cif
_audit_creation_date              2012-12-11T15:35:39-0500
_audit_creation_method            fapswitch 2.2
_symmetry_space_group_name_H-M    P1
_symmetry_Int_Tables_number       1
_space_group_crystal_system       triclinic
_cell_length_a                    17.545436
_cell_length_b                    24.602539
_cell_length_c                    14.868771
_cell_angle_alpha                 90.28213
_cell_angle_beta                  125.05366
_cell_angle_gamma                 89.679114
_cell_volume                      5254.00941534

loop_
_atom_site_label
_atom_site_type_symbol
_atom_type_description
_atom_site_fract_x
_atom_site_fract_y
_atom_site_fract_z
_atom_type_partial_charge
C1    C     C_R   0.319443 0.134451 0.909833 -0.009528
C2    C     C_R   0.321422 0.864079 0.909055 -0.003097
C3    C     C_R   0.818414 0.633563 0.910182 -0.033969
C4    C     C_R   0.824813 0.361522 0.908453 -0.030197
C5    C     C_R   0.644005 0.151656 0.091150 0.421366
C6    C     C_R   0.644752 0.848318 0.091117 0.437713
C7    C     C_R   0.144713 0.651539 0.091105 0.425427
C8    C     C_R   0.144950 0.348351 0.091232 0.434092
C9    C     C_R   0.554822 0.847365 0.909393 0.404232
C10   C     C_R   0.554327 0.152328 0.909095 0.403896
C11   C     C_R   0.054977 0.347379 0.909550 0.407278
C12   C     C_R   0.054532 0.652257 0.908958 0.408058
C13   C     C_R   0.557258 0.999594 0.735184 -0.061586
C14   C     C_R   0.056561 0.499562 0.734105 -0.059809
C15   C     C_R   0.799815 0.000834 0.366888 0.114428
C16   C     C_R   0.299815 0.501034 0.366952 0.106159
C17   C     C_R   0.614421 0.182671 0.000632 -0.216706
C18   C     C_R   0.613614 0.816842 0.000464 -0.238265
C19   C     C_R   0.115004 0.682468 0.000415 -0.227919
C20   C     C_R   0.113581 0.316850 0.000576 -0.236780
C21   C     C_3   0.026947 0.955757 0.644223 -0.390769
C22   C     C_3   0.030318 0.059620 0.614456 -0.430930
C23   C     C_3   0.524781 0.459144 0.648730 -0.410303
C24   C     C_3   0.531436 0.561565 0.610880 -0.423614
C25   C     C_3   0.923052 0.950898 0.543857 0.350072
C26   C     C_3   0.922996 0.057372 0.529835 0.371140
C27   C     C_3   0.420995 0.454028 0.548836 0.375710
C28   C     C_3   0.424101 0.559650 0.525285 0.390425
C29   C     C_3   0.057023 0.991232 0.507575 -0.374691
C30   C     C_3   0.557166 0.488519 0.510844 -0.347435
C31   C     C_3   0.074120 0.002325 0.620480 0.108086
C32   C     C_3   0.573799 0.503147 0.622279 0.085041
C33   C     C_3   0.895756 0.001554 0.465689 -0.020738
C34   C     C_3   0.395482 0.502320 0.466419 -0.046914
C35   C     C_R   0.414582 0.864714 0.094692 -0.057563
C36   C     C_R   0.411703 0.132974 0.095099 -0.056467
C37   C     C_R   0.917598 0.361953 0.094217 -0.054576
C38   C     C_R   0.911193 0.632180 0.095383 -0.050380
C39   C     C_3   0.954113 0.997069 0.416665 -0.579052
C40   C     C_3   0.454453 0.493719 0.418942 -0.577932
C41   C     C_R   0.181209 0.814510 0.948333 -0.196146
C42   C     C_R   0.308296 0.244324 0.029483 -0.101872
C43   C     C_R   0.685181 0.311273 0.943305 -0.191116
C44   C     C_R   0.810495 0.742334 0.038508 -0.097890
C45   C     C_R   0.629290 0.273103 0.945212 0.011248
C46   C     C_R   0.756548 0.783714 0.035078 -0.163503
C47   C     C_R   0.126692 0.774726 0.948836 0.005912
C48   C     C_R   0.253991 0.285370 0.026466 -0.172104
C49   C     C_R   0.670003 0.225365 0.003858 0.158915
C50   C     C_R   0.666056 0.772507 0.002194 0.186340
C51   C     C_R   0.168748 0.726252 0.003436 0.172308
C52   C     C_R   0.166355 0.272992 0.001754 0.197181
C53   C     C_R   0.766190 0.216178 0.063559 -0.120453
C54   C     C_R   0.628692 0.720333 0.973597 0.076158
C55   C     C_R   0.264806 0.717777 0.060591 -0.120056
C56   C     C_R   0.132040 0.220129 0.980697 0.061266
C57   C     C_R   0.319292 0.758021 0.062926 -0.125603
C58   C     C_R   0.186624 0.178783 0.983091 -0.142375
C59   C     C_R   0.822096 0.255109 0.064919 -0.125434
C60   C     C_R   0.682799 0.678704 0.975823 -0.165290
C61   C     C_R   0.276838 0.805719 0.005621 0.109675
C62   C     C_R   0.273803 0.191640 0.007016 0.113301
C63   C     C_R   0.780855 0.301943 0.003669 0.105710
C64   C     C_R   0.772844 0.690450 0.007923 0.102420
C65   C     C_R   0.601936 0.950067 0.627774 -0.115849
C66   C     C_R   0.605253 0.048384 0.630941 -0.130730
C67   C     C_R   0.104398 0.450121 0.629220 -0.144528
C68   C     C_R   0.106068 0.548442 0.631263 -0.125266
C69   C     C_R   0.590563 0.950196 0.527870 -0.061076
C70   C     C_R   0.594539 0.048644 0.531259 -0.044112
C71   C     C_R   0.096164 0.450181 0.530993 -0.048483
C72   C     C_R   0.097862 0.548612 0.533027 -0.044238
C73   C     C_R   0.578967 0.999633 0.474635 0.167471
C74   C     C_R   0.084390 0.499518 0.477416 0.169946
C75   C     C_R   0.537665 0.045106 0.299014 -0.046330
C76   C     C_R   0.538347 0.954753 0.298794 -0.064414
C77   C     C_R   0.040166 0.544991 0.300434 -0.057249
C78   C     C_R   0.039501 0.454699 0.299425 -0.047916
C79   C     C_R   0.597436 0.999262 0.672299 0.113944
C80   C     C_R   0.097769 0.499310 0.672195 0.118947
C81   C     C_R   0.230259 0.954854 0.731087 -0.022506
C82   C     C_R   0.231521 0.046536 0.730160 -0.145078
C83   C     C_R   0.729873 0.455019 0.734413 -0.048035
C84   C     C_R   0.731712 0.546612 0.730827 -0.145144
C85   C     C_R   0.328561 0.150834 0.004155 -0.034624
C86   C     C_R   0.332940 0.845494 0.003293 0.004737
C87   C     C_R   0.827508 0.649617 0.004704 -0.032915
C88   C     C_R   0.838000 0.341159 0.002313 0.005424
C89   C     C_R   0.547777 0.999892 0.360035 0.012879
C90   C     C_R   0.051543 0.499771 0.362088 0.010614
C91   C     C_R   0.175467 0.001384 0.698482 0.055493
C92   C     C_R   0.675277 0.501739 0.701133 0.027814
C93   C     C_R   0.524151 0.044952 0.758141 -0.055498
C94   C     C_R   0.524200 0.954591 0.758164 -0.049644
C95   C     C_R   0.023851 0.544922 0.757660 -0.055001
C96   C     C_R   0.023565 0.454564 0.757239 -0.050643
C97   C     C_R   0.755298 0.955242 0.304477 -0.067608
C98   C     C_R   0.754503 0.045653 0.302833 -0.058548
C99   C     C_R   0.256092 0.455350 0.304093 -0.039097
C100  C     C_R   0.253827 0.545733 0.303205 -0.068387
H1    H     H_    0.269280 0.149053 0.827764 0.163265
H2    H     H_    0.270639 0.850467 0.826208 0.121327
H3    H     H_    0.767116 0.647852 0.828178 0.140746
H4    H     H_    0.775246 0.347793 0.825291 0.127165
H5    H     H_    0.923666 0.916024 0.496152 0.103398
H6    H     H_    0.908684 0.089989 0.470604 0.087256
H7    H     H_    0.419047 0.416840 0.504480 0.097072
H8    H     H_    0.411777 0.589730 0.462644 0.088933
H9    H     H_    0.080580 0.949434 0.505117 0.182524
H10   H     H_    0.097027 0.020046 0.491986 0.192903
H11   H     H_    0.580529 0.446110 0.512380 0.180951
H12   H     H_    0.597631 0.515685 0.493082 0.191294
H13   H     H_    0.932670 0.961459 0.360437 0.204832
H14   H     H_    0.943401 0.033754 0.366868 0.201927
H15   H     H_    0.433111 0.456408 0.367071 0.204008
H16   H     H_    0.444294 0.528382 0.365002 0.201792
H17   H     H_    0.149416 0.851846 0.904304 0.198191
H18   H     H_    0.376093 0.253485 0.047305 0.162637
H19   H     H_    0.654526 0.347951 0.895973 0.200927
H20   H     H_    0.880454 0.750748 0.062458 0.160745
H21   H     H_    0.555502 0.280751 0.901050 0.199548
H22   H     H_    0.784735 0.824520 0.057208 0.124618
H23   H     H_    0.052953 0.781759 0.907006 0.196877
H24   H     H_    0.279658 0.326767 0.042771 0.123701
H25   H     H_    0.797692 0.178567 0.107590 0.129369
H26   H     H_    0.559185 0.712022 0.950751 0.169480
H27   H     H_    0.297225 0.679730 0.101899 0.127999
H28   H     H_    0.064484 0.211168 0.963429 0.160954
H29   H     H_    0.393614 0.751435 0.106077 0.151754
H30   H     H_    0.161532 0.137298 0.966373 0.138804
H31   H     H_    0.896532 0.248180 0.110575 0.151094
H32   H     H_    0.655276 0.637830 0.953134 0.142487
H33   H     H_    0.602927 0.911239 0.662101 0.135252
H34   H     H_    0.608780 0.087068 0.667917 0.131527
H35   H     H_    0.104843 0.411324 0.663297 0.136872
H36   H     H_    0.107930 0.587177 0.667064 0.131912
H37   H     H_    0.445980 0.854636 0.179837 0.130173
H38   H     H_    0.442400 0.142959 0.180206 0.131380
H39   H     H_    0.949490 0.351506 0.179320 0.132084
H40   H     H_    0.941879 0.641899 0.180610 0.128022
H41   H     H_    0.584839 0.911375 0.490301 0.113653
H42   H     H_    0.591923 0.087538 0.496219 0.125635
H43   H     H_    0.091696 0.411355 0.494090 0.134722
H44   H     H_    0.094886 0.587508 0.497756 0.121193
H45   H     H_    0.551850 0.086704 0.326661 0.137097
H46   H     H_    0.554355 0.913135 0.326102 0.136177
H47   H     H_    0.055412 0.586520 0.328410 0.136683
H48   H     H_    0.054257 0.412908 0.325808 0.150568
H49   H     H_    0.207660 0.913698 0.704935 0.093450
H50   H     H_    0.211345 0.087807 0.702901 0.140579
H51   H     H_    0.706437 0.413800 0.710444 0.097021
H52   H     H_    0.712009 0.587782 0.702518 0.121193
H53   H     H_    0.537002 0.086823 0.750658 0.150168
H54   H     H_    0.537209 0.912638 0.750863 0.155961
H55   H     H_    0.037078 0.586773 0.750615 0.149471
H56   H     H_    0.036347 0.412624 0.749583 0.157230
H57   H     H_    0.773801 0.913963 0.330689 0.219374
H58   H     H_    0.769270 0.087312 0.326754 0.205673
H59   H     H_    0.275822 0.414085 0.330281 0.205324
H60   H     H_    0.266944 0.587273 0.328272 0.213622
H61   H     H_    0.059499 0.916163 0.647699 0.147797
H62   H     H_    0.055305 0.087717 0.577842 0.167089
H63   H     H_    0.557185 0.418861 0.656272 0.161633
H64   H     H_    0.558091 0.587503 0.573275 0.149986
N1    N     N_R   0.392140 0.102630 0.941800 -0.052862
N2    N     N_R   0.392140 0.897370 0.941800 -0.050976
N3    N     N_R   0.892140 0.602630 0.941800 -0.047419
N4    N     N_R   0.892140 0.397370 0.941800 -0.050023
N5    N     N_R   0.450890 0.896450 0.057150 -0.050018
N6    N     N_R   0.450890 0.103550 0.057150 -0.041570
N7    N     N_R   0.950890 0.396450 0.057150 -0.053052
N8    N     N_R   0.950890 0.603550 0.057150 -0.040741
N9    N     N_R   0.525160 0.027960 0.206160 -0.047394
N10   N     N_R   0.525160 0.972040 0.206160 -0.050276
N11   N     N_R   0.025160 0.527960 0.206160 -0.049065
N12   N     N_R   0.025160 0.472040 0.206160 -0.053734
N13   N     N_R   0.317870 0.971120 0.792790 -0.042096
N14   N     N_R   0.317870 0.028880 0.792790 -0.041799
N15   N     N_R   0.817870 0.471120 0.792790 -0.037897
N16   N     N_R   0.817870 0.528880 0.792790 -0.038197
N17   N     N_R   0.473480 0.027920 0.793480 -0.035312
N18   N     N_R   0.473480 0.972080 0.793480 -0.030022
N19   N     N_R   0.973480 0.527920 0.793480 -0.035204
N20   N     N_R   0.973480 0.472080 0.793480 -0.030116
N21   N     N_R   0.681610 0.971120 0.207570 -0.066290
N22   N     N_R   0.681610 0.028880 0.207570 -0.062516
N23   N     N_R   0.181610 0.471120 0.207570 -0.066471
N24   N     N_R   0.181610 0.528880 0.207570 -0.063629
N25   N     N_R   0.605410 0.102620 0.056870 -0.138621
N26   N     N_R   0.605410 0.897380 0.056870 -0.143772
N27   N     N_R   0.105410 0.602620 0.056870 -0.137731
N28   N     N_R   0.105410 0.397380 0.056870 -0.144881
N29   N     N_R   0.549680 0.896430 0.944180 -0.140738
N30   N     N_R   0.549680 0.103570 0.944180 -0.142765
N31   N     N_R   0.049680 0.396430 0.944180 -0.140825
N32   N     N_R   0.049680 0.603570 0.944180 -0.142729
Ni1   Ni    Ni4+2 0.433410 0.064680 0.868830 0.315049
Ni2   Ni    Ni4+2 0.433410 0.935320 0.868830 0.300967
Ni3   Ni    Ni4+2 0.933410 0.564680 0.868830 0.314904
Ni4   Ni    Ni4+2 0.933410 0.435320 0.868830 0.298778
Ni5   Ni    Ni4+2 0.565650 0.934380 0.131170 0.298798
Ni6   Ni    Ni4+2 0.565650 0.065620 0.131170 0.295116
Ni7   Ni    Ni4+2 0.065650 0.434380 0.131170 0.300784
Ni8   Ni    Ni4+2 0.065650 0.565620 0.131170 0.291197
C101  C     C_2   0.045656 0.962132 0.756314 0.599715
H65   H     H_    0.997144 0.982425 0.767415 0.129059
O1    O     O_2   0.119638 0.947027 0.838125 -0.631912
C102  C     C_2   0.062619 0.085878 0.723544 0.693313
H66   H     H_    0.060862 0.064809 0.785738 0.002176
O2    O     O_2   0.089724 0.132852 0.741834 -0.570674
C103  C     C_2   0.539394 0.469289 0.757964 0.672048
H67   H     H_    0.501648 0.500907 0.767267 0.093520
O3    O     O_2   0.595042 0.442024 0.838050 -0.614599
C104  C     C_2   0.565325 0.590725 0.717720 0.680376
H68   H     H_    0.603832 0.569510 0.795561 -0.061647
O4    O     O_2   0.552696 0.639590 0.717726 -0.503133
S1    S     S_3+6 0.838379 0.926136 0.567853 -0.020050
O5    O     O_2   0.878438 0.915190 0.686440 -0.285861
O6    O     O_2   0.759267 0.965492 0.523495 -0.249665
O7    O     O_3   0.795849 0.866985 0.499978 -0.481702
H69   H     H_    0.743287 0.858242 0.504872 0.381009
S2    S     S_3+6 0.853854 0.079512 0.579131 -0.017288
O8    O     O_2   0.751740 0.075966 0.489500 -0.295261
O9    O     O_2   0.874357 0.046897 0.675664 -0.288444
O10   O     O_3   0.879119 0.145044 0.617480 -0.464034
H70   H     H_    0.840043 0.155120 0.643424 0.385522
S3    S     S_3+6 0.340533 0.434875 0.583067 -0.014618
O11   O     O_2   0.332292 0.476744 0.650639 -0.234704
O12   O     O_2   0.245618 0.423904 0.480990 -0.296321
O13   O     O_3   0.380905 0.376987 0.656069 -0.511086
H71   H     H_    0.333648 0.366691 0.669343 0.375375
S4    S     S_3+6 0.352382 0.587090 0.567429 0.006127
O14   O     O_2   0.256689 0.562818 0.500597 -0.293896
O15   O     O_2   0.394076 0.578285 0.687094 -0.268268
O16   O     O_3   0.342338 0.654430 0.544118 -0.447304
H72   H     H_    0.299995 0.667413 0.563587 0.378561
S5    S     S_3+6 0.680031 0.182126 0.217433 -0.041079
O17   O     O_2   0.784591 0.182867 0.292075 -0.302143
O18   O     O_2   0.644743 0.239702 0.197067 -0.260187
O19   O     O_3   0.637511 0.148280 0.277134 -0.576986
H73   H     H_    0.660666 0.168330 0.346204 0.392097
S6    S     S_3+6 0.680502 0.818744 0.217285 -0.047161
O20   O     O_2   0.785047 0.817410 0.291875 -0.285389
O21   O     O_2   0.642396 0.850490 0.269727 -0.339238
O22   O     O_3   0.640424 0.754682 0.195203 -0.537229
H74   H     H_    0.663430 0.740511 0.268968 0.385818
S7    S     S_3+6 0.181402 0.682157 0.217491 -0.040259
O23   O     O_2   0.285956 0.681710 0.292449 -0.290716
O24   O     O_2   0.148065 0.740142 0.197565 -0.264372
O25   O     O_3   0.137248 0.649246 0.276337 -0.582276
H75   H     H_    0.158029 0.670374 0.343565 0.383521
S8    S     S_3+6 0.182250 0.318929 0.218186 -0.049081
O26   O     O_2   0.286838 0.317205 0.290895 -0.300113
O27   O     O_2   0.146217 0.350874 0.272751 -0.319916
O28   O     O_3   0.141608 0.255029 0.196808 -0.541473
H76   H     H_    0.166329 0.240701 0.270970 0.386693
S9    S     S_3+6 0.466145 0.819321 0.781454 -0.041298
O29   O     O_2   0.507496 0.801145 0.721450 -0.258960
O30   O     O_2   0.424480 0.771149 0.799918 -0.282550
O31   O     O_3   0.381722 0.865382 0.705498 -0.575029
H77   H     H_    0.334611 0.845950 0.637053 0.378831
S10   S     S_3+6 0.461089 0.180360 0.783850 -0.059744
O32   O     O_2   0.498185 0.205658 0.724518 -0.289582
O33   O     O_2   0.391153 0.137380 0.712545 -0.313406
O34   O     O_3   0.407755 0.228187 0.810575 -0.551563
H78   H     H_    0.360119 0.244306 0.738204 0.386389
S11   S     S_3+6 0.966929 0.319202 0.781527 -0.041155
O35   O     O_2   0.008167 0.303187 0.720276 -0.262683
O36   O     O_2   0.927988 0.269572 0.799849 -0.289269
O37   O     O_3   0.880510 0.364412 0.707176 -0.572641
H79   H     H_    0.833617 0.344892 0.638744 0.379782
S12   S     S_3+6 0.961453 0.680504 0.783864 -0.057504
O38   O     O_2   0.998919 0.706891 0.725866 -0.288420
O39   O     O_2   0.892211 0.637507 0.711261 -0.313386
O40   O     O_3   0.906974 0.727411 0.810769 -0.545842
H80   H     H_    0.858690 0.743268 0.738397 0.390394

loop_
_geom_bond_atom_site_label_1
_geom_bond_atom_site_label_2
_ccdc_geom_bond_type
C68   C80   A    
C38   C87   A    
C13   C79   S    
C58   C62   A    
C65   C79   A    
C99   H59   S    
C63   C88   S    
C75   N9    A    
C37   C88   A    
C25   S1    S    
O40   H80   S    
N18   Ni2   S    
C41   C61   A    
N17   Ni1   S    
C60   H32   S    
S10   O34   S    
C99   N23   A    
C53   C59   A    
C43   C63   A    
C6    N26   A    
N25   Ni6   S    
C32   C92   S    
C101  H65   S    
C44   C64   A    
S1    O7    S    
C97   N21   A    
C83   C92   A    
C54   H26   S    
C59   H31   S    
C50   C54   A    
C5    S5    S    
C3    C87   A    
C34   C40   S    
C29   H9    S    
C100  N24   A    
C28   H8    S    
N11   Ni8   S    
C48   C52   A    
C9    S9    S    
C10   N30   A    
C22   H62   S    
C35   C86   A    
C9    N29   A    
C40   H15   S    
C5    C17   A    
N15   Ni4   S    
C44   H20   S    
C10   C17   A    
C69   H41   S    
N29   Ni2   S    
C27   S3    S    
C23   H63   S    
N23   Ni7   S    
N22   Ni6   S    
N8    Ni8   S    
S9    O29   D    
C57   H29   S    
C21   C101  S    
C57   C61   A    
C84   N16   A    
N27   N32   A    
S4    O14   D    
C56   H28   S    
N26   N29   A    
C16   C34   S    
C66   H34   S    
C93   N17   A    
N25   N30   A    
C33   C39   S    
N4    N7    A    
C12   S12   S    
S3    O11   D    
C94   N18   A    
C102  H66   S    
C39   H13   S    
C31   C91   S    
C26   S2    S    
S6    O21   D    
O16   H72   S    
C69   C73   A    
C23   C27   S    
O34   H78   S    
C2    N2    A    
C64   C87   S    
C51   C55   A    
C98   N22   A    
C94   H54   S    
C42   C62   A    
C95   H55   S    
C101  O1    D    
C38   H40   S    
C76   H46   S    
C77   N11   A    
O22   H74   S    
C78   N12   A    
C12   N32   A    
N12   Ni7   S    
C7    N27   A    
C82   N14   A    
C24   H64   S    
C24   C104  S    
C15   C97   A    
N32   Ni3   S    
C28   S4    S    
C14   C96   A    
O7    H69   S    
C44   C46   A    
C46   C50   A    
S6    O20   D    
C83   H51   S    
C49   C53   A    
S7    O24   D    
C27   C34   S    
C1    C85   A    
C77   H47   S    
C6    C18   A    
C62   C85   S    
C11   C20   A    
C70   H42   S    
S6    O22   S    
C21   H61   S    
C22   C31   S    
C3    N3    A    
N28   N31   A    
C98   H58   S    
C29   H10   S    
C68   H36   S    
C72   C74   A    
C25   H5    S    
C17   C49   S    
O37   H79   S    
C104  H68   S    
C42   H18   S    
S10   O33   D    
S2    O10   S    
N20   Ni4   S    
S1    O5    D    
N9    N10   A    
N5    Ni5   S    
C93   H53   S    
N24   Ni8   S    
S4    O16   S    
C78   C90   A    
C82   C91   A    
C4    N4    A    
C13   C93   A    
N9    Ni6   S    
S9    O30   D    
C97   H57   S    
N17   N18   A    
C42   C48   A    
C67   H35   S    
N19   N20   A    
C24   C32   S    
C103  H67   S    
C37   N7    A    
C66   C79   A    
C7    S7    S    
N1    Ni1   S    
C26   H6    S    
C21   C31   S    
C100  H60   S    
C26   C33   S    
C47   H23   S    
N11   N12   A    
C27   H7    S    
C68   C72   A    
C39   H14   S    
S10   O32   D    
C29   C39   S    
C70   C73   A    
S4    O15   D    
O10   H70   S    
C41   C47   A    
C30   C40   S    
N2    Ni2   S    
N26   Ni5   S    
C8    C20   A    
C22   C102  S    
C81   C91   A    
S2    O9    D    
C43   C45   A    
C82   H50   S    
C53   H25   S    
S8    O28   S    
C84   H52   S    
C102  O2    D    
C103  O3    D    
N14   Ni1   S    
C55   H27   S    
C7    C19   A    
C14   C80   S    
S5    O18   D    
C37   H39   S    
C35   N5    A    
C30   H11   S    
N27   Ni8   S    
C96   H56   S    
C15   C98   A    
O28   H76   S    
C1    H1    S    
C14   C95   A    
S12   O38   D    
C18   C50   S    
S8    O27   D    
N31   Ni4   S    
S7    O25   S    
C3    H3    S    
N1    N6    A    
C72   H44   S    
C75   H45   S    
C21   C25   S    
C8    S8    S    
C11   S11   S    
N4    Ni4   S    
S3    O12   D    
C1    N1    A    
C96   N20   A    
C59   C63   A    
N3    Ni3   S    
C16   C100  A    
C67   C80   A    
C24   C28   S    
C81   H49   S    
C11   N31   A    
O31   H77   S    
C48   H24   S    
C71   C74   A    
C47   C51   A    
S11   O35   D    
C16   C99   A    
C38   N8    A    
N3    N8    A    
C4    C88   A    
C78   H48   S    
C36   C85   A    
S1    O6    D    
C60   C64   A    
C20   C52   S    
C76   C89   A    
C36   N6    A    
C83   N15   A    
C13   C94   A    
C54   C60   A    
S9    O31   S    
C45   H21   S    
C23   C32   S    
C74   C90   S    
C55   C57   A    
O25   H75   S    
C104  O4    D    
C81   N13   A    
N23   N24   A    
C29   C31   S    
N16   Ni3   S    
C35   H37   S    
C30   C32   S    
S11   O36   D    
C95   N19   A    
N21   N22   A    
C40   H16   S    
C71   H43   S    
C23   C103  S    
C58   H30   S    
S12   O40   S    
C65   C69   A    
C4    H4    S    
C12   C19   A    
C76   N10   A    
O19   H73   S    
S11   O37   S    
N28   Ni7   S    
C56   C58   A    
C45   C49   A    
C2    C86   A    
C19   C51   S    
C67   C71   A    
N10   Ni5   S    
N7    Ni7   S    
O13   H71   S    
C8    N28   A    
N19   Ni3   S    
N6    Ni6   S    
C46   H22   S    
C25   C33   S    
C61   C86   S    
C75   C89   A    
C28   C34   S    
N15   N16   A    
N30   Ni1   S    
C10   S10   S    
C9    C18   A    
C73   C89   S    
S3    O13   S    
C66   C70   A    
N2    N5    A    
S12   O39   D    
N13   N14   A    
C22   C26   S    
S5    O19   S    
C30   H12   S    
C77   C90   A    
C2    H2    S    
C5    N25   A    
N21   Ni5   S    
C6    S6    S    
C84   C92   A    
C41   H17   S    
S5    O17   D    
C36   H38   S    
S2    O8    D    
C15   C33   S    
C65   H33   S    
N13   Ni2   S    
C52   C56   A    
S7    O23   D    
C43   H19   S    
S8    O26   D    
