data_mof_unit_35676.cif
_audit_creation_date              2012-12-11T16:32:28-0500
_audit_creation_method            fapswitch 2.2
_symmetry_space_group_name_H-M    P1
_symmetry_Int_Tables_number       1
_space_group_crystal_system       triclinic
_cell_length_a                    6.935969
_cell_length_b                    14.493885
_cell_length_c                    15.850892
_cell_angle_alpha                 89.973089
_cell_angle_beta                  89.775634
_cell_angle_gamma                 90.21712
_cell_volume                      1593.45264857

loop_
_atom_site_label
_atom_site_type_symbol
_atom_type_description
_atom_site_fract_x
_atom_site_fract_y
_atom_site_fract_z
_atom_type_partial_charge
O1    O     O_R   0.361630 0.167340 0.164570 -0.539347
O2    O     O_R   0.638370 0.832660 0.835430 -0.539347
O3    O     O_R   0.690860 0.157560 0.338690 -0.543241
O4    O     O_R   0.309140 0.842440 0.661310 -0.543241
O5    O     O_R   0.861260 0.336420 0.339380 -0.540896
O6    O     O_R   0.138740 0.663580 0.660620 -0.540897
C1    C     C_R   0.521377 0.134702 0.368040 0.690558
C2    C     C_R   0.478623 0.865298 0.631960 0.690558
O7    O     O_R   0.691330 0.156310 0.165190 -0.542900
O8    O     O_R   0.308670 0.843690 0.834810 -0.542901
O9    O     O_R   0.861730 0.335160 0.164640 -0.536576
O10   O     O_R   0.138270 0.664840 0.835360 -0.536576
C3    C     C_R   0.522489 0.134127 0.136421 0.690101
C4    C     C_R   0.477510 0.865873 0.863579 0.690101
O11   O     O_R   0.361150 0.168600 0.339320 -0.523931
O12   O     O_R   0.638850 0.831400 0.660680 -0.523931
O13   O     O_3   0.527950 0.310560 0.252000 -0.364682
O14   O     O_3   0.472050 0.689440 0.748000 -0.364682
V1    V     V_3+5 0.802770 0.240990 0.251980 1.432705
V2    V     V_3+5 0.197230 0.759010 0.748020 1.432706
O15   O     O_R   0.191450 0.346190 0.165260 -0.544266
O16   O     O_R   0.808550 0.653810 0.834740 -0.544266
C5    C     C_R   0.023009 0.367862 0.136509 0.692935
C6    C     C_R   0.976991 0.632138 0.863491 0.692935
O17   O     O_R   0.190980 0.347440 0.338770 -0.528324
O18   O     O_R   0.809020 0.652560 0.661230 -0.528324
C7    C     C_R   0.022159 0.368712 0.368188 0.746710
C8    C     C_R   0.977841 0.631288 0.631811 0.746711
V3    V     V_3+5 0.302780 0.262760 0.251980 1.454638
V4    V     V_3+5 0.697220 0.737240 0.748020 1.454638
O19   O     O_3   0.027730 0.193200 0.251960 -0.371183
O20   O     O_3   0.972270 0.806800 0.748040 -0.371183
C9    C     C_3   0.821277 0.472187 0.478488 -0.166042
C10   C     C_3   0.178723 0.527813 0.521512 -0.166042
C11   C     C_3   0.911422 0.462535 0.567770 -0.207666
C12   C     C_3   0.088578 0.537464 0.432229 -0.207666
H1    H     H_    0.838918 0.431490 0.623566 0.125318
H2    H     H_    0.161081 0.568510 0.376434 0.125318
H3    H     H_    0.673499 0.449902 0.460755 0.137205
H4    H     H_    0.326501 0.550098 0.539245 0.137205
C13   C     C_3   0.988405 0.562333 0.561375 -0.076235
C14   C     C_3   0.011595 0.437667 0.438625 -0.076236
C15   C     C_3   0.899572 0.571829 0.473087 0.052833
C16   C     C_3   0.100428 0.428171 0.526913 0.052833
H5    H     H_    0.826243 0.321793 0.758477 0.123183
H6    H     H_    0.173757 0.678207 0.241523 0.123183
C17   C     C_R   0.076066 0.689037 0.032286 -0.154395
C18   C     C_R   0.923934 0.310963 0.967714 -0.154395
C19   C     C_R   0.124891 0.718363 0.113159 -0.117222
C20   C     C_R   0.875109 0.281637 0.886841 -0.117222
C21   C     C_R   0.136827 0.654983 0.178708 -0.102594
C22   C     C_R   0.863173 0.345017 0.821291 -0.102594
C23   C     C_R   0.100390 0.561775 0.163811 -0.121810
C24   C     C_R   0.899610 0.438225 0.836189 -0.121810
C25   C     C_R   0.051919 0.529860 0.082144 0.061724
C26   C     C_R   0.948081 0.470140 0.917856 0.061724
C27   C     C_R   0.038999 0.594707 0.015164 0.056219
C28   C     C_R   0.961001 0.405293 0.984836 0.056219
C29   C     C_R   0.013199 0.435294 0.066791 -0.178582
C30   C     C_R   0.986800 0.564706 0.933209 -0.178582
H7    H     H_    0.066232 0.741291 0.983744 0.115126
H8    H     H_    0.933768 0.258708 0.016255 0.115126
C31   C     C_3   0.321385 0.027496 0.480066 -0.094534
C32   C     C_3   0.678615 0.972504 0.519934 -0.094534
C33   C     C_3   0.396490 0.927110 0.473781 -0.148636
C34   C     C_3   0.603510 0.072890 0.526219 -0.148636
H9    H     H_    0.173204 0.050060 0.463963 0.120997
H10   H     H_    0.826796 0.949940 0.536037 0.120997
C35   C     C_3   0.490450 0.937053 0.561426 -0.012851
C36   C     C_3   0.509550 0.062947 0.438574 -0.012851
C37   C     C_3   0.415379 0.036758 0.568332 -0.156665
C38   C     C_3   0.584621 0.963241 0.431668 -0.156665
H11   H     H_    0.344869 0.067268 0.624686 0.100643
H12   H     H_    0.655131 0.932731 0.375314 0.100643
H13   H     H_    0.677708 0.824681 0.242368 0.137955
H14   H     H_    0.322292 0.175319 0.757632 0.137955
C39   C     C_R   0.420884 0.188227 0.966681 -0.158004
C40   C     C_R   0.579116 0.811773 0.033319 -0.158004
C41   C     C_R   0.371540 0.216642 0.885634 -0.099116
C42   C     C_R   0.628460 0.783358 0.114365 -0.099116
C43   C     C_R   0.359967 0.152730 0.820533 -0.131588
C44   C     C_R   0.640033 0.847270 0.179467 -0.131588
C45   C     C_R   0.397794 0.059861 0.835952 -0.154245
C46   C     C_R   0.602206 0.940139 0.164047 -0.154245
C47   C     C_R   0.447277 0.028762 0.917704 0.072849
C48   C     C_R   0.552723 0.971238 0.082296 0.072849
C49   C     C_R   0.459264 0.094314 0.984459 0.058531
C50   C     C_R   0.540736 0.905686 0.015541 0.058531
C51   C     C_R   0.487899 0.934416 0.933233 -0.183180
C52   C     C_R   0.512101 0.065584 0.066767 -0.183180
H15   H     H_    0.430091 0.240899 0.014849 0.114451
H16   H     H_    0.569909 0.759101 0.985150 0.114451
H17   H     H_    0.342993 0.288769 0.873225 0.145826
H18   H     H_    0.657007 0.711231 0.126775 0.145826
H19   H     H_    0.388925 0.013014 0.783001 0.097123
H20   H     H_    0.611074 0.986986 0.216999 0.097123
C53   C     C_2   0.784890 0.650662 0.439112 0.693232
O21   O     O_2   0.723377 0.647146 0.367023 -0.573425
O22   O     O_R   0.748485 0.727504 0.489573 -0.673696
H21   H     H_    0.667035 0.774970 0.459549 0.280670
C54   C     C_2   0.215110 0.349338 0.560888 0.693232
O23   O     O_2   0.276623 0.352854 0.632977 -0.573425
O24   O     O_R   0.251515 0.272496 0.510426 -0.673696
H22   H     H_    0.332965 0.225030 0.540451 0.280670
H23   H     H_    0.152512 0.790759 0.125086 0.134078
H24   H     H_    0.847488 0.209241 0.874914 0.134078
H25   H     H_    0.109677 0.515318 0.217056 0.098348
H26   H     H_    0.890323 0.484682 0.782944 0.098348
H27   H     H_    0.310861 0.866888 0.451931 0.111877
H28   H     H_    0.689139 0.133112 0.548068 0.111877

loop_
_geom_bond_atom_site_label_1
_geom_bond_atom_site_label_2
_ccdc_geom_bond_type
C31   C33   S    
C54   O23   D    
C25   C29   A    
C3    C52   S    
O13   V3    S    
C23   C25   A    
C12   C14   S    
O4    C2    A    
V1    O19   S    
C1    C36   S    
C53   O21   D    
C17   C19   A    
C5    C29   S    
O9    V1    S    
C2    C35   S    
C9    H3    S    
C10   H4    S    
C9    C14   S    
C32   H10   S    
C11   H1    S    
C46   C48   A    
C41   H17   S    
O3    C1    A    
C9    C11   S    
C40   C42   A    
O12   V4    S    
C8    C13   S    
C46   H20   S    
C35   C37   S    
O7    C3    A    
C53   O22   S    
O5    C7    A    
O7    V1    S    
O6    C8    A    
O22   H21   S    
O8    V2    S    
C19   C21   A    
C20   C22   A    
O3    V1    S    
O14   V4    S    
O14   V2    S    
C18   C20   A    
C54   O24   S    
C13   C15   S    
C10   C13   S    
C14   C16   S    
C11   C13   S    
C43   C45   A    
C22   C24   A    
O11   V3    S    
C24   C26   A    
C39   C41   A    
O17   V3    S    
C31   H9    S    
C47   C49   A    
C9    C15   S    
C10   C16   S    
C42   C44   A    
O8    C4    A    
C37   H11   S    
C47   C51   A    
C27   C30   A    
C19   H23   S    
C1    O11   A    
H5    C22   S    
C40   H16   S    
C28   C29   A    
O15   V3    S    
H6    C21   S    
C26   C30   A    
C21   C23   A    
C32   C34   S    
C4    C51   S    
C17   C27   A    
C23   H25   S    
C18   H8    S    
C34   C37   S    
C31   C36   S    
C6    C30   S    
C45   H19   S    
O10   V2    S    
O1    V3    S    
C32   C35   S    
C34   H28   S    
C11   C16   S    
C33   H27   S    
C38   H12   S    
C45   C47   A    
C31   C37   S    
O18   V4    S    
C44   C46   A    
C25   C27   A    
C48   C52   A    
O16   C6    A    
O1    C3    A    
C42   H18   S    
C12   H2    S    
C41   C43   A    
V2    O20   S    
C40   C50   A    
C39   H15   S    
O16   V4    S    
C15   C53   S    
H14   C43   S    
C17   H7    S    
C16   C54   S    
H13   C44   S    
C18   C28   A    
O5    V1    S    
O17   C7    A    
C33   C38   S    
O6    V2    S    
O10   C6    A    
O18   C8    A    
C24   H26   S    
O2    V4    S    
O15   C5    A    
V3    O19   S    
V4    O20   S    
C7    C14   S    
C34   C36   S    
C33   C35   S    
O9    C5    A    
O13   V1    S    
C10   C12   S    
C26   C28   A    
C48   C50   A    
C32   C38   S    
O2    C4    A    
O4    V2    S    
C50   C51   A    
C39   C49   A    
C2    O12   A    
C49   C52   A    
O24   H22   S    
C20   H24   S    
C12   C15   S    
C36   C38   S    
