data_mof_unit_48106.cif
_audit_creation_date              2012-12-10T17:31:09-0500
_audit_creation_method            fapswitch 2.2
_symmetry_space_group_name_H-M    P1
_symmetry_Int_Tables_number       1
_space_group_crystal_system       triclinic
_cell_length_a                    11.983987
_cell_length_b                    12.89541
_cell_length_c                    15.543448
_cell_angle_alpha                 87.086706
_cell_angle_beta                  115.316583
_cell_angle_gamma                 93.288234
_cell_volume                      2166.86792772

loop_
_atom_site_label
_atom_site_type_symbol
_atom_type_description
_atom_site_fract_x
_atom_site_fract_y
_atom_site_fract_z
_atom_type_partial_charge
C1    C     C_R   0.477708 0.299420 0.499215 0.897039
C2    C     C_R   0.661985 0.969160 0.527367 -0.214839
C3    C     C_R   0.349410 0.137972 0.477783 -0.199633
C4    C     C_R   0.650842 0.861958 0.522746 -0.207139
C5    C     C_R   0.568457 0.131825 0.516055 -0.271852
C6    C     C_R   0.431727 0.868155 0.484254 -0.275761
C7    C     C_R   0.558140 0.025390 0.511153 0.186723
C8    C     C_R   0.442097 0.974569 0.489288 0.186067
C9    C     C_R   0.018069 0.618957 0.435027 -0.355006
C10   C     C_R   0.981550 0.380694 0.564394 -0.350929
C11   C     C_R   0.135845 0.605490 0.439032 0.004984
C12   C     C_R   0.522338 0.700570 0.500869 0.891899
C13   C     C_R   0.863951 0.394338 0.560707 -0.000039
C14   C     C_R   0.151965 0.445418 0.524446 -0.061677
C15   C     C_R   0.847934 0.554489 0.475407 -0.063326
C16   C     C_R   0.575673 0.492582 0.680089 0.880041
C17   C     C_R   0.423925 0.504387 0.319856 0.878710
C18   C     C_R   0.033674 0.455793 0.522376 0.093833
C19   C     C_R   0.966030 0.543941 0.477180 0.095775
C20   C     C_R   0.620045 0.475044 0.782562 -0.060403
C21   C     C_R   0.376465 0.493933 0.217306 -0.062156
C22   C     C_R   0.781920 0.442660 0.939476 -0.170212
C23   C     C_R   0.644422 0.439306 0.112951 -0.325404
C24   C     C_R   0.212244 0.453710 0.063869 -0.165492
C25   C     C_R   0.744487 0.459221 0.841981 -0.219185
C26   C     C_R   0.250845 0.475316 0.159511 -0.216186
C27   C     C_R   0.533069 0.468238 0.820029 -0.231191
C28   C     C_R   0.462300 0.491161 0.179321 -0.223540
C29   C     C_R   0.567413 0.447063 0.916548 0.055930
C30   C     C_R   0.427384 0.460773 0.086406 0.054852
C31   C     C_R   0.694879 0.440989 0.978175 0.062796
C32   C     C_R   0.299557 0.446867 0.026187 0.065501
C33   C     C_R   0.477723 0.439486 0.953190 0.006304
C34   C     C_R   0.350262 0.422288 0.894266 -0.326543
C35   C     C_R   0.517083 0.447478 0.051819 0.004711
C36   C     C_3   0.908622 0.515919 0.189454 0.076448
C37   C     C_3   0.936550 0.600863 0.127604 -0.388028
C38   C     C_3   0.013509 0.691441 0.186953 -0.943303
C39   C     C_3   0.086200 0.476216 0.797997 0.069172
C40   C     C_3   0.063092 0.578598 0.832855 -0.395675
C41   C     C_3   0.987817 0.650257 0.749094 -0.918983
C42   C     C_R   0.733068 0.436425 0.076930 0.470131
C43   C     C_R   0.261232 0.426662 0.929817 0.471760
C44   C     C_R   0.535835 0.811811 0.501908 -0.055647
C45   C     C_R   0.464332 0.188159 0.498391 -0.056483
C46   C     C_R   0.338281 0.030776 0.473171 -0.215176
H1    H     H_    0.824533 0.335804 0.593043 0.133192
H2    H     H_    0.114372 0.441009 0.020137 0.169897
H3    H     H_    0.677101 0.430343 0.189195 0.163549
H4    H     H_    0.318585 0.399528 0.821398 0.152495
H5    H     H_    0.342305 0.829436 0.467232 0.154337
H6    H     H_    0.657835 0.170567 0.532956 0.155486
H7    H     H_    0.731832 0.818512 0.536574 0.161272
H8    H     H_    0.268451 0.181385 0.464083 0.162791
H9    H     H_    0.249072 0.992043 0.456612 0.139592
H10   H     H_    0.751218 0.007878 0.544000 0.139912
H11   H     H_    0.794418 0.621375 0.439938 0.124300
H12   H     H_    0.175936 0.664593 0.407803 0.132021
H13   H     H_    0.205574 0.378624 0.560078 0.125132
H14   H     H_    0.996959 0.494995 0.250024 0.186212
H15   H     H_    0.850081 0.546257 0.221393 0.131210
H16   H     H_    0.988271 0.568042 0.091409 0.221468
H17   H     H_    0.848506 0.630495 0.072355 0.218975
H18   H     H_    0.966773 0.723650 0.227320 0.259306
H19   H     H_    0.025621 0.753751 0.139328 0.270763
H20   H     H_    0.106242 0.665304 0.237182 0.261057
H21   H     H_    0.995640 0.442650 0.748000 0.182133
H22   H     H_    0.142147 0.490802 0.756708 0.138208
H23   H     H_    0.968584 0.687801 0.399775 0.144807
H24   H     H_    0.012115 0.562316 0.877569 0.221466
H25   H     H_    0.152793 0.618761 0.876837 0.218172
H26   H     H_    0.037017 0.667727 0.703230 0.263479
H27   H     H_    0.974153 0.724302 0.776126 0.263527
H28   H     H_    0.895735 0.613289 0.705823 0.274866
H29   H     H_    0.031185 0.311991 0.599894 0.152983
H30   H     H_    0.557207 0.513646 0.223590 0.153224
H31   H     H_    0.438345 0.484238 0.773423 0.159129
H32   H     H_    0.183202 0.475979 0.188431 0.170200
H33   H     H_    0.812596 0.460900 0.813378 0.166952
H34   H     H_    0.879068 0.432954 0.984295 0.170735
N1    N     N_R   0.799120 0.480200 0.517090 -0.096949
N2    N     N_R   0.200880 0.519800 0.482910 -0.096293
O1    O     O_R   0.580150 0.341050 0.504560 -0.626420
O2    O     O_3   0.137637 0.402121 0.873466 -0.656821
O3    O     O_R   0.419850 0.658950 0.495440 -0.628419
O4    O     O_R   0.388090 0.353760 0.493600 -0.627052
O5    O     O_R   0.611910 0.646240 0.506400 -0.630118
O6    O     O_R   0.650890 0.490020 0.640860 -0.624221
O7    O     O_R   0.349110 0.509980 0.359140 -0.620274
O8    O     O_R   0.458830 0.502730 0.629890 -0.618251
O9    O     O_R   0.541170 0.497270 0.370110 -0.615235
O10   O     O_3   0.856691 0.424409 0.137781 -0.651699
Zn1   Zn    Zn3+2 0.628240 0.491510 0.507320 0.932993
Zn2   Zn    Zn3+2 0.371760 0.508490 0.492680 0.937050

loop_
_geom_bond_atom_site_label_1
_geom_bond_atom_site_label_2
_ccdc_geom_bond_type
C21   C26   A    
C16   O8    A    
N2    Zn2   S    
C31   C42   A    
C13   N1    A    
C4    H7    S    
C27   C29   A    
C39   H22   S    
C14   C18   A    
C2    C7    A    
C17   O9    A    
C37   H16   S    
C7    C8    A    
C15   N1    A    
C15   C19   A    
C14   H13   S    
C26   H32   S    
C23   C42   A    
C40   H24   S    
C12   O3    A    
C36   C37   S    
C40   H25   S    
C24   C26   A    
C39   O2    S    
C3    H8    S    
C23   H3    S    
C20   C25   A    
O1    Zn1   S    
C29   C33   A    
C18   C19   A    
O3    Zn2   S    
O7    Zn2   S    
O4    Zn2   S    
C41   H28   S    
C9    C19   A    
C38   H20   S    
C22   C25   A    
C46   H9    S    
C5    H6    S    
C6    H5    S    
C11   H12   S    
C36   O10   S    
C6    C44   A    
C43   O2    S    
C15   H11   S    
C37   H17   S    
O8    Zn2   S    
C38   H18   S    
C11   N2    A    
C34   H4    S    
C22   C31   A    
C24   H2    S    
C17   O7    A    
C39   C40   S    
C13   H1    S    
C6    C8    A    
C4    C44   A    
C27   H31   S    
C5    C45   A    
C3    C45   A    
C17   C21   S    
C2    C4    A    
C24   C32   A    
C37   C38   S    
O9    Zn1   S    
N1    Zn1   S    
C10   H29   S    
C38   H19   S    
C16   C20   S    
C33   C34   A    
C9    C11   A    
C41   H26   S    
C30   C35   A    
C40   C41   S    
C21   C28   A    
C23   C35   A    
C14   N2    A    
C36   H15   S    
C28   H30   S    
C5    C7    A    
C1    O4    A    
O6    Zn1   S    
C12   O5    A    
C25   H33   S    
C39   H21   S    
C34   C43   A    
C9    H23   S    
C36   H14   S    
C10   C13   A    
C20   C27   A    
C1    O1    A    
C3    C46   A    
C28   C30   A    
C22   H34   S    
C12   C44   S    
C2    H10   S    
C30   C32   A    
C1    C45   S    
C10   C18   A    
O5    Zn1   S    
C33   C35   A    
C32   C43   A    
C42   O10   S    
C8    C46   A    
C41   H27   S    
C29   C31   A    
C16   O6    A    
