data_mof_unit_44730.cif
_audit_creation_date              2013-03-05T15:54:52-0500
_audit_creation_method            fapswitch 2.2
_symmetry_space_group_name_H-M    P1
_symmetry_Int_Tables_number       1
_space_group_crystal_system       triclinic
_cell_length_a                    12.347822
_cell_length_b                    13.24391
_cell_length_c                    14.216821
_cell_angle_alpha                 93.027839
_cell_angle_beta                  108.015389
_cell_angle_gamma                 116.898262
_cell_volume                      1920.15023208

loop_
_atom_site_label
_atom_site_type_symbol
_atom_site_description
_atom_site_fract_x
_atom_site_fract_y
_atom_site_fract_z
_atom_type_partial_charge
O1    O     O_R   0.545970 0.684450 0.528810 -0.576865
O2    O     O_R   0.687130 0.639470 0.490120 -0.609935
C1    C     C_R   0.650938 0.714152 0.508821 0.777962
O3    O     O_R   0.519670 0.535100 0.660030 -0.586170
O4    O     O_R   0.660830 0.490120 0.621340 -0.574982
C2    C     C_R   0.617439 0.514851 0.686815 0.801696
Cu1   Cu    Cu3+1 0.416420 0.526630 0.522910 0.935789
Cu2   Cu    Cu3+1 0.583580 0.473370 0.477090 0.945835
O5    O     O_R   0.312870 0.360530 0.509880 -0.587724
O6    O     O_R   0.454030 0.315550 0.471190 -0.570944
O7    O     O_R   0.339170 0.509880 0.378660 -0.585221
O8    O     O_R   0.480330 0.464900 0.339970 -0.600002
C3    C     C_R   0.345457 0.285308 0.485262 0.810987
C4    C     C_R   0.379657 0.481098 0.312770 0.785859
C5    C     C_R   0.672497 0.507334 0.791969 -0.074304
C6    C     C_R   0.304393 0.460201 0.204154 -0.051806
C7    C     C_R   0.659667 0.488739 0.957247 -0.205788
C8    C     C_R   0.612568 0.507542 0.861111 -0.192811
C9    C     C_R   0.779195 0.487965 0.820032 -0.168285
C10   C     C_R   0.819302 0.456877 0.911973 0.113259
C11   C     C_R   0.763643 0.464919 0.983610 0.163220
C12   C     C_R   0.919887 0.426426 0.937298 -0.056018
C13   C     C_R   0.984747 0.433928 0.041353 0.024564
C14   C     C_R   0.925580 0.439972 0.110854 -0.191697
C15   C     C_R   0.814360 0.451650 0.081245 -0.228539
C16   C     C_R   0.958794 0.389449 0.863525 0.306874
C17   C     C_R   0.075629 0.385750 0.895106 -0.295661
C18   C     C_R   0.151094 0.411066 0.997878 0.097536
C19   C     C_R   0.105808 0.434132 0.072109 0.086786
C20   C     C_R   0.270244 0.410456 0.027212 -0.169838
C21   C     C_R   0.346045 0.434148 0.129701 -0.199005
C22   C     C_R   0.186058 0.461528 0.174958 -0.233119
H1    H     H_    0.771569 0.455636 0.136475 0.141346
H2    H     H_    0.159565 0.486607 0.233956 0.146644
H3    H     H_    0.437103 0.432225 0.150551 0.144709
H4    H     H_    0.106038 0.359666 0.838763 0.178770
H5    H     H_    0.614612 0.492423 0.010838 0.130056
H6    H     H_    0.529417 0.521905 0.840947 0.157674
H7    H     H_    0.831604 0.498933 0.769660 0.181003
H8    H     H_    0.960940 0.432489 0.188183 0.136254
H9    H     H_    0.304679 0.391371 0.970780 0.131797
C23   C     C_R   0.140132 0.966505 0.364075 -0.190249
H10   H     H_    0.323106 0.101779 0.367116 0.150905
H11   H     H_    0.919941 0.763646 0.302060 0.144379
H12   H     H_    0.137826 0.903199 0.310797 0.136896
C24   C     C_R   0.249571 0.162407 0.464134 -0.044448
C25   C     C_R   0.731966 0.921154 0.576083 -0.197888
C26   C     C_R   0.823153 0.037938 0.596158 -0.108474
C27   C     C_R   0.923987 0.072660 0.559959 -0.181206
C28   C     C_R   0.932893 0.990477 0.499078 0.070551
C29   C     C_R   0.830682 0.873239 0.468883 0.085490
C30   C     C_R   0.039194 0.020892 0.466396 0.075324
C31   C     C_R   0.035627 0.937377 0.396750 0.167801
C32   C     C_R   0.926580 0.826650 0.358626 -0.242690
C33   C     C_R   0.824690 0.795486 0.392873 -0.201521
C34   C     C_R   0.149895 0.131770 0.501681 -0.249086
C35   C     C_R   0.246432 0.078959 0.397098 -0.182292
C36   C     C_R   0.736423 0.837526 0.514858 -0.105818
H13   H     H_    0.160960 0.197164 0.557888 0.149833
H14   H     H_    0.659512 0.896065 0.610702 0.161711
H15   H     H_    0.991384 0.164749 0.579232 0.151849
H16   H     H_    0.818080 0.101757 0.642814 0.206062
H17   H     H_    0.739991 0.710490 0.356737 0.172148
C37   C     C_R   0.254551 0.685291 0.662013 -0.291409
H18   H     H_    0.443093 0.706092 0.680076 0.122732
H19   H     H_    0.075886 0.723091 0.695176 0.147725
H20   H     H_    0.294820 0.757393 0.725463 0.141192
N1    N     N_R   0.290690 0.566960 0.557640 -0.179015
C38   C     C_R   0.654456 0.342824 0.362899 0.080679
C39   C     C_R   0.732115 0.308992 0.332034 -0.254035
C40   C     C_R   0.867620 0.368121 0.383440 -0.191130
C41   C     C_R   0.927814 0.462739 0.466911 0.021199
C42   C     C_R   0.843908 0.494672 0.495557 0.324976
C43   C     C_R   0.067513 0.526849 0.522848 -0.019556
C44   C     C_R   0.119435 0.621015 0.605648 0.187566
C45   C     C_R   0.036516 0.650919 0.631964 -0.264390
C46   C     C_R   0.902327 0.589500 0.578241 -0.165896
C47   C     C_R   0.159163 0.502255 0.500930 0.020038
C48   C     C_R   0.338820 0.656683 0.636664 0.070998
N2    N     N_R   0.709100 0.433710 0.442970 -0.202740
H21   H     H_    0.128211 0.432111 0.439414 0.118712
H22   H     H_    0.549478 0.296287 0.322335 0.119945
H23   H     H_    0.922779 0.338138 0.356245 0.131157
H24   H     H_    0.687037 0.236581 0.267885 0.148190
H25   H     H_    0.848119 0.619915 0.604604 0.194096
N3    N     N_R   0.873799 0.340727 0.758308 0.099743
O9    O     O_R   0.749682 0.268304 0.733745 -0.369160
O10   O     O_R   0.922710 0.355007 0.687866 -0.400798

loop_
_geom_bond_atom_site_label_1
_geom_bond_atom_site_label_2
_geom_bond_distance
_ccdc_geom_bond_type
C5    C8    1.401901 A    
H18   C48   1.081838 S    
C9    C10   1.401522 A    
Cu1   Cu2   2.698653 S    
C31   C32   1.391150 A    
C6    C21   1.400961 A    
Cu1   O7    1.927502 S    
C16   C17   1.396731 A    
C13   C19   1.420432 A    
C18   C19   1.416075 A    
C19   C22   1.404983 A    
C23   C31   1.403225 A    
C20   C21   1.392823 A    
O7    C4    1.302728 A    
N3    O10   1.301618 A    
O5    C3    1.299946 A    
C38   H22   1.081616 S    
C25   H14   1.083383 S    
C42   N2    1.389991 A    
C33   H17   1.079914 S    
C28   C30   1.421143 A    
C13   C14   1.416879 A    
C20   H9    1.084049 S    
C39   C40   1.394466 A    
C39   H24   1.082538 S    
C16   N3    1.438612 S    
N1    C48   1.354400 A    
C2    C5    1.468092 S    
C46   H25   1.064873 S    
O3    Cu1   1.936077 S    
C23   C35   1.391958 A    
C7    C8    1.394121 A    
C40   H23   1.078160 S    
C12   C13   1.421046 A    
N1    C47   1.371061 A    
C27   H15   1.077221 S    
C43   C44   1.416579 A    
C37   H20   1.083869 S    
C14   C15   1.388753 A    
O3    C2    1.301425 A    
N3    O9    1.301625 A    
Cu1   N1    2.033688 S    
C7    C11   1.403441 A    
O1    C1    1.301445 A    
C23   H12   1.084183 S    
C22   H2    1.076777 S    
C5    C9    1.397220 A    
C44   C45   1.390444 A    
C26   H16   1.082893 S    
C25   C26   1.385751 A    
Cu2   O8    1.936077 S    
H19   C45   1.084517 S    
C28   C29   1.417522 A    
C29   C36   1.417978 A    
C7    H5    1.084058 S    
C45   C46   1.386548 A    
C9    H7    1.079498 S    
C41   C43   1.443547 A    
C26   C27   1.389179 A    
C10   C12   1.423664 A    
C24   C35   1.399405 A    
C12   C16   1.428610 A    
C37   C48   1.389372 A    
C4    C6    1.469425 S    
C30   C31   1.420899 A    
Cu1   O5    1.942628 S    
C11   C15   1.391916 A    
C32   C33   1.385840 A    
O1    Cu1   1.951383 S    
O2    Cu2   1.942629 S    
O8    C4    1.301364 A    
C41   C42   1.434359 A    
O6    C3    1.298563 A    
O4    Cu2   1.927502 S    
C17   H4    1.084501 S    
C6    C22   1.398754 A    
C34   H13   1.076844 S    
C18   C20   1.403608 A    
O2    C1    1.301666 A    
C8    H6    1.083037 S    
C40   C41   1.409105 A    
C25   C36   1.403671 A    
C47   H21   1.077088 S    
O4    C2    1.302267 A    
C21   H3    1.083169 S    
C14   H8    1.078338 S    
C37   C44   1.402223 A    
C29   C33   1.413393 A    
C38   C39   1.393228 A    
H10   C35   1.083366 S    
C1    C36   1.469672 S    
H11   C32   1.084497 S    
C10   C11   1.417272 A    
Cu2   O6    1.951382 S    
C27   C28   1.418998 A    
C43   C47   1.422949 A    
C24   C34   1.393482 A    
C17   C18   1.392457 A    
Cu2   N2    2.021904 S    
C42   C46   1.406861 A    
C3    C24   1.458110 S    
C38   N2    1.358408 A    
C30   C34   1.399400 A    
C15   H1    1.084426 S    
