data_mof_unit_61573.cif
_audit_creation_date              2013-03-05T16:17:15-0500
_audit_creation_method            fapswitch 2.2
_symmetry_space_group_name_H-M    P1
_symmetry_Int_Tables_number       1
_space_group_crystal_system       triclinic
_cell_length_a                    13.039092
_cell_length_b                    13.625915
_cell_length_c                    19.015222
_cell_angle_alpha                 90.067053
_cell_angle_beta                  92.249875
_cell_angle_gamma                 85.740608
_cell_volume                      3366.49265329

loop_
_atom_site_label
_atom_site_type_symbol
_atom_site_description
_atom_site_fract_x
_atom_site_fract_y
_atom_site_fract_z
_atom_type_partial_charge
O1    O     O_R   0.402510 0.634760 0.495940 -0.614903
O2    O     O_R   0.597490 0.365240 0.504060 -0.611622
O3    O     O_R   0.572960 0.644530 0.503060 -0.589566
O4    O     O_R   0.427040 0.355470 0.496940 -0.587979
C1    C     C_R   0.481226 0.685180 0.499167 0.898302
C2    C     C_R   0.518780 0.314817 0.500788 0.916799
O5    O     O_R   0.414750 0.495120 0.598300 -0.573790
O6    O     O_R   0.585250 0.504880 0.401700 -0.565208
O7    O     O_R   0.585190 0.504900 0.605420 -0.624099
O8    O     O_R   0.414810 0.495100 0.394580 -0.620387
C3    C     C_R   0.498948 0.499363 0.635058 0.932699
C4    C     C_R   0.500651 0.503712 0.365004 0.900020
Zn1   Zn    Zn3+2 0.386190 0.493480 0.495250 1.034818
Zn2   Zn    Zn3+2 0.613810 0.506520 0.504750 1.042038
C5    C     C_R   0.417388 0.467003 0.748785 0.211973
C6    C     C_R   0.567414 0.588718 0.261436 0.222597
C7    C     C_R   0.408647 0.488306 0.820691 0.243628
C8    C     C_R   0.556273 0.615770 0.190107 0.236318
C9    C     C_R   0.478050 0.549895 0.854280 -0.077798
C10   C     C_R   0.478654 0.575992 0.147431 -0.079137
C11   C     C_R   0.555526 0.588556 0.816388 -0.160469
C12   C     C_R   0.410656 0.513959 0.176596 -0.158528
H1    H     H_    0.609482 0.635542 0.841596 0.188473
H2    H     H_    0.351531 0.482006 0.144258 0.193319
C13   C     C_R   0.563769 0.568253 0.745546 -0.214847
C14   C     C_R   0.420865 0.488454 0.246999 -0.202291
H3    H     H_    0.622726 0.601503 0.717072 0.184593
H4    H     H_    0.367354 0.440089 0.268191 0.184934
C15   C     C_R   0.494685 0.508822 0.711185 -0.189743
C16   C     C_R   0.499399 0.524202 0.289667 -0.200806
N1    N     N_R   0.565645 0.574997 0.967452 -0.139155
N2    N     N_R   0.386336 0.582946 0.033121 -0.135294
N3    N     N_R   0.565827 0.582562 0.036987 -0.098548
N4    N     N_R   0.386173 0.575367 0.963503 -0.088362
C17   C     C_R   0.476317 0.585779 0.071028 0.362476
C18   C     C_R   0.476003 0.569301 0.929707 0.340253
C19   C     C_1   0.533685 0.211655 0.501458 -0.128632
C20   C     C_1   0.466352 0.788330 0.498200 -0.124107
C21   C     C_2   0.544621 0.020489 0.501851 -0.129502
C22   C     C_2   0.455478 0.979483 0.497258 -0.135661
C23   C     C_1   0.457525 0.875743 0.497547 0.045007
C24   C     C_1   0.542549 0.124236 0.501826 0.042096
H5    H     H_    0.382137 0.023048 0.493470 0.172886
H6    H     H_    0.617961 0.976924 0.505674 0.175242
N5    N     N_1   0.234540 0.484780 0.488910 -0.078579
N6    N     N_1   0.765460 0.515220 0.511090 -0.073237
C25   C     C_2   0.033327 0.472864 0.480162 -0.209544
C26   C     C_2   0.966662 0.527207 0.519799 -0.211782
C27   C     C_1   0.854702 0.519696 0.514324 0.207362
C28   C     C_1   0.145293 0.480340 0.485657 0.194791
H7    H     H_    0.996075 0.578984 0.557610 0.176853
H8    H     H_    0.003911 0.421086 0.442353 0.177743
N7    N     N_R   0.352470 0.398425 0.715414 0.232378
O9    O     O_R   0.392874 0.323695 0.680794 -0.372258
O10   O     O_R   0.252924 0.410580 0.719090 -0.306350
N8    N     N_R   0.642002 0.633240 0.305940 0.238809
O11   O     O_R   0.625758 0.724578 0.325053 -0.350067
O12   O     O_R   0.731035 0.586517 0.320202 -0.326769
N9    N     N_R   0.335759 0.440313 0.860418 0.235880
O13   O     O_R   0.367139 0.368914 0.903196 -0.332177
O14   O     O_R   0.239702 0.474004 0.858942 -0.295787
N10   N     N_R   0.621466 0.685464 0.161869 0.233238
O15   O     O_R   0.581752 0.758935 0.123652 -0.335612
O16   O     O_R   0.720311 0.677172 0.175444 -0.282932

loop_
_geom_bond_atom_site_label_1
_geom_bond_atom_site_label_2
_geom_bond_distance
_ccdc_geom_bond_type
C25   H8    1.085871 S    
Zn1   N5    1.988637 S    
O7    Zn2   1.965084 S    
N1    N3    1.326043 A    
C14   C16   1.397161 A    
C21   H6    1.087409 S    
C13   H3    1.083690 S    
C14   H4    1.083758 S    
C25   C26   1.351486 D    
O6    C4    1.283008 A    
C4    C16   1.459068 S    
C19   C24   1.188188 T    
N7    O10   1.300871 A    
C2    C19   1.404670 S    
N9    O13   1.300833 A    
Zn2   N6    1.988637 S    
O2    C2    1.276266 A    
C1    C20   1.404521 S    
O5    C3    1.283068 A    
O7    C3    1.284644 A    
N6    C27   1.168952 T    
C26   H7    1.085871 S    
N10   O15   1.301386 A    
O3    Zn2   1.916006 S    
O8    C4    1.285277 A    
C6    N8    1.432440 S    
C7    N9    1.432276 S    
O1    C1    1.276296 A    
C5    N7    1.437461 S    
O4    C2    1.279811 A    
C22   C23   1.411838 S    
N3    C17   1.354526 A    
N4    C18   1.355115 A    
C10   C12   1.399700 A    
C5    C15   1.412292 A    
C25   C28   1.470648 S    
C8    C10   1.411580 A    
C9    C18   1.459048 S    
C11   H1    1.083673 S    
C13   C15   1.398218 A    
O2    Zn2   1.952415 S    
C12   H2    1.083529 S    
N9    O14   1.300819 A    
O1    Zn1   1.952415 S    
C6    C16   1.414829 A    
N2    C17   1.355676 A    
O5    Zn1   1.980589 S    
N8    O11   1.300655 A    
C3    C15   1.456033 S    
C20   C23   1.188127 T    
C6    C8    1.405141 A    
C12   C14   1.382363 A    
C21   C22   1.326372 D    
C5    C7    1.404692 A    
C11   C13   1.381577 A    
C21   C24   1.411896 S    
C26   C27   1.470625 S    
N10   O16   1.301101 A    
N5    C28   1.168968 T    
O6    Zn2   1.980589 S    
C7    C9    1.413259 A    
C9    C11   1.397962 A    
N1    C18   1.354571 A    
C10   C17   1.458014 S    
C22   H5    1.087403 S    
C8    N10   1.438629 S    
O4    Zn1   1.916006 S    
N7    O9    1.301441 A    
N8    O12   1.300951 A    
O3    C1    1.279742 A    
O8    Zn1   1.965086 S    
N2    N4    1.327634 A    
