data_mof_unit_10411.cif
_audit_creation_date              2012-12-10T19:09:29-0500
_audit_creation_method            fapswitch 2.2
_symmetry_space_group_name_H-M    P1
_symmetry_Int_Tables_number       1
_space_group_crystal_system       triclinic
_cell_length_a                    15.109587
_cell_length_b                    15.214474
_cell_length_c                    9.745264
_cell_angle_alpha                 89.815638
_cell_angle_beta                  89.761042
_cell_angle_gamma                 90.001602
_cell_volume                      2240.25326525

loop_
_atom_site_label
_atom_site_type_symbol
_atom_type_description
_atom_site_fract_x
_atom_site_fract_y
_atom_site_fract_z
_atom_type_partial_charge
C1    C     C_R   0.123247 0.381659 0.499812 0.847015
C2    C     C_R   0.881766 0.624641 0.500281 0.817464
C3    C     C_R   0.381165 0.875932 0.500560 0.817205
C4    C     C_R   0.381124 0.124041 0.499638 0.816619
C5    C     C_3   0.813721 0.251994 0.642195 -0.139426
C6    C     C_3   0.834638 0.233971 0.386129 -0.166522
C7    C     C_3   0.834340 0.766210 0.385347 -0.168578
C8    C     C_3   0.814057 0.747777 0.641646 -0.136603
C9    C     C_3   0.311368 0.754668 0.644037 -0.136718
C10   C     C_3   0.334967 0.733933 0.388412 -0.164265
C11   C     C_3   0.311851 0.245088 0.355843 -0.134930
C12   C     C_R   0.123208 0.618397 0.499934 0.847087
C13   C     C_3   0.334495 0.266174 0.611406 -0.165274
C14   C     C_3   0.236074 0.687409 0.643962 -0.437254
C15   C     C_3   0.266331 0.658913 0.396982 -0.447675
C16   C     C_3   0.237005 0.312863 0.355996 -0.436770
C17   C     C_3   0.265721 0.341028 0.603066 -0.446428
C18   C     C_3   0.738613 0.184494 0.641984 -0.431938
C19   C     C_3   0.765256 0.159560 0.393285 -0.443282
C20   C     C_3   0.764784 0.840441 0.392251 -0.441281
C21   C     C_3   0.739190 0.815536 0.641447 -0.434814
C22   C     C_3   0.722527 0.346469 0.476544 -0.351064
C23   C     C_R   0.623445 0.881920 0.499980 0.847747
C24   C     C_3   0.722446 0.653573 0.477075 -0.352367
C25   C     C_3   0.221927 0.847028 0.473795 -0.354939
C26   C     C_3   0.221779 0.153031 0.526884 -0.353863
C27   C     C_3   0.814632 0.304649 0.501470 -0.024799
C28   C     C_3   0.814613 0.695346 0.501132 -0.024778
C29   C     C_3   0.313800 0.805546 0.501785 -0.026796
C30   C     C_3   0.313749 0.194434 0.498461 -0.027228
C31   C     C_3   0.193085 0.683793 0.500703 0.125979
C32   C     C_3   0.193117 0.316274 0.498992 0.127352
C33   C     C_3   0.693585 0.183146 0.500281 0.125398
C34   C     C_R   0.623445 0.118087 0.499852 0.847809
C35   C     C_3   0.693576 0.816864 0.500329 0.123766
C36   C     C_3   0.151822 0.774332 0.464820 -0.356204
C37   C     C_3   0.151580 0.225723 0.534720 -0.359386
C38   C     C_3   0.652085 0.274154 0.468587 -0.364005
C39   C     C_3   0.651930 0.725873 0.469779 -0.360489
C40   C     C_3   0.045781 0.422367 0.080976 -0.219169
C41   C     C_3   0.044951 0.421819 0.918967 -0.209757
C42   C     C_3   0.044685 0.578325 0.918244 -0.217502
C43   C     C_3   0.045172 0.577997 0.080257 -0.211511
C44   C     C_3   0.548674 0.924061 0.081277 -0.218301
C45   C     C_3   0.907960 0.499738 0.081832 -0.228949
C46   C     C_3   0.542229 0.920279 0.919592 -0.214233
C47   C     C_3   0.548380 0.076140 0.918144 -0.223188
C48   C     C_3   0.541951 0.079881 0.079922 -0.211247
C49   C     C_2   0.804613 0.303507 0.773389 0.920192
C50   C     C_2   0.837020 0.267720 0.240056 0.969555
C51   C     C_2   0.836739 0.732662 0.239504 0.968438
C52   C     C_2   0.804889 0.696092 0.773199 0.920139
C53   C     C_2   0.301578 0.808136 0.773578 0.921071
C54   C     C_2   0.337213 0.766744 0.241631 0.965647
C55   C     C_2   0.301821 0.191451 0.226624 0.920651
C56   C     C_3   0.908412 0.499730 0.920531 -0.231226
C57   C     C_2   0.336558 0.233446 0.758232 0.966568
C58   C     C_3   0.408283 0.993867 0.080763 -0.222347
C59   C     C_3   0.408256 0.005792 0.920349 -0.222214
C60   C     C_R   0.881778 0.375353 0.500505 0.817424
H1    H     H_    0.877478 0.215227 0.648499 0.117096
H2    H     H_    0.299619 0.597176 0.430504 0.142893
H3    H     H_    0.264245 0.378547 0.327423 0.152760
H4    H     H_    0.299075 0.402941 0.570064 0.143010
H5    H     H_    0.765794 0.118341 0.667523 0.152012
H6    H     H_    0.798253 0.096824 0.422727 0.143265
H7    H     H_    0.797746 0.903316 0.420441 0.143000
H8    H     H_    0.766679 0.881634 0.665868 0.152855
H9    H     H_    0.184214 0.703977 0.721554 0.205134
H10   H     H_    0.237039 0.644116 0.294869 0.196841
H11   H     H_    0.185585 0.296961 0.278015 0.207733
H12   H     H_    0.900749 0.204642 0.408127 0.104195
H13   H     H_    0.235788 0.355443 0.705233 0.197008
H14   H     H_    0.687857 0.199500 0.722120 0.206160
H15   H     H_    0.734415 0.147187 0.291478 0.196803
H16   H     H_    0.733476 0.852520 0.290576 0.198037
H17   H     H_    0.688725 0.800753 0.722241 0.202794
H18   H     H_    0.705243 0.393661 0.558667 0.215693
H19   H     H_    0.721972 0.386829 0.381551 0.202606
H20   H     H_    0.721546 0.613590 0.382117 0.203479
H21   H     H_    0.705520 0.606022 0.559355 0.215318
H22   H     H_    0.203666 0.894405 0.555212 0.209597
H23   H     H_    0.900401 0.795663 0.407049 0.103330
H24   H     H_    0.222366 0.886898 0.378244 0.209134
H25   H     H_    0.204041 0.105118 0.446192 0.210027
H26   H     H_    0.221699 0.113713 0.622972 0.208294
H27   H     H_    0.096501 0.789566 0.536798 0.159142
H28   H     H_    0.123708 0.772863 0.359461 0.215604
H29   H     H_    0.096993 0.210365 0.462169 0.165329
H30   H     H_    0.122452 0.227303 0.639786 0.206779
H31   H     H_    0.598059 0.288755 0.543217 0.167771
H32   H     H_    0.622264 0.273959 0.364322 0.203872
H33   H     H_    0.621473 0.726216 0.365947 0.210503
H34   H     H_    0.877951 0.784314 0.647559 0.118506
H35   H     H_    0.598364 0.711120 0.545269 0.163195
H36   H     H_    0.016076 0.361215 0.121265 0.222183
H37   H     H_    0.013042 0.360690 0.881561 0.208000
H38   H     H_    0.012824 0.639352 0.879803 0.208396
H39   H     H_    0.014731 0.638896 0.119518 0.222612
H40   H     H_    0.524137 0.861913 0.126748 0.220059
H41   H     H_    0.505880 0.860470 0.887900 0.216758
H42   H     H_    0.523568 0.138208 0.873065 0.219132
H43   H     H_    0.505410 0.139538 0.112120 0.216942
H44   H     H_    0.115593 0.421844 0.116869 0.141071
H45   H     H_    0.374907 0.717720 0.652596 0.121333
H46   H     H_    0.114327 0.419941 0.880483 0.147419
H47   H     H_    0.114169 0.580196 0.880218 0.143437
H48   H     H_    0.114872 0.579296 0.116606 0.145273
H49   H     H_    0.619492 0.928486 0.111563 0.142316
H50   H     H_    0.610093 0.913670 0.876429 0.144968
H51   H     H_    0.619223 0.071987 0.886981 0.140695
H52   H     H_    0.609757 0.086831 0.122364 0.148763
H53   H     H_    0.871509 0.441395 0.120272 0.182494
H54   H     H_    0.872069 0.442985 0.882760 0.193900
H55   H     H_    0.871683 0.556170 0.882089 0.194557
H56   H     H_    0.401352 0.705567 0.411452 0.102081
H57   H     H_    0.871144 0.557877 0.119712 0.181499
H58   H     H_    0.378732 0.929296 0.107046 0.188191
H59   H     H_    0.365295 0.956965 0.872054 0.190544
H60   H     H_    0.378418 0.070248 0.894364 0.188008
H61   H     H_    0.365077 0.042430 0.129672 0.190899
H62   H     H_    0.731105 0.388721 0.886344 0.322698
H63   H     H_    0.769804 0.320649 0.082225 0.351432
H64   H     H_    0.769648 0.679638 0.082152 0.351823
H65   H     H_    0.731079 0.611128 0.886994 0.322537
H66   H     H_    0.226835 0.892334 0.885646 0.323565
H67   H     H_    0.375654 0.281592 0.346504 0.118584
H68   H     H_    0.268672 0.815807 0.081529 0.355475
H69   H     H_    0.226715 0.107427 0.115805 0.323875
H70   H     H_    0.267885 0.184381 0.919090 0.355376
H71   H     H_    0.400863 0.294653 0.587733 0.103739
H72   H     H_    0.262691 0.621656 0.673211 0.154472
N1    N     N_3   0.998760 0.500000 0.138610 -0.062359
N2    N     N_3   0.998760 0.500000 0.861390 -0.062762
N3    N     N_3   0.498760 0.000000 0.138610 -0.062637
N4    N     N_3   0.498760 0.000000 0.861390 -0.059979
O1    O     O_R   0.092530 0.407440 0.616040 -0.639745
O2    O     O_R   0.907330 0.407420 0.383960 -0.616799
O3    O     O_R   0.907330 0.592580 0.383960 -0.616672
O4    O     O_R   0.907330 0.592580 0.616040 -0.610670
O5    O     O_R   0.407330 0.907420 0.616040 -0.612739
O6    O     O_R   0.407330 0.907420 0.383960 -0.613618
O7    O     O_R   0.407330 0.092580 0.383960 -0.614382
O8    O     O_R   0.407330 0.092580 0.616040 -0.612092
O9    O     O_2   0.856084 0.288765 0.867075 -0.658357
O10   O     O_R   0.733089 0.360727 0.792397 -0.821406
O11   O     O_2   0.902958 0.255689 0.169792 -0.629499
O12   O     O_R   0.092530 0.407440 0.383960 -0.637842
O13   O     O_R   0.761269 0.304565 0.181802 -0.836492
O14   O     O_2   0.902599 0.745011 0.169072 -0.632186
O15   O     O_R   0.761096 0.695595 0.181619 -0.833676
O16   O     O_2   0.856427 0.710595 0.866740 -0.657597
O17   O     O_R   0.733149 0.639130 0.792769 -0.824614
O18   O     O_2   0.354639 0.797232 0.866262 -0.665326
O19   O     O_R   0.228587 0.863520 0.792179 -0.832167
O20   O     O_2   0.404467 0.757836 0.173154 -0.637823
O21   O     O_R   0.260358 0.799893 0.181264 -0.832917
O22   O     O_2   0.354696 0.202267 0.132986 -0.667225
O23   O     O_R   0.092530 0.592560 0.383960 -0.635066
O24   O     O_R   0.228628 0.136293 0.209206 -0.828361
O25   O     O_2   0.403817 0.242153 0.825898 -0.633705
O26   O     O_R   0.259605 0.200432 0.819497 -0.834972
O27   O     O_R   0.092530 0.592560 0.616040 -0.642411
O28   O     O_R   0.592530 0.907440 0.616040 -0.641542
O29   O     O_R   0.592530 0.907440 0.383960 -0.635476
O30   O     O_R   0.592530 0.092560 0.383960 -0.639560
O31   O     O_R   0.592530 0.092560 0.616040 -0.637572
O32   O     O_R   0.907330 0.407420 0.616040 -0.610615
Zn1   Zn    Zn3+2 0.999890 0.500000 0.654960 0.934754
Zn2   Zn    Zn3+2 0.999890 0.500000 0.345040 0.933670
Zn3   Zn    Zn3+2 0.499890 0.000000 0.654960 0.935883
Zn4   Zn    Zn3+2 0.499890 0.000000 0.345040 0.935870

loop_
_geom_bond_atom_site_label_1
_geom_bond_atom_site_label_2
_ccdc_geom_bond_type
C50   O11   D    
C7    H23   S    
H63   O13   S    
O30   Zn4   S    
O4    Zn1   S    
O23   Zn2   S    
C47   N4    S    
O2    Zn2   S    
C48   N3    S    
C11   H67   S    
C3    O5    A    
C58   H58   S    
C14   C31   S    
C9    C14   S    
C4    O7    A    
C11   C55   S    
C14   H72   S    
C36   H28   S    
C18   H5    S    
C6    H12   S    
C6    C19   S    
C3    O6    A    
O8    Zn3   S    
C60   O32   A    
C37   H30   S    
C19   H6    S    
C2    O3    A    
C43   H39   S    
O7    Zn4   S    
C27   C60   S    
C42   H38   S    
C17   H4    S    
C54   O20   D    
C13   C57   S    
C9    H45   S    
C22   C38   S    
C38   H32   S    
C59   N4    S    
O5    Zn3   S    
C24   C39   S    
C20   H16   S    
O3    Zn2   S    
C43   N1    S    
C3    C29   S    
C39   H33   S    
C20   H7    S    
C23   O29   A    
C20   C35   S    
C24   H20   S    
C55   O22   D    
C57   O26   S    
C47   C48   S    
C45   C56   S    
C44   C46   S    
N2    Zn1   S    
C49   O10   S    
C25   H24   S    
O12   Zn2   S    
C16   H3    S    
C42   H47   S    
C8    C52   S    
O1    Zn1   S    
C12   C31   S    
C9    C29   S    
H66   O19   S    
H70   O26   S    
O29   Zn4   S    
C51   O15   S    
C53   O18   D    
C18   H14   S    
C47   H42   S    
C5    C27   S    
C17   H13   S    
C5    C49   S    
C16   H11   S    
C40   H36   S    
C10   C54   S    
C41   N2    S    
C18   C33   S    
H65   O17   S    
H68   O21   S    
C8    C21   S    
C36   H27   S    
C25   C29   S    
C46   H41   S    
C41   H46   S    
C49   O9    D    
C13   C30   S    
C8    H34   S    
C11   C30   S    
C19   C33   S    
C37   H29   S    
O31   Zn3   S    
C5    C18   S    
C52   O17   S    
C32   C37   S    
C48   H43   S    
C46   N4    S    
C38   H31   S    
C1    C32   S    
C7    C28   S    
C59   H60   S    
C35   C39   S    
C24   H21   S    
C45   H53   S    
C40   H44   S    
C11   C16   S    
C6    C27   S    
N4    Zn3   S    
C26   H26   S    
C39   H35   S    
C33   C34   S    
C13   H71   S    
C5    H1    S    
N3    Zn4   S    
C6    C50   S    
C22   H18   S    
C15   H2    S    
O32   Zn1   S    
C48   H52   S    
H64   O15   S    
C53   O19   S    
C23   C35   S    
C22   C27   S    
C46   H50   S    
N1    Zn2   S    
C25   H22   S    
C8    C28   S    
C14   H9    S    
C41   H37   S    
C9    C53   S    
C42   C43   S    
C34   O31   A    
C1    O1    A    
O6    Zn4   S    
C23   O28   A    
C45   H57   S    
C15   H10   S    
C40   C41   S    
C58   H61   S    
C59   H59   S    
C24   C28   S    
C1    O12   A    
C4    O8    A    
C56   N2    S    
C26   C37   S    
C15   C31   S    
C21   C35   S    
C13   C17   S    
C51   O14   D    
C16   C32   S    
C40   N1    S    
C45   N1    S    
C33   C38   S    
C55   O24   S    
C10   C15   S    
C2    O4    A    
C52   O16   D    
C19   H15   S    
C58   C59   S    
C7    C51   S    
C21   H8    S    
C44   H49   S    
C12   O27   A    
C44   H40   S    
C50   O13   S    
C44   N3    S    
C26   H25   S    
C47   H51   S    
C56   H55   S    
C42   N2    S    
C43   H48   S    
H62   O10   S    
C12   O23   A    
O27   Zn1   S    
C10   H56   S    
C25   C36   S    
C58   N3    S    
C10   C29   S    
C57   O25   D    
C7    C20   S    
C21   H17   S    
C22   H19   S    
C17   C32   S    
C56   H54   S    
C31   C36   S    
O28   Zn3   S    
C2    C28   S    
C34   O30   A    
H69   O24   S    
C4    C30   S    
C60   O2    A    
C54   O21   S    
C26   C30   S    
