data_mof_unit_27695.cif
_audit_creation_date              2012-12-10T19:09:45-0500
_audit_creation_method            fapswitch 2.2
_symmetry_space_group_name_H-M    P1
_symmetry_Int_Tables_number       1
_space_group_crystal_system       triclinic
_cell_length_a                    34.693047
_cell_length_b                    34.597933
_cell_length_c                    24.980774
_cell_angle_alpha                 90.03806
_cell_angle_beta                  46.022451
_cell_angle_gamma                 90.024984
_cell_volume                      21577.2828366

loop_
_atom_site_label
_atom_site_type_symbol
_atom_type_description
_atom_site_fract_x
_atom_site_fract_y
_atom_site_fract_z
_atom_type_partial_charge
C1    C     C_R   0.400295 0.749956 0.699379 0.504972
C2    C     C_3   0.293347 0.270475 0.975227 -0.154396
C3    C     C_R   0.270690 0.251063 0.501289 0.034760
C4    C     C_R   0.772959 0.251829 0.495948 0.040580
C5    C     C_R   0.229309 0.751231 0.498752 0.035053
C6    C     C_R   0.228293 0.250866 0.501452 0.036036
C7    C     C_R   0.770675 0.751193 0.501319 0.035128
C8    C     C_R   0.457912 0.541625 0.559103 0.240410
C9    C     C_R   0.514872 0.458644 0.437765 0.251418
C10   C     C_R   0.548303 0.543026 0.434492 0.243220
C11   C     C_R   0.494488 0.458995 0.553182 0.256299
C12   C     C_R   0.959250 0.042216 0.564821 0.229626
C13   C     C_3   0.292427 0.728369 0.975569 -0.162519
C14   C     C_R   0.008024 0.959279 0.445237 0.252393
C15   C     C_R   0.045283 0.042641 0.435242 0.246154
C16   C     C_R   0.998123 0.958672 0.552126 0.251769
C17   C     C_R   0.458553 0.581941 0.562518 0.205230
C18   C     C_R   0.518085 0.418283 0.436040 0.208156
C19   C     C_R   0.545261 0.583333 0.433642 0.200820
C20   C     C_R   0.488245 0.418883 0.557947 0.208662
C21   C     C_R   0.959833 0.082717 0.565671 0.190920
C22   C     C_R   0.012341 0.918980 0.441234 0.207824
C23   C     C_R   0.042119 0.082848 0.433419 0.200552
C24   C     C_3   0.707266 0.271217 0.024864 -0.153909
C25   C     C_R   0.993412 0.918423 0.555436 0.193639
C26   C     C_R   0.501257 0.602836 0.498698 -0.043658
C27   C     C_R   0.502023 0.397979 0.498015 -0.076078
C28   C     C_R   0.000478 0.102895 0.499456 -0.034961
C29   C     C_R   0.001902 0.898064 0.498841 -0.072188
C30   C     C_R   0.503861 0.521911 0.496185 -0.037098
C31   C     C_R   0.505031 0.479281 0.495113 -0.032058
C32   C     C_R   0.002709 0.022038 0.499940 -0.029867
C33   C     C_R   0.003003 0.979411 0.499070 -0.025588
C34   C     C_R   0.500053 0.644970 0.499930 0.580597
C35   C     C_3   0.206995 0.228563 0.024757 -0.162272
C36   C     C_R   0.500250 0.355316 0.499757 0.513836
C37   C     C_R   0.000076 0.144993 0.499872 0.585375
C38   C     C_R   0.000373 0.855346 0.499741 0.518277
C39   C     C_R   0.499999 0.855204 0.499899 0.504689
C40   C     C_R   0.500008 0.144812 0.499894 0.503767
C41   C     C_R   1.000000 0.355206 0.500025 0.505060
C42   C     C_R   0.000001 0.644815 0.500021 0.503682
C43   C     C_R   0.458306 0.959064 0.563960 0.224491
C44   C     C_R   0.542051 0.041070 0.482934 0.224299
C45   C     C_R   0.541528 0.958545 0.432010 0.225692
C46   C     C_3   0.789971 0.775297 0.975458 -0.160316
C47   C     C_R   0.458593 0.041455 0.512075 0.225077
C48   C     C_R   0.958449 0.458775 0.566481 0.225195
C49   C     C_R   0.041737 0.541342 0.485886 0.224351
C50   C     C_R   0.041678 0.458856 0.434495 0.224978
C51   C     C_R   0.958197 0.541200 0.515231 0.224065
C52   C     C_R   0.457995 0.918663 0.564649 -0.045091
C53   C     C_R   0.542203 0.081471 0.483299 -0.046774
C54   C     C_R   0.541885 0.918156 0.432843 -0.044963
C55   C     C_R   0.458172 0.081843 0.513644 -0.046452
C56   C     C_R   0.958098 0.418380 0.566219 -0.044803
C57   C     C_3   0.792005 0.226970 0.975080 -0.163064
C58   C     C_R   0.042037 0.581735 0.485069 -0.046869
C59   C     C_R   0.041971 0.418459 0.434389 -0.044991
C60   C     C_R   0.957929 0.581597 0.515606 -0.046874
C61   C     C_R   0.499995 0.897815 0.499168 -0.085386
C62   C     C_R   0.500071 0.102228 0.499090 -0.088366
C63   C     C_R   0.000009 0.397822 0.500202 -0.085635
C64   C     C_R   0.000000 0.602236 0.500200 -0.088483
C65   C     C_R   0.499953 0.978881 0.497611 0.037396
C66   C     C_R   0.500340 0.021185 0.497141 0.037080
C67   C     C_R   0.000063 0.478893 0.500570 0.037112
C68   C     C_3   0.206560 0.770821 0.024609 -0.155550
C69   C     C_R   0.999971 0.521196 0.500645 0.036102
C70   C     C_3   0.229766 0.265156 0.975270 -0.018454
C71   C     C_3   0.772025 0.738967 0.024202 -0.013567
C72   C     C_3   0.770610 0.263412 0.024749 -0.018166
C73   C     C_3   0.228785 0.734030 0.975698 -0.017484
C74   C     C_3   0.727302 0.762366 0.975768 -0.017306
C75   C     C_3   0.270613 0.233892 0.024678 -0.017562
C76   C     C_3   0.270186 0.765189 0.024467 -0.017541
C77   C     C_3   0.728613 0.234780 0.975230 -0.018156
C78   C     C_3   0.427322 0.989908 0.668671 0.010390
C79   C     C_1   0.639165 0.750040 0.221356 0.024837
C80   C     C_3   0.376092 0.004255 0.744989 -0.235205
C81   C     C_3   0.386700 0.017733 0.791972 -0.491558
C82   C     C_3   0.573768 0.010852 0.527341 0.010958
C83   C     C_3   0.625658 0.998014 0.504404 -0.233956
C84   C     C_3   0.615909 0.985596 0.571601 -0.493391
C85   C     C_3   0.572453 0.987544 0.325985 0.010230
C86   C     C_3   0.624269 0.998924 0.247553 -0.235423
C87   C     C_3   0.613968 0.010172 0.199323 -0.494210
C88   C     C_3   0.427246 0.012195 0.466411 0.011375
C89   C     C_3   0.375290 0.000629 0.488433 -0.234813
C90   C     C_1   0.360950 0.249776 0.778615 0.030505
C91   C     C_3   0.385301 0.989070 0.420665 -0.494888
C92   C     C_3   0.927745 0.489120 0.671423 0.010604
C93   C     C_3   0.876497 0.502739 0.748440 -0.235023
C94   C     C_3   0.887424 0.516033 0.795141 -0.492935
C95   C     C_3   0.073373 0.511909 0.530994 0.011165
C96   C     C_3   0.125449 0.500292 0.508568 -0.234518
C97   C     C_3   0.115704 0.488723 0.576099 -0.494213
C98   C     C_3   0.072587 0.489377 0.329632 0.010626
C99   C     C_3   0.123795 0.503509 0.253110 -0.235329
C100  C     C_3   0.113025 0.516947 0.206321 -0.491989
C101  C     C_1   0.360529 0.749731 0.778661 0.025427
C102  C     C_3   0.926462 0.511328 0.470533 0.011209
C103  C     C_3   0.874442 0.499114 0.493270 -0.234445
C104  C     C_3   0.884121 0.487105 0.425941 -0.494430
C105  C     C_3   0.380905 0.511854 0.606412 0.020732
C106  C     C_3   0.324502 0.502215 0.680261 -0.250836
C107  C     C_3   0.288626 0.489661 0.668528 -0.491594
C108  C     C_3   0.480012 0.491844 0.399120 0.015571
C109  C     C_3   0.444932 0.459567 0.409298 -0.255774
C110  C     C_3   0.396431 0.476215 0.426930 -0.494306
C111  C     C_3   0.632270 0.522603 0.377721 0.036370
C112  C     C_R   0.599638 0.249961 0.300634 0.501982
C113  C     C_1   0.638962 0.249587 0.221381 0.029950
C114  C     C_3   0.687996 0.531885 0.301997 -0.231756
C115  C     C_3   0.705323 0.503569 0.241709 -0.417850
C116  C     C_3   0.533526 0.489997 0.586925 0.010709
C117  C     C_3   0.558606 0.457062 0.595283 -0.247329
C118  C     C_3   0.608976 0.470537 0.575868 -0.495062
C119  C     C_3   0.876510 0.015636 0.630900 0.032638
C120  C     C_3   0.822751 0.011692 0.711585 -0.231201
C121  C     C_3   0.822218 0.977643 0.750972 -0.409050
C122  C     C_3   0.964716 0.992051 0.419473 0.012608
C123  C     C_3   0.933219 0.959632 0.422132 -0.249277
C124  C     C_1   0.139260 0.249923 0.221367 0.025528
C125  C     C_3   0.881720 0.974987 0.446708 -0.495492
C126  C     C_3   0.131276 0.022673 0.369340 0.034735
C127  C     C_3   0.184264 0.033269 0.291194 -0.231094
C128  C     C_3   0.198702 0.005403 0.232117 -0.419319
C129  C     C_3   0.043968 0.989208 0.575590 0.017938
C130  C     C_3   0.071903 0.956407 0.579055 -0.248395
C131  C     C_3   0.124228 0.970141 0.553808 -0.497572
C132  C     C_3   0.422797 0.608786 0.673039 0.043250
C133  C     C_3   0.394733 0.578563 0.735011 -0.259372
C134  C     C_3   0.395046 0.590446 0.793542 -0.503865
C135  C     C_1   0.860503 0.750463 0.778629 0.029545
C136  C     C_3   0.587077 0.386878 0.327051 0.047928
C137  C     C_3   0.624318 0.416804 0.265650 -0.265002
C138  C     C_3   0.682074 0.402387 0.208451 -0.508952
C139  C     C_3   0.578910 0.611477 0.325069 0.045182
C140  C     C_3   0.613366 0.585026 0.256777 -0.267432
C141  C     C_3   0.610145 0.596715 0.201083 -0.499215
C142  C     C_3   0.416216 0.391508 0.670107 0.048014
C143  C     C_3   0.383786 0.420198 0.734920 -0.260623
C144  C     C_3   0.324497 0.409455 0.792950 -0.507778
C145  C     C_3   0.922441 0.104043 0.679666 0.036210
C146  C     C_1   0.860627 0.249796 0.778613 0.021674
C147  C     C_3   0.879860 0.131297 0.743335 -0.253353
C148  C     C_3   0.886330 0.136892 0.797334 -0.484616
C149  C     C_3   0.077910 0.888891 0.328833 0.050102
C150  C     C_3   0.112168 0.919451 0.267720 -0.265484
C151  C     C_3   0.170135 0.906014 0.206265 -0.510079
C152  C     C_3   0.068488 0.109151 0.327849 0.046271
C153  C     C_3   0.098261 0.081078 0.262234 -0.269550
C154  C     C_3   0.089820 0.091414 0.211612 -0.498248
C155  C     C_3   0.929383 0.895749 0.673674 0.038569
C156  C     C_3   0.920038 0.871718 0.733129 -0.237569
C157  C     C_1   0.139084 0.749972 0.221403 0.030396
C158  C     C_3   0.860512 0.864466 0.800060 -0.498512
C159  C     C_1   0.414819 0.899398 0.634403 0.281327
C160  C     C_1   0.585310 0.100844 0.469869 0.274030
C161  C     C_1   0.584999 0.898353 0.363730 0.280462
C162  C     C_1   0.415003 0.101624 0.527814 0.274136
C163  C     C_1   0.914968 0.398803 0.635583 0.281510
C164  C     C_1   0.085215 0.601384 0.471093 0.273853
C165  C     C_1   0.085097 0.398967 0.364868 0.281399
C166  C     C_1   0.914750 0.601100 0.529420 0.273770
C167  C     C_1   0.208065 0.282830 0.947425 0.207145
C168  C     C_3   0.730169 0.785976 0.025046 0.273283
C169  C     C_1   0.795992 0.725636 0.051425 0.212359
C170  C     C_1   0.792984 0.279636 0.052637 0.207311
C171  C     C_1   0.206666 0.716554 0.948282 0.208504
C172  C     C_1   0.703398 0.775506 0.948357 0.207842
C173  C     C_1   0.292494 0.216404 0.052398 0.208935
C174  C     C_1   0.292108 0.782906 0.051997 0.208769
C175  C     C_1   0.706112 0.218843 0.947347 0.205181
C176  C     C_3   0.249606 0.148028 0.999436 0.016363
C177  C     C_3   0.277068 0.108581 0.970857 -0.245789
C178  C     C_3   0.240280 0.076643 0.026908 -0.493803
C179  C     C_3   0.265112 0.213505 0.975610 0.274642
C180  C     C_3   0.735928 0.851562 0.003304 0.014029
C181  C     C_3   0.704749 0.889517 0.036353 -0.242084
C182  C     C_3   0.735456 0.922547 0.980329 -0.495306
C183  C     C_3   0.746093 0.147734 0.999445 0.014458
C184  C     C_3   0.718316 0.108438 0.028913 -0.246127
C185  C     C_3   0.753380 0.076661 0.971177 -0.490291
C186  C     C_3   0.252207 0.851605 0.998823 0.016509
C187  C     C_3   0.221692 0.873029 0.984226 -0.256626
C188  C     C_3   0.185889 0.904629 0.041921 -0.488645
C189  C     C_3   0.761923 0.649696 0.996803 0.015391
C190  C     C_3   0.264845 0.785458 0.975232 0.281107
C191  C     C_3   0.794502 0.612331 0.967502 -0.245125
C192  C     C_3   0.761387 0.578870 0.021516 -0.494532
C193  C     C_3   0.248116 0.351462 0.999000 0.016801
C194  C     C_3   0.279938 0.373337 0.010991 -0.256546
C195  C     C_3   0.315116 0.404581 0.952158 -0.488459
C196  C     C_3   0.247865 0.647971 0.003612 0.015569
C197  C     C_3   0.219459 0.608923 0.034477 -0.245891
C198  C     C_3   0.255339 0.576141 0.980294 -0.494185
C199  C     C_3   0.755584 0.350789 0.001882 0.016708
C200  C     C_3   0.724824 0.374646 0.990195 -0.256942
C201  C     C_3   0.733340 0.213178 0.024199 0.274927
C202  C     C_3   0.690659 0.405712 0.049899 -0.488823
C203  C     C_3   0.273106 0.840547 0.478372 0.011969
C204  C     C_3   0.248951 0.881046 0.505152 -0.237272
C205  C     C_3   0.270330 0.907233 0.440286 -0.498951
C206  C     C_3   0.822653 0.273024 0.329035 0.009657
C207  C     C_3   0.874407 0.264578 0.248730 -0.235387
C208  C     C_3   0.906541 0.301446 0.208122 -0.483814
C209  C     C_3   0.727572 0.840589 0.520550 0.011732
C210  C     C_3   0.752159 0.880939 0.493229 -0.236992
C211  C     C_3   0.731073 0.907357 0.557737 -0.498485
C212  C     C_3   0.235285 0.285507 0.024301 0.281291
C213  C     C_3   0.177112 0.270200 0.669805 0.009030
C214  C     C_3   0.125180 0.260704 0.749352 -0.235441
C215  C     C_3   0.092027 0.297030 0.791513 -0.483503
C216  C     C_3   0.772227 0.341558 0.480572 0.013693
C217  C     C_3   0.746728 0.381585 0.509397 -0.238720
C218  C     C_3   0.767295 0.408596 0.445887 -0.498129
C219  C     C_3   0.322973 0.769907 0.330169 0.009010
C220  C     C_3   0.375012 0.760216 0.250811 -0.235343
C221  C     C_3   0.408329 0.796448 0.208462 -0.483593
C222  C     C_3   0.227935 0.340331 0.520690 0.011742
C223  C     C_R   0.599671 0.749979 0.300620 0.504412
C224  C     C_3   0.769151 0.715376 0.974973 0.274368
C225  C     C_3   0.253356 0.380448 0.493451 -0.236947
C226  C     C_3   0.232982 0.406538 0.557984 -0.497567
C227  C     C_3   0.677204 0.770570 0.669694 0.009025
C228  C     C_3   0.625195 0.761211 0.749265 -0.235324
C229  C     C_3   0.592198 0.797621 0.791208 -0.483293
C230  C     C_1   0.332970 0.820223 0.536609 0.274913
C231  C     C_1   0.716918 0.238236 0.361707 0.277351
C232  C     C_1   0.667569 0.820084 0.462543 0.275665
C233  C     C_1   0.283020 0.236722 0.637201 0.277996
C234  C     C_1   0.831213 0.319890 0.540210 0.266165
C235  C     C_3   0.765854 0.284960 0.975850 0.281636
C236  C     C_1   0.216953 0.736334 0.362954 0.278399
C237  C     C_1   0.167487 0.320092 0.462795 0.275465
C238  C     C_1   0.782997 0.736892 0.637251 0.277799
C239  C     C_1   0.369302 0.680494 0.462184 0.277379
C240  C     C_1   0.581453 0.263962 0.635699 0.272200
C241  C     C_1   0.630311 0.680596 0.538489 0.276765
C242  C     C_1   0.419250 0.264030 0.363747 0.275143
C243  C     C_1   0.871562 0.181429 0.456962 0.276714
C244  C     C_1   0.080854 0.764784 0.636070 0.274696
C245  C     C_1   0.130292 0.180562 0.538434 0.275954
C246  C     C_3   0.234092 0.713734 0.025003 0.274305
C247  C     C_1   0.919272 0.763961 0.363718 0.275333
C248  C     C_3   0.250627 0.661976 0.518156 0.010746
C249  C     C_3   0.249615 0.622871 0.490716 -0.233338
C250  C     C_3   0.203249 0.597852 0.555049 -0.489370
C251  C     C_3   0.656888 0.233168 0.665681 0.014075
C252  C     C_3   0.643520 0.243464 0.736557 -0.236756
C253  C     C_3   0.690322 0.263659 0.719250 -0.373883
C254  C     C_3   0.748703 0.661885 0.483089 0.010816
C255  C     C_3   0.749388 0.622886 0.511057 -0.233365
C256  C     C_3   0.795623 0.597629 0.447077 -0.489682
C257  C     C_3   0.712757 0.750108 0.073603 0.002401
C258  C     C_3   0.344786 0.232300 0.332469 0.009137
C259  C     C_3   0.370986 0.242330 0.253761 -0.236324
C260  C     C_3   0.379307 0.206321 0.211413 -0.479799
C261  C     C_3   0.754861 0.162398 0.507906 0.011266
C262  C     C_3   0.757233 0.123485 0.476778 -0.233061
C263  C     C_3   0.711468 0.097039 0.538216 -0.488320
C264  C     C_3   0.154965 0.733068 0.667846 0.009183
C265  C     C_3   0.128786 0.743392 0.746456 -0.236443
C266  C     C_3   0.120078 0.707532 0.789313 -0.479241
C267  C     C_3   0.248761 0.161807 0.482911 0.010930
C268  C     C_3   0.287296 0.249674 0.926335 0.001831
C269  C     C_3   0.249538 0.122819 0.510823 -0.233237
C270  C     C_3   0.295857 0.097618 0.446819 -0.489666
C271  C     C_3   0.844757 0.732305 0.332514 0.008887
C272  C     C_3   0.870901 0.742308 0.253823 -0.235552
C273  C     C_3   0.879160 0.706285 0.211546 -0.479734
C274  C     C_3   0.286553 0.749119 0.926433 -0.000791
C275  C     C_3   0.712524 0.249196 0.073646 0.002325
C276  C     C_3   0.213080 0.249379 0.073636 -0.000528
C277  C     C_3   0.786599 0.751205 0.926364 0.001812
C278  C     C_3   0.786701 0.249008 0.926330 -0.001175
C279  C     C_R   0.400357 0.249987 0.699370 0.502666
C280  C     C_3   0.212458 0.750115 0.073688 0.002090
C281  C     C_1   0.672367 0.750084 0.154635 -0.007257
C282  C     C_1   0.327755 0.249617 0.845324 -0.004022
C283  C     C_1   0.327117 0.749442 0.845390 -0.007647
C284  C     C_1   0.672097 0.249262 0.154668 -0.004460
C285  C     C_1   0.172567 0.249753 0.154651 -0.008134
C286  C     C_1   0.827114 0.750860 0.845341 -0.004613
C287  C     C_1   0.827259 0.249498 0.845322 -0.009910
C288  C     C_1   0.172164 0.750017 0.154698 -0.003334
C289  C     C_R   0.282589 0.784789 0.517452 0.224871
C290  C     C_R   0.900327 0.249980 0.699364 0.499756
C291  C     C_R   0.743016 0.245724 0.430163 0.225855
C292  C     C_R   0.717648 0.784698 0.482190 0.224876
C293  C     C_R   0.257632 0.244227 0.567869 0.226246
C294  C     C_R   0.782868 0.285228 0.516989 0.217683
C295  C     C_R   0.242345 0.744172 0.432233 0.226452
C296  C     C_R   0.217616 0.284655 0.482306 0.224688
C297  C     C_R   0.757607 0.744408 0.567917 0.226542
C298  C     C_R   0.322442 0.784458 0.518409 -0.047715
C299  C     C_R   0.702095 0.244442 0.431428 -0.046191
C300  C     C_R   0.677816 0.784376 0.481189 -0.047650
C301  C     C_R   0.099660 0.750019 0.300643 0.502663
C302  C     C_R   0.298215 0.243352 0.567332 -0.045985
C303  C     C_R   0.822137 0.284581 0.519064 -0.056423
C304  C     C_R   0.201764 0.743235 0.432767 -0.046119
C305  C     C_R   0.177779 0.284359 0.481315 -0.047591
C306  C     C_R   0.798196 0.743476 0.567369 -0.046126
C307  C     C_R   0.352307 0.750317 0.499518 -0.089659
C308  C     C_R   0.648226 0.250649 0.498902 -0.086774
C309  C     C_R   0.647724 0.750307 0.500440 -0.089814
C310  C     C_R   0.352079 0.250281 0.500432 -0.087106
C311  C     C_R   0.852623 0.250596 0.498784 -0.091857
C312  C     C_R   0.099661 0.249988 0.300625 0.506244
C313  C     C_R   0.147928 0.750367 0.499584 -0.087202
C314  C     C_R   0.147714 0.250288 0.500463 -0.089864
C315  C     C_R   0.852076 0.750311 0.500438 -0.087149
C316  C     C_R   0.341161 0.716512 0.480094 -0.045141
C317  C     C_R   0.635986 0.257867 0.565153 -0.048434
C318  C     C_R   0.658634 0.716567 0.520269 -0.045051
C319  C     C_R   0.364649 0.257686 0.433991 -0.047155
C320  C     C_R   0.842698 0.217293 0.476680 -0.045447
C321  C     C_R   0.135399 0.758082 0.565934 -0.046545
C322  C     C_R   0.158637 0.216521 0.520219 -0.044956
C323  C     C_R   0.900278 0.750097 0.699377 0.505472
C324  C     C_R   0.864657 0.757689 0.433982 -0.046895
C325  C     C_R   0.300763 0.716806 0.480198 0.223238
C326  C     C_R   0.676812 0.258051 0.564160 0.223592
C327  C     C_R   0.698975 0.716864 0.520279 0.223160
C328  C     C_R   0.324166 0.257603 0.434304 0.224279
C329  C     C_R   0.802877 0.217889 0.475648 0.223052
C330  C     C_R   0.175873 0.758009 0.565644 0.224381
C331  C     C_R   0.198994 0.216781 0.520195 0.223282
C332  C     C_R   0.824166 0.757652 0.434305 0.224455
C333  C     C_R   0.605254 0.750033 0.500038 0.505939
C334  C     C_3   0.709372 0.726034 0.024530 -0.162374
C335  C     C_R   0.394797 0.250020 0.500035 0.504963
C336  C     C_R   0.394756 0.750033 0.499939 0.506449
C337  C     C_R   0.605222 0.250060 0.499918 0.505033
C338  C     C_R   0.105249 0.250034 0.500049 0.505560
C339  C     C_R   0.894799 0.750022 0.500032 0.505364
C340  C     C_R   0.894762 0.250053 0.499884 0.505380
C341  C     C_R   0.105207 0.750038 0.499975 0.505964
C342  C     C_R   0.271680 0.750969 0.498639 0.036283
C343  C     C_R   0.730298 0.252127 0.496610 0.034520
C344  C     C_R   0.728288 0.750953 0.501461 0.036260
H1    H     H_    0.676218 0.706214 0.045378 0.105667
H2    H     H_    0.443403 0.965105 0.676753 0.113850
H3    H     H_    0.973174 0.015020 0.381429 0.149706
H4    H     H_    0.940021 0.005881 0.474899 0.093005
H5    H     H_    0.958462 0.946317 0.366102 0.200964
H6    H     H_    0.922478 0.936974 0.462087 0.173437
H7    H     H_    0.855595 0.987926 0.503148 0.137715
H8    H     H_    0.859727 0.950876 0.448444 0.152868
H9    H     H_    0.891056 0.997168 0.406961 0.154248
H10   H     H_    0.134397 0.992991 0.383045 0.114334
H11   H     H_    0.125756 0.042994 0.409050 0.101304
H12   H     H_    0.181733 0.063122 0.277520 0.191174
H13   H     H_    0.359281 0.028735 0.737783 0.190700
H14   H     H_    0.216725 0.032694 0.290332 0.104274
H15   H     H_    0.201629 0.975440 0.244917 0.141701
H16   H     H_    0.238024 0.013665 0.176887 0.123046
H17   H     H_    0.168180 0.006563 0.229264 0.181328
H18   H     H_    0.037526 0.013735 0.609794 0.152194
H19   H     H_    0.070394 0.000295 0.517815 0.092903
H20   H     H_    0.044923 0.945396 0.637006 0.196895
H21   H     H_    0.081093 0.932322 0.542246 0.183776
H22   H     H_    0.152084 0.980712 0.495508 0.137128
H23   H     H_    0.143558 0.945737 0.556611 0.153420
H24   H     H_    0.346056 0.980538 0.774621 0.181700
H25   H     H_    0.116391 0.993753 0.590480 0.154613
H26   H     H_    0.404974 0.637581 0.698713 0.164687
H27   H     H_    0.465923 0.610705 0.643135 0.138205
H28   H     H_    0.352621 0.574861 0.762099 0.182865
H29   H     H_    0.415775 0.550426 0.710976 0.217193
H30   H     H_    0.436761 0.595169 0.767347 0.159367
H31   H     H_    0.376844 0.567125 0.835559 0.149159
H32   H     H_    0.371498 0.617381 0.822039 0.144676
H33   H     H_    0.590854 0.359322 0.300843 0.169685
H34   H     H_    0.600270 0.380556 0.356144 0.096514
H35   H     H_    0.402644 0.993524 0.801056 0.148716
H36   H     H_    0.610734 0.423073 0.237285 0.186480
H37   H     H_    0.622790 0.443982 0.290673 0.208206
H38   H     H_    0.696836 0.396920 0.235468 0.151573
H39   H     H_    0.707989 0.424595 0.164545 0.145378
H40   H     H_    0.684902 0.375292 0.182022 0.148066
H41   H     H_    0.590947 0.641924 0.305995 0.169286
H42   H     H_    0.536047 0.609012 0.353864 0.135239
H43   H     H_    0.655800 0.586540 0.229094 0.168494
H44   H     H_    0.599243 0.554738 0.274313 0.214253
H45   H     H_    0.567913 0.596156 0.227822 0.158822
H46   H     H_    0.348729 0.027993 0.846895 0.146182
H47   H     H_    0.633669 0.576074 0.153821 0.145945
H48   H     H_    0.626871 0.626189 0.179244 0.146019
H49   H     H_    0.410309 0.362074 0.692581 0.167849
H50   H     H_    0.400258 0.390667 0.643690 0.093747
H51   H     H_    0.399374 0.420534 0.761563 0.178500
H52   H     H_    0.388092 0.449665 0.713796 0.216433
H53   H     H_    0.308039 0.409165 0.767508 0.150124
H54   H     H_    0.301979 0.431078 0.838595 0.145814
H55   H     H_    0.318870 0.380511 0.816765 0.148954
H56   H     H_    0.962777 0.115005 0.652543 0.153816
H57   H     H_    0.415965 0.041922 0.763917 0.149105
H58   H     H_    0.916424 0.074850 0.703156 0.175701
H59   H     H_    0.883103 0.159848 0.720157 0.195896
H60   H     H_    0.839380 0.119339 0.774003 0.158464
H61   H     H_    0.880768 0.108965 0.823886 0.142153
H62   H     H_    0.855862 0.157739 0.841309 0.133613
H63   H     H_    0.926667 0.148667 0.767732 0.170614
H64   H     H_    0.080259 0.861602 0.303200 0.172243
H65   H     H_    0.094939 0.882318 0.352744 0.099191
H66   H     H_    0.095464 0.925390 0.243415 0.184601
H67   H     H_    0.111441 0.946636 0.292001 0.212102
H68   H     H_    0.545161 0.986251 0.555670 0.116675
H69   H     H_    0.188074 0.901168 0.229096 0.151276
H70   H     H_    0.193834 0.928479 0.162311 0.145329
H71   H     H_    0.172142 0.878740 0.180951 0.146700
H72   H     H_    0.080853 0.139103 0.305680 0.171668
H73   H     H_    0.024500 0.107358 0.362216 0.136795
H74   H     H_    0.141820 0.081916 0.229223 0.168694
H75   H     H_    0.083343 0.051254 0.283320 0.217590
H76   H     H_    0.046436 0.091327 0.243563 0.160795
H77   H     H_    0.110260 0.069759 0.166238 0.147267
H78   H     H_    0.106863 0.120405 0.186479 0.147730
H79   H     H_    0.556755 0.035609 0.566833 0.110883
H80   H     H_    0.909344 0.881162 0.658557 0.115617
H81   H     H_    0.911348 0.924825 0.697137 0.158866
H82   H     H_    0.940891 0.843501 0.709061 0.217988
H83   H     H_    0.937095 0.887153 0.751805 0.168233
H84   H     H_    0.838957 0.892332 0.825530 0.139316
H85   H     H_    0.855249 0.847198 0.842211 0.142146
H86   H     H_    0.842949 0.848107 0.782980 0.151461
H87   H     H_    0.212690 0.146922 0.010108 0.133927
H88   H     H_    0.238453 0.154204 0.052567 0.131597
H89   H     H_    0.288771 0.101952 0.917614 0.178683
H90   H     H_    0.643180 0.973361 0.464929 0.195934
H91   H     H_    0.313948 0.109354 0.960208 0.178181
H92   H     H_    0.228229 0.082515 0.080568 0.148123
H93   H     H_    0.261657 0.048516 0.004883 0.142967
H94   H     H_    0.203921 0.074586 0.036520 0.148976
H95   H     H_    0.743846 0.844739 0.952796 0.135374
H96   H     H_    0.774632 0.855367 0.987447 0.131809
H97   H     H_    0.665504 0.885979 0.053748 0.177914
H98   H     H_    0.697135 0.896962 0.086326 0.184566
H99   H     H_    0.774868 0.926684 0.962158 0.149742
H100  H     H_    0.712089 0.949732 0.006554 0.144787
H101  H     H_    0.654850 0.022280 0.475803 0.179951
H102  H     H_    0.741812 0.916338 0.931028 0.145060
H103  H     H_    0.784194 0.146046 0.985710 0.132597
H104  H     H_    0.755061 0.154258 0.948043 0.132623
H105  H     H_    0.709283 0.101237 0.080041 0.178638
H106  H     H_    0.679920 0.109776 0.043479 0.178355
H107  H     H_    0.762286 0.082975 0.919901 0.149036
H108  H     H_    0.732066 0.048542 0.994113 0.142467
H109  H     H_    0.791599 0.074300 0.956854 0.149891
H110  H     H_    0.278947 0.872452 0.993792 0.156792
H111  H     H_    0.223619 0.840712 0.057274 0.111978
H112  H     H_    0.328795 0.287376 0.954121 0.114417
H113  H     H_    0.599454 0.010071 0.611117 0.144940
H114  H     H_    0.250801 0.886298 0.927946 0.189260
H115  H     H_    0.196517 0.852269 0.985736 0.171006
H116  H     H_    0.154945 0.891770 0.098262 0.152958
H117  H     H_    0.165416 0.920158 0.028600 0.157697
H118  H     H_    0.210153 0.925744 0.041647 0.143614
H119  H     H_    0.725867 0.644833 0.006248 0.134526
H120  H     H_    0.749117 0.657154 0.050664 0.130122
H121  H     H_    0.808566 0.604790 0.913012 0.178522
H122  H     H_    0.830170 0.616750 0.959039 0.178018
H123  H     H_    0.746444 0.585805 0.076712 0.148954
H124  H     H_    0.654326 0.976325 0.552922 0.147953
H125  H     H_    0.786636 0.552501 0.999462 0.143009
H126  H     H_    0.726881 0.572856 0.028010 0.147110
H127  H     H_    0.220943 0.372127 0.004696 0.156890
H128  H     H_    0.275872 0.340114 0.940880 0.112910
H129  H     H_    0.251721 0.386989 0.066985 0.188650
H130  H     H_    0.305730 0.352799 0.008540 0.170458
H131  H     H_    0.344709 0.391381 0.895896 0.152661
H132  H     H_    0.337166 0.420142 0.962925 0.157101
H133  H     H_    0.290128 0.425731 0.954018 0.144307
H134  H     H_    0.285041 0.646780 0.992294 0.134072
H135  H     H_    0.587380 0.960973 0.600465 0.149824
H136  H     H_    0.258609 0.653454 0.950605 0.131414
H137  H     H_    0.207732 0.603203 0.087982 0.180006
H138  H     H_    0.182511 0.609722 0.045292 0.178223
H139  H     H_    0.267517 0.581145 0.926344 0.151930
H140  H     H_    0.233199 0.548357 0.003899 0.143701
H141  H     H_    0.291612 0.573994 0.970872 0.149275
H142  H     H_    0.783645 0.370169 0.996540 0.156513
H143  H     H_    0.727240 0.339199 0.059837 0.112188
H144  H     H_    0.753702 0.388667 0.934605 0.187118
H145  H     H_    0.698407 0.355360 0.991841 0.170758
H146  H     H_    0.544676 0.012628 0.351679 0.116668
H147  H     H_    0.660099 0.392168 0.105663 0.153037
H148  H     H_    0.669757 0.422956 0.038952 0.156690
H149  H     H_    0.716195 0.425409 0.049413 0.144117
H150  H     H_    0.262289 0.827892 0.449361 0.116238
H151  H     H_    0.317580 0.843121 0.438575 0.110053
H152  H     H_    0.204635 0.879098 0.544377 0.183292
H153  H     H_    0.258866 0.893980 0.535122 0.184381
H154  H     H_    0.314518 0.910173 0.401002 0.146960
H155  H     H_    0.252042 0.936367 0.461658 0.143751
H156  H     H_    0.260033 0.895199 0.410280 0.145326
H157  H     H_    0.554198 0.962689 0.321664 0.110985
H158  H     H_    0.833309 0.286427 0.357756 0.116520
H159  H     H_    0.798269 0.293733 0.328454 0.111157
H160  H     H_    0.899215 0.243945 0.248234 0.187830
H161  H     H_    0.864602 0.251065 0.219003 0.189774
H162  H     H_    0.882838 0.322243 0.206771 0.151323
H163  H     H_    0.943867 0.294338 0.150048 0.159845
H164  H     H_    0.917502 0.315103 0.236297 0.145841
H165  H     H_    0.738206 0.827994 0.549799 0.116187
H166  H     H_    0.683130 0.843397 0.560241 0.110173
H167  H     H_    0.796452 0.878744 0.454033 0.184819
H168  H     H_    0.642905 0.023781 0.250792 0.189390
H169  H     H_    0.742384 0.893830 0.463086 0.184033
H170  H     H_    0.686938 0.910628 0.596870 0.146830
H171  H     H_    0.749810 0.936340 0.535939 0.143778
H172  H     H_    0.741105 0.895308 0.588037 0.145302
H173  H     H_    0.166634 0.284005 0.641159 0.115446
H174  H     H_    0.200683 0.290874 0.672054 0.112001
H175  H     H_    0.101187 0.240083 0.748174 0.187642
H176  H     H_    0.134800 0.246794 0.779009 0.189403
H177  H     H_    0.114902 0.317794 0.794532 0.152028
H178  H     H_    0.054598 0.289164 0.848993 0.159976
H179  H     H_    0.652723 0.974215 0.221175 0.182754
H180  H     H_    0.081235 0.311061 0.763409 0.145969
H181  H     H_    0.762035 0.329199 0.450619 0.116915
H182  H     H_    0.816585 0.344818 0.441269 0.113108
H183  H     H_    0.702497 0.378898 0.548389 0.183278
H184  H     H_    0.756113 0.394275 0.540157 0.182243
H185  H     H_    0.811326 0.412427 0.407082 0.146372
H186  H     H_    0.747787 0.437293 0.468803 0.144206
H187  H     H_    0.757728 0.396705 0.414914 0.144472
H188  H     H_    0.333316 0.783860 0.358901 0.115206
H189  H     H_    0.299561 0.790507 0.327540 0.112280
H190  H     H_    0.596434 0.985436 0.193920 0.146342
H191  H     H_    0.398825 0.739643 0.252382 0.187925
H192  H     H_    0.365530 0.746178 0.221048 0.189250
H193  H     H_    0.385638 0.817160 0.205054 0.151875
H194  H     H_    0.445832 0.788440 0.151125 0.160342
H195  H     H_    0.418987 0.810599 0.236672 0.145599
H196  H     H_    0.238199 0.327256 0.550086 0.115513
H197  H     H_    0.183570 0.343612 0.560191 0.110875
H198  H     H_    0.297607 0.377718 0.454106 0.185199
H199  H     H_    0.243750 0.393938 0.463491 0.183395
H200  H     H_    0.188925 0.410398 0.597216 0.146854
H201  H     H_    0.652351 0.018414 0.142955 0.145064
H202  H     H_    0.252413 0.435327 0.536223 0.144381
H203  H     H_    0.242791 0.393846 0.588171 0.144808
H204  H     H_    0.666838 0.784382 0.640917 0.115314
H205  H     H_    0.700842 0.791199 0.671884 0.112132
H206  H     H_    0.601136 0.740636 0.748143 0.187512
H207  H     H_    0.634709 0.747296 0.779049 0.190221
H208  H     H_    0.615138 0.818340 0.794175 0.151868
H209  H     H_    0.554708 0.789853 0.848709 0.160127
H210  H     H_    0.581517 0.811661 0.762973 0.145805
H211  H     H_    0.211707 0.676571 0.548267 0.115938
H212  H     H_    0.586144 0.035188 0.224150 0.148794
H213  H     H_    0.255785 0.656952 0.557002 0.114760
H214  H     H_    0.245354 0.627479 0.450984 0.198444
H215  H     H_    0.287998 0.607495 0.461137 0.178067
H216  H     H_    0.207143 0.592287 0.594911 0.144198
H217  H     H_    0.203639 0.569729 0.533212 0.150267
H218  H     H_    0.164395 0.612416 0.584572 0.151697
H219  H     H_    0.693477 0.214928 0.630559 0.099718
H220  H     H_    0.622978 0.216093 0.681614 0.110261
H221  H     H_    0.607718 0.262553 0.772080 0.182115
H222  H     H_    0.633804 0.216529 0.768123 0.113503
H223  H     H_    0.327654 0.711282 0.954817 0.107186
H224  H     H_    0.455076 0.987143 0.438469 0.117527
H225  H     H_    0.726646 0.245112 0.683175 0.140982
H226  H     H_    0.679760 0.269415 0.771869 0.140356
H227  H     H_    0.699272 0.291654 0.690825 0.223644
H228  H     H_    0.787721 0.676355 0.452860 0.116051
H229  H     H_    0.743569 0.656714 0.444240 0.113466
H230  H     H_    0.753592 0.627643 0.550827 0.198550
H231  H     H_    0.710914 0.607621 0.540726 0.177352
H232  H     H_    0.791790 0.591927 0.407174 0.142491
H233  H     H_    0.794988 0.569583 0.469285 0.150188
H234  H     H_    0.834559 0.612080 0.417493 0.152016
H235  H     H_    0.445304 0.036988 0.426823 0.110537
H236  H     H_    0.305621 0.218293 0.361878 0.115765
H237  H     H_    0.371359 0.211652 0.328596 0.113957
H238  H     H_    0.345123 0.263058 0.256613 0.192585
H239  H     H_    0.410387 0.256304 0.223214 0.185621
H240  H     H_    0.405825 0.185442 0.206777 0.148766
H241  H     H_    0.398362 0.214574 0.154544 0.164695
H242  H     H_    0.340248 0.192264 0.240394 0.151534
H243  H     H_    0.715519 0.175926 0.536859 0.119129
H244  H     H_    0.758415 0.157197 0.548426 0.111465
H245  H     H_    0.754640 0.128257 0.435342 0.198997
H246  H     H_    0.356803 0.975874 0.527781 0.194540
H247  H     H_    0.796073 0.109163 0.448279 0.177726
H248  H     H_    0.713725 0.091329 0.579735 0.142915
H249  H     H_    0.714376 0.069078 0.513743 0.150769
H250  H     H_    0.672228 0.110520 0.566505 0.153943
H251  H     H_    0.193998 0.718908 0.638665 0.115955
H252  H     H_    0.128237 0.712472 0.671928 0.114225
H253  H     H_    0.154814 0.764060 0.743397 0.192582
H254  H     H_    0.089528 0.757538 0.776755 0.185881
H255  H     H_    0.093390 0.686721 0.794162 0.148799
H256  H     H_    0.101050 0.715999 0.846096 0.164640
H257  H     H_    0.346810 0.025327 0.516893 0.180123
H258  H     H_    0.158991 0.693308 0.760582 0.152826
H259  H     H_    0.287756 0.176316 0.452677 0.116071
H260  H     H_    0.243612 0.156619 0.444084 0.113466
H261  H     H_    0.253701 0.127601 0.550632 0.198778
H262  H     H_    0.211111 0.107497 0.540436 0.177444
H263  H     H_    0.292080 0.091900 0.406861 0.142765
H264  H     H_    0.295275 0.069577 0.468989 0.150226
H265  H     H_    0.334749 0.112121 0.417308 0.152086
H266  H     H_    0.805582 0.718297 0.361990 0.115707
H267  H     H_    0.871350 0.711667 0.328615 0.113869
H268  H     H_    0.402667 0.013702 0.381301 0.145020
H269  H     H_    0.845022 0.763035 0.256705 0.193664
H270  H     H_    0.910318 0.756274 0.223203 0.185592
H271  H     H_    0.905691 0.685406 0.206878 0.148167
H272  H     H_    0.898173 0.714521 0.154689 0.165673
H273  H     H_    0.840083 0.692237 0.240600 0.151211
H274  H     H_    0.346829 0.980683 0.438695 0.147053
H275  H     H_    0.413161 0.964069 0.391864 0.148710
H276  H     H_    0.956786 0.513444 0.643498 0.115059
H277  H     H_    0.944568 0.464348 0.678340 0.113443
H278  H     H_    0.858907 0.527148 0.742420 0.190610
H279  H     H_    0.672518 0.289115 0.045999 0.114386
H280  H     H_    0.846992 0.478678 0.777628 0.181490
H281  H     H_    0.904172 0.491885 0.803025 0.148475
H282  H     H_    0.849432 0.525749 0.850596 0.146548
H283  H     H_    0.916141 0.540562 0.767559 0.147724
H284  H     H_    0.045531 0.486862 0.558971 0.117664
H285  H     H_    0.055429 0.536673 0.570671 0.110218
H286  H     H_    0.143793 0.475529 0.469203 0.194773
H287  H     H_    0.153958 0.524967 0.480002 0.180525
H288  H     H_    0.098495 0.513365 0.615459 0.144932
H289  H     H_    0.154253 0.480292 0.557786 0.147345
H290  H     H_    0.171525 0.211739 0.045716 0.106822
H291  H     H_    0.087809 0.463749 0.605010 0.149427
H292  H     H_    0.043165 0.513464 0.357926 0.114519
H293  H     H_    0.056298 0.464548 0.321901 0.113833
H294  H     H_    0.140862 0.527965 0.259975 0.190525
H295  H     H_    0.153675 0.479689 0.223522 0.181725
H296  H     H_    0.096830 0.492759 0.197563 0.149027
H297  H     H_    0.150979 0.527059 0.151257 0.146051
H298  H     H_    0.083913 0.541233 0.234334 0.148607
H299  H     H_    0.954661 0.486484 0.442373 0.117137
H300  H     H_    0.943951 0.536070 0.430945 0.110687
H301  H     H_    0.823185 0.795052 0.954587 0.108143
H302  H     H_    0.856508 0.474415 0.532671 0.194551
H303  H     H_    0.845608 0.523600 0.521896 0.180273
H304  H     H_    0.900952 0.511654 0.386523 0.144972
H305  H     H_    0.845608 0.478270 0.444487 0.147009
H306  H     H_    0.912309 0.462288 0.397016 0.149397
H307  H     H_    0.397691 0.485798 0.570311 0.114899
H308  H     H_    0.377867 0.536002 0.579826 0.136533
H309  H     H_    0.326461 0.478483 0.708202 0.162409
H310  H     H_    0.306784 0.528052 0.717027 0.177693
H311  H     H_    0.285237 0.513218 0.641789 0.148621
H312  H     H_    0.826895 0.209256 0.953950 0.106627
H313  H     H_    0.247991 0.482819 0.723084 0.148112
H314  H     H_    0.305246 0.463448 0.632860 0.143025
H315  H     H_    0.492985 0.511003 0.353380 0.150928
H316  H     H_    0.456425 0.510430 0.449234 0.096857
H317  H     H_    0.469049 0.442044 0.357573 0.204623
H318  H     H_    0.430215 0.440336 0.455898 0.161770
H319  H     H_    0.371379 0.493326 0.479219 0.140250
H320  H     H_    0.371766 0.452285 0.434248 0.153218
H321  H     H_    0.409522 0.495020 0.380743 0.155657
H322  H     H_    0.632427 0.492907 0.394537 0.113283
H323  H     H_    0.171312 0.787948 0.045568 0.113605
H324  H     H_    0.624477 0.543215 0.418840 0.104169
H325  H     H_    0.688260 0.561727 0.285377 0.187186
H326  H     H_    0.717437 0.530671 0.306941 0.103303
H327  H     H_    0.705544 0.473600 0.257380 0.140352
H328  H     H_    0.746404 0.510910 0.188455 0.121956
H329  H     H_    0.677948 0.505312 0.233154 0.183627
H330  H     H_    0.524395 0.514351 0.623267 0.148022
H331  H     H_    0.562774 0.501329 0.529132 0.095543
H332  H     H_    0.529073 0.446279 0.653513 0.196218
H333  H     H_    0.569628 0.432854 0.557582 0.180987
H334  H     H_    0.456882 0.013909 0.640257 0.114338
H335  H     H_    0.639269 0.480957 0.517448 0.136750
H336  H     H_    0.626396 0.446051 0.581928 0.154578
H337  H     H_    0.599145 0.494207 0.613760 0.154128
H338  H     H_    0.885154 0.988335 0.600698 0.108596
H339  H     H_    0.872220 0.039528 0.605282 0.117383
H340  H     H_    0.814068 0.038800 0.742267 0.172959
H341  H     H_    0.790611 0.007426 0.712357 0.103857
H342  H     H_    0.831366 0.950302 0.720675 0.126216
H343  H     H_    0.781943 0.975078 0.808328 0.119521
H344  H     H_    0.852037 0.982202 0.754596 0.193241
N1    N     N_1   0.380297 0.884121 0.690239 -0.262532
N2    N     N_1   0.814862 0.715093 0.072920 -0.303399
N3    N     N_1   0.810569 0.292461 0.074687 -0.301182
N4    N     N_1   0.189255 0.702747 0.926633 -0.303881
N5    N     N_1   0.684592 0.785894 0.926693 -0.298855
N6    N     N_1   0.309713 0.202587 0.074286 -0.305079
N7    N     N_1   0.309343 0.796906 0.073759 -0.302056
N8    N     N_1   0.688413 0.206250 0.925314 -0.308414
N9    N     N_1   0.341297 0.848861 0.551072 -0.274523
N10   N     N_1   0.728898 0.233316 0.305911 -0.262312
N11   N     N_1   0.659468 0.848679 0.447725 -0.274334
N12   N     N_1   0.619761 0.116207 0.459221 -0.280620
N13   N     N_1   0.270738 0.231460 0.693120 -0.262535
N14   N     N_1   0.838351 0.348173 0.557057 -0.276085
N15   N     N_1   0.229232 0.730855 0.307077 -0.262343
N16   N     N_1   0.159349 0.348707 0.448075 -0.273982
N17   N     N_1   0.770714 0.731668 0.693180 -0.261434
N18   N     N_1   0.391645 0.651657 0.447936 -0.297066
N19   N     N_1   0.537923 0.268812 0.692145 -0.276989
N20   N     N_1   0.607827 0.651796 0.552981 -0.300098
N21   N     N_1   0.462826 0.269070 0.307534 -0.276736
N22   N     N_1   0.894481 0.152715 0.441253 -0.303329
N23   N     N_1   0.619466 0.882649 0.308397 -0.262566
N24   N     N_1   0.037323 0.770122 0.692185 -0.283979
N25   N     N_1   0.107785 0.151775 0.552930 -0.301850
N26   N     N_1   0.962860 0.768944 0.307491 -0.277948
N27   N     N_1   0.380503 0.117314 0.539046 -0.279819
N28   N     N_1   0.880482 0.383275 0.691111 -0.262552
N29   N     N_1   0.119721 0.616969 0.460014 -0.279859
N30   N     N_1   0.119580 0.383508 0.309216 -0.261320
N31   N     N_1   0.880243 0.616567 0.540372 -0.280071
N32   N     N_1   0.191007 0.296796 0.925414 -0.302260
O1    O     O_3   0.500000 0.749990 0.500000 -0.455448
O2    O     O_R   0.104930 0.727270 0.335600 -0.520020
O3    O     O_3   0.836773 0.766713 0.369566 -0.516493
O4    O     O_R   0.104930 0.272730 0.335600 -0.516608
O5    O     O_R   0.895070 0.727270 0.664400 -0.519287
O6    O     O_R   0.565180 0.727260 0.543110 -0.529740
O7    O     O_R   0.434820 0.272740 0.456890 -0.528765
O8    O     O_R   0.434820 0.727260 0.456890 -0.529737
O9    O     O_R   0.565180 0.272740 0.543110 -0.528832
O10   O     O_R   0.065180 0.227260 0.543110 -0.530245
O11   O     O_R   0.934820 0.772740 0.456890 -0.528001
O12   O     O_R   0.934820 0.227260 0.456890 -0.529697
O13   O     O_3   0.500000 0.250010 0.500000 -0.460637
O14   O     O_R   0.065180 0.772740 0.543110 -0.530382
O15   O     O_R   0.501190 0.663260 0.543120 -0.540231
O16   O     O_R   0.498810 0.336740 0.456880 -0.513519
O17   O     O_R   0.498810 0.663260 0.456880 -0.539808
O18   O     O_R   0.501190 0.336740 0.543120 -0.513782
O19   O     O_R   0.001190 0.163260 0.543120 -0.530744
O20   O     O_R   0.998810 0.836740 0.456880 -0.516176
O21   O     O_R   0.998810 0.163260 0.456880 -0.540604
O22   O     O_R   0.001190 0.836740 0.543120 -0.508043
O23   O     O_R   0.455720 0.836720 0.543090 -0.521781
O24   O     O_3   0.000000 0.249990 0.500000 -0.455486
O25   O     O_R   0.544280 0.163280 0.456910 -0.525685
O26   O     O_R   0.544280 0.836720 0.456910 -0.521836
O27   O     O_R   0.455720 0.163280 0.543090 -0.526041
O28   O     O_R   0.955720 0.336720 0.543090 -0.521435
O29   O     O_R   0.044280 0.663280 0.456910 -0.525945
O30   O     O_R   0.044280 0.336720 0.456910 -0.521700
O31   O     O_R   0.955720 0.663280 0.543090 -0.525970
O32   O     O_R   0.608280 0.772740 0.456900 -0.525396
O33   O     O_R   0.391720 0.227260 0.543100 -0.519434
O34   O     O_R   0.391720 0.772740 0.543100 -0.525438
O35   O     O_3   1.000000 0.750010 0.500000 -0.459320
O36   O     O_R   0.608280 0.227260 0.456900 -0.519816
O37   O     O_R   0.108280 0.272740 0.456900 -0.525572
O38   O     O_R   0.891720 0.727260 0.543100 -0.519669
O39   O     O_R   0.891720 0.272740 0.543100 -0.527561
O40   O     O_R   0.108280 0.727260 0.456900 -0.519179
O41   O     O_R   0.440550 0.727250 0.664400 -0.554915
O42   O     O_R   0.559450 0.272750 0.335600 -0.542549
O43   O     O_R   0.559450 0.727250 0.335600 -0.557119
O44   O     O_R   0.440550 0.272750 0.664400 -0.541286
O45   O     O_R   0.940550 0.227250 0.664400 -0.554712
O46   O     O_R   0.395070 0.772730 0.664400 -0.516857
O47   O     O_R   0.059450 0.772750 0.335600 -0.544757
O48   O     O_R   0.059450 0.227250 0.335600 -0.555702
O49   O     O_R   0.940550 0.772750 0.664400 -0.551125
O50   O     O_3   0.415296 0.979057 0.627119 -0.516400
O51   O     O_3   0.585183 0.021137 0.462845 -0.516066
O52   O     O_3   0.584458 0.978092 0.368063 -0.516446
O53   O     O_3   0.415529 0.021856 0.531368 -0.516576
O54   O     O_3   0.915435 0.478488 0.630125 -0.516634
O55   O     O_3   0.084845 0.521634 0.466255 -0.516344
O56   O     O_3   0.084735 0.478642 0.371061 -0.516277
O57   O     O_R   0.604930 0.227270 0.335600 -0.520107
O58   O     O_3   0.915060 0.521370 0.535124 -0.516445
O59   O     O_3   0.413046 0.521770 0.619859 -0.531848
O60   O     O_3   0.526967 0.477254 0.378388 -0.523770
O61   O     O_3   0.593984 0.524281 0.372878 -0.523373
O62   O     O_3   0.484680 0.478294 0.610306 -0.528941
O63   O     O_3   0.917403 0.022662 0.629349 -0.518969
O64   O     O_3   0.014635 0.978639 0.390693 -0.526695
O65   O     O_3   0.089123 0.023383 0.372040 -0.526734
O66   O     O_3   0.993055 0.977467 0.605798 -0.518590
O67   O     O_3   0.414428 0.600904 0.626029 -0.550710
O68   O     O_R   0.604930 0.772730 0.335600 -0.515956
O69   O     O_3   0.532973 0.398985 0.375392 -0.524546
O70   O     O_3   0.588068 0.603698 0.371215 -0.561451
O71   O     O_3   0.471591 0.400252 0.620163 -0.526738
O72   O     O_3   0.916961 0.102712 0.628694 -0.559140
O73   O     O_3   0.023402 0.900384 0.382676 -0.527081
O74   O     O_3   0.082758 0.102641 0.368305 -0.562285
O75   O     O_3   0.985044 0.898999 0.611168 -0.530231
O76   O     O_3   0.284902 0.176214 0.944873 -0.549062
O77   O     O_3   0.705507 0.822194 0.057279 -0.547057
O78   O     O_3   0.712315 0.176025 0.054745 -0.548060
O79   O     O_R   0.395070 0.227270 0.664400 -0.520471
O80   O     O_3   0.284756 0.822664 0.944093 -0.547725
O81   O     O_3   0.793816 0.679093 0.943363 -0.549861
O82   O     O_3   0.216046 0.322910 0.054762 -0.547524
O83   O     O_3   0.213407 0.676795 0.057040 -0.549408
O84   O     O_3   0.786357 0.322240 0.945708 -0.547710
O85   O     O_3   0.251470 0.817640 0.540704 -0.516871
O86   O     O_3   0.795229 0.237914 0.364276 -0.515347
O87   O     O_3   0.749022 0.817445 0.458513 -0.516664
O88   O     O_3   0.205494 0.235560 0.633038 -0.516061
O89   O     O_3   0.751089 0.317839 0.541774 -0.527275
O90   O     O_R   0.895070 0.272730 0.664400 -0.517811
O91   O     O_3   0.294451 0.735348 0.367147 -0.516145
O92   O     O_3   0.249014 0.317396 0.458602 -0.516783
O93   O     O_3   0.705440 0.735858 0.633135 -0.516139
O94   O     O_3   0.292914 0.684311 0.456152 -0.517556
O95   O     O_3   0.664776 0.267407 0.628388 -0.511872
O96   O     O_3   0.706555 0.684465 0.544780 -0.517490
O97   O     O_3   0.336760 0.266692 0.369583 -0.516717
O98   O     O_3   0.796679 0.186081 0.448325 -0.517036
O99   O     O_3   0.163325 0.767329 0.630270 -0.516725
O100  O     O_3   0.206576 0.184352 0.544639 -0.517276
Zn1   Zn    Zn3+2 0.563280 0.782480 0.438420 0.982986
Zn2   Zn    Zn3+2 0.498300 0.282490 0.438410 0.953256
Zn3   Zn    Zn3+2 0.498300 0.717510 0.438410 0.951439
Zn4   Zn    Zn3+2 0.501700 0.282490 0.561590 0.953560
Zn5   Zn    Zn3+2 0.001700 0.217510 0.561590 0.953355
Zn6   Zn    Zn3+2 0.998300 0.782490 0.438410 0.952269
Zn7   Zn    Zn3+2 0.998300 0.217510 0.438410 0.950716
Zn8   Zn    Zn3+2 0.001700 0.782490 0.561590 0.947261
Zn9   Zn    Zn3+2 0.436720 0.217520 0.561580 0.977236
Zn10  Zn    Zn3+2 0.436720 0.782480 0.561580 0.982753
Zn11  Zn    Zn3+2 0.563280 0.217520 0.438420 0.977036
Zn12  Zn    Zn3+2 0.063280 0.282480 0.438420 0.982882
Zn13  Zn    Zn3+2 0.936720 0.717520 0.561580 0.978143
Zn14  Zn    Zn3+2 0.936720 0.282480 0.561580 0.978871
Zn15  Zn    Zn3+2 0.063280 0.717520 0.438420 0.977562
Zn16  Zn    Zn3+2 0.501700 0.717510 0.561590 0.952160

loop_
_geom_bond_atom_site_label_1
_geom_bond_atom_site_label_2
_ccdc_geom_bond_type
C317  C326  A    
C329  O98   S    
C74   C277  S    
C126  C127  S    
C22   C29   A    
C273  H273  S    
C209  H166  S    
C90   C282  T    
C339  O11   A    
C139  O70   S    
C249  H214  S    
C338  O10   A    
C12   O63   S    
C155  H80   S    
C337  O9    A    
C14   C33   A    
C226  H203  S    
C49   O55   S    
C15   C32   A    
C38   O22   A    
C95   H285  S    
C98   H292  S    
C207  H161  S    
C88   H235  S    
O2    Zn15  S    
C323  O49   A    
C328  O97   S    
O34   Zn10  S    
C50   C59   A    
C57   C72   S    
C332  O3    S    
C130  H20   S    
O11   Zn6   S    
C315  C339  S    
C150  H67   S    
C312  O48   A    
C208  H164  S    
O13   Zn4   S    
C323  O5    A    
C106  C107  S    
C271  C272  S    
O24   Zn12  S    
C51   O58   S    
C118  H335  S    
C144  H55   S    
C108  C109  S    
C270  H265  S    
O46   Zn10  S    
C103  H303  S    
C219  H188  S    
C245  C322  S    
C158  H85   S    
C338  O37   A    
C240  C317  S    
C44   C53   A    
C134  H30   S    
C183  O78   S    
C147  H59   S    
C272  C273  S    
C203  H150  S    
C234  C303  S    
C84   H124  S    
C130  H21   S    
C7    C332  A    
O10   Zn5   S    
C25   O75   S    
C217  H184  S    
C75   C179  S    
C132  H27   S    
C126  H11   S    
C108  H315  S    
C270  H264  S    
C124  C285  T    
C212  C276  S    
C13   C246  S    
C273  H271  S    
C137  C138  S    
C58   C164  S    
C199  C200  S    
C49   C69   A    
C35   C179  S    
C257  C334  S    
O5    Zn13  S    
C24   H279  S    
C189  H119  S    
C250  H216  S    
C228  C229  S    
C42   O29   A    
C152  O74   S    
C88   O53   S    
C114  C115  S    
C276  C285  S    
C7    C297  A    
C94   H282  S    
C39   C61   S    
C141  H48   S    
C246  O83   S    
C278  C287  S    
C76   C280  S    
C131  H22   S    
C191  C192  S    
C139  H42   S    
C272  H269  S    
C304  C313  A    
C263  H250  S    
C140  C141  S    
C16   O66   S    
C107  H314  S    
C206  C207  S    
C118  H337  S    
C213  C214  S    
C305  C314  A    
C90   C279  S    
C197  H137  S    
C250  H217  S    
C309  C333  S    
C168  C257  S    
C252  H222  S    
C258  O97   S    
C267  H259  S    
C18   O69   S    
C10   C30   A    
C227  C228  S    
C95   H284  S    
C204  H152  S    
C2    C268  S    
C207  H160  S    
C34   O17   A    
C260  H241  S    
C293  C302  A    
C336  O8    A    
C102  H299  S    
C294  C303  A    
C247  N26   T    
C2    H112  S    
C151  H69   S    
C20   C27   A    
C199  H142  S    
C222  H197  S    
C125  H7    S    
C190  O80   S    
C171  N4    T    
C79   C281  T    
C122  H3    S    
C243  C320  S    
C1    C101  S    
C169  N2    T    
C212  O82   S    
C34   O15   A    
C45   O52   S    
C303  C311  A    
C196  O83   S    
C96   H286  S    
C16   C25   A    
C252  H221  S    
C57   H312  S    
C202  H147  S    
C100  H296  S    
C186  H110  S    
C167  N32   T    
O16   Zn2   S    
C196  C197  S    
C176  H88   S    
C22   O73   S    
C142  O71   S    
C220  H192  S    
C341  O40   A    
C265  H253  S    
C139  C140  S    
C70   C268  S    
C68   C280  S    
C54   C61   A    
C105  O59   S    
C341  O14   A    
C59   C63   A    
C8    C17   A    
C222  C225  S    
C180  H95   S    
C170  N3    T    
C60   C64   A    
C97   H288  S    
C156  C158  S    
C109  H318  S    
O35   Zn13  S    
C70   C167  S    
C32   C33   S    
C44   O51   S    
C132  O67   S    
C215  H177  S    
C12   C21   A    
C104  H306  S    
O4    Zn12  S    
C1    O41   A    
C48   C67   A    
C176  O76   S    
O40   Zn15  S    
C76   C190  S    
C325  O94   S    
C119  H338  S    
C24   C77   S    
C187  C188  S    
C148  H61   S    
O13   Zn2   S    
C200  C202  S    
C98   C99   S    
C149  H64   S    
C155  C156  S    
C181  H97   S    
C51   C69   A    
C186  C187  S    
O21   Zn7   S    
C136  O69   S    
C112  O57   A    
C43   O50   S    
C92   O54   S    
C2    C75   S    
C142  H50   S    
C269  H261  S    
C252  C253  S    
C227  H205  S    
C208  H163  S    
C254  H229  S    
C55   C62   A    
C279  O44   A    
C72   C275  S    
C70   C212  S    
O79   Zn9   S    
C96   H287  S    
C147  C148  S    
C227  O93   S    
C20   O71   S    
C68   H323  S    
C128  H16   S    
O23   Zn10  S    
C50   O56   S    
C85   C86   S    
C198  H139  S    
C241  C318  S    
C249  C250  S    
O33   Zn9   S    
O31   Zn13  S    
C248  O94   S    
C110  H320  S    
C261  C262  S    
C123  H6    S    
C78   C80   S    
C92   H277  S    
C310  C319  A    
C238  C306  S    
C271  H266  S    
C205  H154  S    
C264  H251  S    
C216  H181  S    
C260  H240  S    
C46   C277  S    
C184  C185  S    
C15   O65   S    
C326  O95   S    
C216  H182  S    
C155  H81   S    
C189  C191  S    
C114  H326  S    
O35   Zn15  S    
C146  C287  T    
C138  H38   S    
C213  O88   S    
C314  C322  A    
C121  H342  S    
C264  C265  S    
C183  H103  S    
C29   C38   S    
C333  O6    A    
C178  H92   S    
C127  C128  S    
O29   Zn15  S    
C89   C91   S    
C50   C67   A    
C156  H83   S    
C59   C165  S    
C219  O91   S    
C213  H174  S    
C253  H227  S    
C57   C278  S    
C261  H244  S    
C206  H159  S    
C85   O52   S    
C183  H104  S    
C257  C281  S    
O35   Zn8   S    
C302  C310  A    
C262  H247  S    
C116  O62   S    
C172  N5    T    
C132  H26   S    
C220  C221  S    
C106  H310  S    
C157  C288  T    
C182  H99   S    
C98   H293  S    
C58   C64   A    
C127  H12   S    
C163  N28   T    
C56   C63   A    
C178  H93   S    
C199  O84   S    
C191  H122  S    
O9    Zn4   S    
C316  C325  A    
C256  H233  S    
C294  O89   S    
C143  H52   S    
C74   C334  S    
C81   H46   S    
C100  H297  S    
C154  H78   S    
C295  O91   S    
C140  H44   S    
O18   Zn4   S    
C217  C218  S    
C141  H45   S    
C84   H135  S    
C289  O85   S    
C330  O99   S    
C131  H23   S    
C256  H232  S    
C77   C278  S    
C289  C342  A    
C152  H72   S    
O26   Zn1   S    
C218  H187  S    
C315  C324  A    
C105  H307  S    
O48   Zn7   S    
C83   H101  S    
C309  C318  A    
C168  O77   S    
C130  C131  S    
C83   C84   S    
C148  H63   S    
C221  H195  S    
C73   C274  S    
C209  C210  S    
C209  O87   S    
C194  H130  S    
C23   C28   A    
C88   C89   S    
C153  H74   S    
C271  O3    S    
C266  H256  S    
C201  C275  S    
C228  H207  S    
C245  N25   T    
C214  H176  S    
O14   Zn8   S    
C173  N6    T    
C193  C194  S    
C45   C65   A    
C166  N31   T    
C111  O61   S    
O47   Zn6   S    
C1    O46   A    
C247  C324  S    
C111  H324  S    
C134  H32   S    
C199  H143  S    
C36   O18   A    
C216  O89   S    
C209  H165  S    
C82   O51   S    
O57   Zn11  S    
C267  H260  S    
C158  H86   S    
C35   H290  S    
C137  H37   S    
C274  C283  S    
C89   H246  S    
C40   O25   A    
C77   C201  S    
C174  N7    T    
C39   O26   A    
C94   H283  S    
C79   C223  S    
C262  C263  S    
C71   C257  S    
C205  H156  S    
C119  O63   S    
C260  H242  S    
C115  H328  S    
C82   H68   S    
C15   C23   A    
O39   Zn14  S    
C76   C174  S    
C258  C259  S    
C4    C329  A    
C117  C118  S    
C46   H301  S    
C28   C37   S    
C129  H19   S    
C5    C342  S    
C192  H126  S    
C195  H132  S    
C11   O62   S    
C312  O4    A    
C198  H140  S    
C194  C195  S    
C54   C161  S    
C155  O75   S    
C102  C103  S    
C241  N20   T    
C188  H117  S    
C234  N14   T    
C113  C284  T    
C327  C344  A    
C248  H213  S    
C37   O19   A    
C19   O70   S    
C152  C153  S    
C190  C274  S    
C57   C201  S    
O90   Zn14  S    
O35   Zn6   S    
O24   Zn14  S    
C150  C151  S    
C262  H245  S    
C51   C60   A    
C217  H183  S    
C191  H121  S    
O22   Zn8   S    
C325  C342  A    
C259  C260  S    
C251  H220  S    
C119  H339  S    
C175  N8    T    
C108  H316  S    
C87   H190  S    
C192  H123  S    
C331  O100  S    
C265  H254  S    
C221  H193  S    
C37   O21   A    
O13   Zn11  S    
O27   Zn9   S    
O7    Zn2   S    
C74   C168  S    
C229  H210  S    
C208  H162  S    
C181  C182  S    
C120  C121  S    
C141  H47   S    
C136  H34   S    
C46   C168  S    
C306  C315  A    
C139  H41   S    
C116  H330  S    
C263  H249  S    
O36   Zn11  S    
C225  C226  S    
C129  C130  S    
C218  H185  S    
C81   H57   S    
C308  C317  A    
C314  C338  S    
C30   C31   S    
C107  H313  S    
C184  H106  S    
C123  C125  S    
C121  H344  S    
C239  N18   T    
C135  C323  S    
C296  C305  A    
C187  H115  S    
O19   Zn5   S    
C224  O81   S    
C193  H128  S    
O45   Zn5   S    
C180  O77   S    
C108  O60   S    
C19   C26   A    
O25   Zn11  S    
C307  C336  S    
C97   H289  S    
C116  H331  S    
C145  C147  S    
C300  C309  A    
C92   H276  S    
C95   C96   S    
C271  H267  S    
C10   O61   S    
C290  O90   A    
C251  O95   S    
C320  C329  A    
C71   C169  S    
O17   Zn3   S    
C71   C224  S    
C165  N30   T    
C47   C66   A    
C301  O2    A    
C80   H13   S    
C232  C300  S    
C222  O92   S    
C3    C6    S    
C3    C328  A    
C269  C270  S    
C25   C29   A    
C91   H274  S    
C158  H84   S    
C249  H215  S    
C253  H225  S    
C122  H4    S    
C159  N1    T    
C8    O59   S    
C244  N24   T    
C236  C304  S    
C339  O38   A    
C156  H82   S    
C17   O67   S    
C94   H281  S    
C40   O27   A    
C99   H294  S    
C334  H1    S    
C11   C20   A    
C9    O60   S    
C255  H230  S    
C161  N23   T    
C237  N16   T    
C202  H148  S    
C207  C208  S    
C3    C293  A    
C251  C252  S    
C150  H66   S    
O49   Zn8   S    
C157  C301  S    
C128  H17   S    
C219  H189  S    
C101  C283  T    
C86   C87   S    
O68   Zn1   S    
C73   C246  S    
C182  H102  S    
C48   O54   S    
C82   C83   S    
C154  H77   S    
C47   O53   S    
C321  C330  A    
C180  H96   S    
C89   H257  S    
C268  C282  S    
C242  N21   T    
C279  O79   A    
C193  O82   S    
C109  H317  S    
C280  C288  S    
C39   O23   A    
C254  C255  S    
C204  C205  S    
C327  O96   S    
C333  O32   A    
C147  H60   S    
C68   C190  S    
C10   C19   A    
C43   C65   A    
C291  O86   S    
C202  H149  S    
C145  H58   S    
C6    C331  A    
C203  O85   S    
C135  C286  T    
C178  H94   S    
O20   Zn6   S    
C235  O84   S    
C112  O42   A    
C264  O99   S    
C46   C71   S    
C126  H10   S    
C231  N10   T    
C13   C274  S    
C290  O45   A    
C189  O81   S    
C87   H212  S    
C221  H194  S    
C273  H272  S    
C148  H62   S    
O44   Zn4   S    
C35   C276  S    
C133  C134  S    
C21   O72   S    
C145  O72   S    
C289  C298  A    
C189  H120  S    
C86   H168  S    
C184  H105  S    
C233  N13   T    
C219  C220  S    
C248  C249  S    
C228  H206  S    
C131  H25   S    
C5    C330  A    
C53   C160  S    
C104  H304  S    
C292  O87   S    
C120  H340  S    
C100  H298  S    
C133  H29   S    
C125  H9    S    
C119  C120  S    
C240  N19   T    
C41   O28   A    
O13   Zn9   S    
C27   C36   S    
C200  H144  S    
C105  C106  S    
C177  H89   S    
C2    C212  S    
C72   C235  S    
C8    C30   A    
C197  H138  S    
O38   Zn13  S    
C143  C144  S    
C310  C335  S    
C211  H172  S    
C97   H291  S    
C110  H321  S    
C186  O80   S    
C149  C150  S    
C85   H157  S    
C267  C269  S    
C14   C22   A    
C185  H107  S    
C145  H56   S    
C224  C277  S    
O30   Zn12  S    
C92   C93   S    
C318  C327  A    
C124  C312  S    
C111  C114  S    
C14   O64   S    
C82   H79   S    
C133  H28   S    
C43   C52   A    
C111  H322  S    
C60   C166  S    
O1    Zn10  S    
C88   H224  S    
C21   C28   A    
C138  H39   S    
C151  H70   S    
C120  H341  S    
C200  H145  S    
C222  H196  S    
C177  C178  S    
C102  O58   S    
C125  H8    S    
C103  C104  S    
C195  H133  S    
C297  O93   S    
C142  C143  S    
C136  C137  S    
C185  H108  S    
C188  H116  S    
C180  C181  S    
C213  H173  S    
C253  H226  S    
O1    Zn16  S    
C261  H243  S    
C229  H208  S    
C259  H239  S    
C203  C204  S    
C272  H270  S    
C115  H329  S    
C93   C94   S    
C75   C276  S    
C75   C173  S    
C270  H263  S    
C44   C66   A    
C7    C344  S    
O1    Zn1   S    
C183  C184  S    
C176  H87   S    
C9    C18   A    
C80   H24   S    
C220  H191  S    
O12   Zn7   S    
C182  H100  S    
C292  C344  A    
C211  H171  S    
O24   Zn5   S    
C56   C163  S    
C196  H136  S    
C236  N15   T    
C301  O47   A    
C244  C321  S    
C86   H179  S    
C103  H302  S    
C256  H234  S    
C293  O88   S    
C143  H51   S    
C5    C295  A    
C164  N29   T    
C6    C296  A    
C299  C308  A    
C322  C331  A    
C215  H178  S    
O28   Zn14  S    
C40   C62   S    
C104  H305  S    
C196  H134  S    
C118  H336  S    
C267  O100  S    
C83   H90   S    
C264  H252  S    
C291  C343  A    
C26   C34   S    
C127  H14   S    
C223  O68   A    
C35   C70   S    
C313  C341  S    
C132  C133  S    
C149  O73   S    
C181  H98   S    
C242  C319  S    
C91   H268  S    
C73   C171  S    
C291  C299  A    
C265  C266  S    
C215  H180  S    
O41   Zn16  S    
C74   C172  S    
C142  H49   S    
C122  O64   S    
C269  H262  S    
C52   C159  S    
C95   O55   S    
C186  H111  S    
C11   C31   A    
C77   C175  S    
C311  C320  A    
C129  O66   S    
C197  C198  S    
C326  C343  A    
C112  C113  S    
C87   H201  S    
C336  O34   A    
C204  H153  S    
C128  H15   S    
C41   O30   A    
C335  O33   A    
C117  H332  S    
C179  O76   S    
C78   H334  S    
C91   H275  S    
C4    C294  A    
C137  H36   S    
C216  C217  S    
C266  H258  S    
C211  H170  S    
C251  H219  S    
C110  H319  S    
C117  H333  S    
C4    C343  S    
C214  C215  S    
O8    Zn3   S    
C99   H295  S    
C185  H109  S    
C68   C73   S    
C205  H155  S    
C38   O20   A    
C136  H33   S    
C255  H231  S    
C49   C58   A    
C227  H204  S    
C115  H327  S    
C263  H248  S    
C67   C69   S    
C72   C170  S    
C84   H113  S    
C230  C298  S    
C246  C280  S    
C114  H325  S    
C335  O7    A    
O15   Zn16  S    
O37   Zn12  S    
C98   O56   S    
C16   C33   A    
C53   C62   A    
C226  H202  S    
C224  C334  S    
C99   C100  S    
C13   C76   S    
C296  O92   S    
C129  H18   S    
C102  H300  S    
C96   C97   S    
C259  H238  S    
C195  H131  S    
C144  H53   S    
C78   O50   S    
C198  H141  S    
C210  H167  S    
C78   H2    S    
C210  H169  S    
C275  C284  S    
C187  H114  S    
C188  H118  S    
C239  C316  S    
C149  H65   S    
C81   H35   S    
C225  H199  S    
C337  O36   A    
C154  H76   S    
C176  C177  S    
C206  H158  S    
C226  H200  S    
C45   C54   A    
C210  C211  S    
C258  H236  S    
C233  C302  S    
C340  O39   A    
C243  N22   T    
C138  H40   S    
C230  N9    T    
O1    Zn3   S    
C107  H311  S    
C255  C256  S    
C153  H75   S    
C297  C306  A    
C254  O96   S    
C106  H309  S    
C47   C55   A    
C23   O74   S    
C223  O43   A    
C48   C56   A    
O24   Zn7   S    
C36   O16   A    
O43   Zn3   S    
C340  O12   A    
O6    Zn16  S    
C235  C278  S    
C144  H54   S    
C126  O65   S    
C18   C27   A    
C55   C162  S    
C313  C321  A    
C80   C81   S    
C177  H91   S    
C52   C61   A    
C42   C64   S    
C42   O31   A    
C248  H211  S    
C229  H209  S    
O32   Zn1   S    
C140  H43   S    
C324  C332  A    
C258  H237  S    
C277  C286  S    
C298  C307  A    
C203  H151  S    
C152  H73   S    
C162  N27   T    
C238  N17   T    
C153  C154  S    
C218  H186  S    
C24   C235  S    
C179  C268  S    
C105  H308  S    
C231  C299  S    
C146  C290  S    
C121  H343  S    
C225  H198  S    
C134  H31   S    
C116  C117  S    
C254  H228  S    
C93   H278  S    
C17   C26   A    
C193  H127  S    
C194  H129  S    
C308  C337  S    
C261  O98   S    
C266  H255  S    
C206  O86   S    
C160  N12   T    
C292  C300  A    
C9    C31   A    
C93   H280  S    
C85   H146  S    
C237  C305  S    
C214  H175  S    
O42   Zn2   S    
C192  H125  S    
C319  C328  A    
C65   C66   S    
C109  C110  S    
C122  C123  S    
C232  N11   T    
C41   C63   S    
C307  C316  A    
C311  C340  S    
C201  O78   S    
C12   C32   A    
C123  H5    S    
C151  H71   S    
C295  C304  A    
C13   H223  S    
C24   C275  S    
C250  H218  S    
