data_mof_unit_63216.cif
_audit_creation_date              2012-12-10T17:01:31-0500
_audit_creation_method            fapswitch 2.2
_symmetry_space_group_name_H-M    P1
_symmetry_Int_Tables_number       1
_space_group_crystal_system       triclinic
_cell_length_a                    20.094473
_cell_length_b                    22.540667
_cell_length_c                    15.091332
_cell_angle_alpha                 89.929475
_cell_angle_beta                  90.207688
_cell_angle_gamma                 90.065726
_cell_volume                      6835.45599233

loop_
_atom_site_label
_atom_site_type_symbol
_atom_type_description
_atom_site_fract_x
_atom_site_fract_y
_atom_site_fract_z
_atom_type_partial_charge
C1    C     C_R   0.372805 0.885807 0.485645 0.855909
C2    C     C_R   0.283300 0.740491 0.513384 -0.225398
C3    C     C_R   0.764578 0.744534 0.543407 -0.232782
C4    C     C_R   0.783323 0.240480 0.513259 -0.225340
C5    C     C_R   0.307333 0.195805 0.551977 0.686685
C6    C     C_R   0.334500 0.782535 0.508505 0.671865
C7    C     C_R   0.807284 0.695766 0.551985 0.686675
C8    C     C_R   0.834523 0.282519 0.508316 0.671833
C9    C     C_R   0.297560 0.176520 0.393984 -0.271855
C10   C     C_R   0.254823 0.857707 0.462423 -0.258857
C11   C     C_R   0.797649 0.676581 0.393951 -0.271887
C12   C     C_R   0.372912 0.114294 0.485413 0.858183
C13   C     C_R   0.754775 0.357766 0.462740 -0.258877
C14   C     C_R   0.255829 0.225382 0.384500 -0.102902
C15   C     C_R   0.203420 0.816506 0.468324 -0.107507
C16   C     C_R   0.755937 0.725457 0.384468 -0.102916
C17   C     C_R   0.703371 0.316569 0.468720 -0.107437
C18   C     C_R   0.520146 0.995977 0.163844 -0.014677
C19   C     C_R   0.020152 0.496001 0.163839 -0.014777
C20   C     C_R   0.478820 0.000798 0.834922 -0.308128
C21   C     C_R   0.978825 0.500789 0.834916 -0.308031
C22   C     C_R   0.419065 0.031756 0.965649 -0.264860
C23   C     C_R   0.872803 0.385811 0.485649 0.856082
C24   C     C_R   0.918963 0.531566 0.965650 -0.264795
C25   C     C_R   0.423387 0.027778 0.873909 0.591401
C26   C     C_R   0.923301 0.527614 0.873908 0.591323
C27   C     C_R   0.530512 0.978223 0.887335 0.512068
C28   C     C_R   0.030592 0.478346 0.887320 0.512022
C29   C     C_R   0.627414 0.113599 0.514894 0.912030
C30   C     C_R   0.627212 0.886177 0.515120 0.932317
C31   C     C_R   0.127410 0.613600 0.514891 0.912205
C32   C     C_R   0.127210 0.386177 0.515118 0.932485
C33   C     C_R   0.527529 0.983858 0.979529 0.029864
C34   C     C_R   0.872914 0.614294 0.485411 0.858224
C35   C     C_R   0.027585 0.483951 0.979516 0.029916
C36   C     C_R   0.470970 0.010340 0.018795 -0.012796
C37   C     C_R   0.970938 0.510276 0.018791 -0.012824
C38   C     C_R   0.467392 0.015539 0.110648 -0.164071
C39   C     C_R   0.967339 0.515443 0.110647 -0.164087
C40   C     C_R   0.576856 0.971049 0.124852 -0.211407
C41   C     C_R   0.076942 0.471226 0.124836 -0.211403
C42   C     C_R   0.580310 0.964503 0.033227 -0.079065
C43   C     C_R   0.080424 0.464716 0.033207 -0.079078
C44   C     C_R   0.514542 0.999580 0.260103 0.791278
C45   C     C_R   0.739520 0.759846 0.458423 0.033987
C46   C     C_R   0.014542 0.499583 0.260101 0.791338
C47   C     C_R   0.484925 0.000050 0.739275 0.976302
C48   C     C_R   0.984924 0.500049 0.739273 0.976589
C49   C     C_R   0.324232 0.162139 0.477195 -0.179819
C50   C     C_R   0.320136 0.841177 0.483801 -0.175632
C51   C     C_R   0.824242 0.662144 0.477185 -0.179757
C52   C     C_R   0.820124 0.341193 0.483831 -0.175535
C53   C     C_R   0.677848 0.840666 0.523565 -0.234995
C54   C     C_R   0.679742 0.157751 0.520411 -0.234221
C55   C     C_R   0.177848 0.340669 0.523556 -0.235005
C56   C     C_R   0.717016 0.258130 0.494442 0.029928
C57   C     C_R   0.179726 0.657756 0.520414 -0.234117
C58   C     C_R   0.745871 0.778188 0.617722 0.626545
C59   C     C_R   0.796722 0.181114 0.535987 0.621861
C60   C     C_R   0.245962 0.278261 0.617695 0.626551
C61   C     C_R   0.296666 0.681158 0.536347 0.621897
C62   C     C_R   0.702015 0.825459 0.607737 0.551997
C63   C     C_R   0.745172 0.139921 0.538289 0.530809
C64   C     C_R   0.202088 0.325519 0.607711 0.551961
C65   C     C_R   0.245120 0.639960 0.538588 0.530779
C66   C     C_R   0.697282 0.808629 0.448952 -0.299902
C67   C     C_R   0.239472 0.259815 0.458432 0.034014
C68   C     C_R   0.665472 0.216753 0.499912 -0.308031
C69   C     C_R   0.197217 0.308586 0.448958 -0.299894
C70   C     C_R   0.165486 0.716724 0.499667 -0.308115
C71   C     C_R   0.217029 0.758103 0.494264 0.030033
C72   C     C_R   0.264609 0.244561 0.543397 -0.232806
F1    F     F_    0.331869 0.180323 0.632865 -0.556983
F2    F     F_    0.359393 0.662445 0.555017 -0.534796
F3    F     F_    0.768644 0.764995 0.700255 -0.525706
F4    F     F_    0.859484 0.162364 0.554355 -0.534857
F5    F     F_    0.682891 0.856538 0.680371 -0.561217
F6    F     F_    0.758994 0.082413 0.558021 -0.588638
F7    F     F_    0.183023 0.356643 0.680329 -0.561254
F8    F     F_    0.258907 0.582483 0.558561 -0.588616
F9    F     F_    0.398424 0.766622 0.526417 -0.581288
F10   F     F_    0.831748 0.680227 0.632889 -0.557061
F11   F     F_    0.898481 0.266578 0.525956 -0.581425
F12   F     F_    0.373445 0.050025 0.822976 -0.601870
F13   F     F_    0.873285 0.549735 0.822979 -0.602009
F14   F     F_    0.584553 0.953250 0.848274 -0.606165
F15   F     F_    0.084715 0.453522 0.848248 -0.606244
F16   F     F_    0.268812 0.265124 0.700210 -0.525698
H1    H     H_    0.624256 0.944472 0.004673 0.211898
H2    H     H_    0.153056 0.830311 0.452829 0.163327
H3    H     H_    0.677209 0.820174 0.384366 0.179579
H4    H     H_    0.614729 0.229719 0.484606 0.182549
H5    H     H_    0.177087 0.320088 0.384388 0.179561
H6    H     H_    0.114771 0.729659 0.484135 0.182399
H7    H     H_    0.423796 0.035315 0.140747 0.158583
H8    H     H_    0.923677 0.535102 0.140749 0.158680
H9    H     H_    0.617856 0.955411 0.165372 0.173860
H10   H     H_    0.117993 0.455684 0.165346 0.173954
H11   H     H_    0.375727 0.052360 0.995020 0.197093
H12   H     H_    0.124437 0.444807 0.004645 0.211909
H13   H     H_    0.875556 0.552048 0.995029 0.197086
H14   H     H_    0.310578 0.150959 0.335840 0.188359
H15   H     H_    0.243289 0.902962 0.443681 0.194008
H16   H     H_    0.810717 0.651056 0.335792 0.188314
H17   H     H_    0.743217 0.403049 0.444176 0.193937
H18   H     H_    0.736638 0.736444 0.319342 0.161799
H19   H     H_    0.652978 0.330406 0.453456 0.163358
H20   H     H_    0.236467 0.236324 0.319390 0.161811
O1    O     O_3   0.500000 1.000000 0.500000 -0.538114
O2    O     O_R   0.135640 0.430410 0.463140 -0.635359
O3    O     O_R   0.456890 1.000000 0.295720 -0.646093
O4    O     O_R   0.956890 0.500000 0.295720 -0.646117
O5    O     O_R   0.488070 0.049450 0.698020 -0.601760
O6    O     O_R   0.488070 0.950550 0.698020 -0.600958
O7    O     O_R   0.988070 0.549450 0.698020 -0.601822
O8    O     O_R   0.988070 0.450550 0.698020 -0.601146
O9    O     O_R   0.370630 0.069610 0.433010 -0.655044
O10   O     O_R   0.370630 0.930390 0.433010 -0.650548
O11   O     O_R   0.870630 0.569610 0.433010 -0.655026
O12   O     O_3   0.000000 0.500000 0.500000 -0.538079
O13   O     O_R   0.870630 0.430390 0.433010 -0.650508
O14   O     O_R   0.574320 0.880940 0.560740 -0.581100
O15   O     O_R   0.574320 0.119060 0.560740 -0.639860
O16   O     O_R   0.074320 0.380940 0.560740 -0.581188
O17   O     O_R   0.074320 0.619060 0.560740 -0.639801
O18   O     O_R   0.566990 1.000000 0.308240 -0.646456
O19   O     O_R   0.066990 0.500000 0.308240 -0.646511
O20   O     O_R   0.419410 0.880950 0.543120 -0.583445
O21   O     O_R   0.419410 0.119050 0.543120 -0.578232
O22   O     O_R   0.919410 0.380950 0.543120 -0.583588
O23   O     O_R   0.919410 0.619050 0.543120 -0.578340
O24   O     O_R   0.635640 0.069590 0.463140 -0.605278
O25   O     O_R   0.635640 0.930410 0.463140 -0.635335
O26   O     O_R   0.135640 0.569590 0.463140 -0.605466
Zn1   Zn    Zn3+2 0.583120 1.000000 0.434770 1.023375
Zn2   Zn    Zn3+2 0.083120 0.500000 0.434770 1.023336
Zn3   Zn    Zn3+2 0.425830 1.000000 0.416880 0.973914
Zn4   Zn    Zn3+2 0.925830 0.500000 0.416880 0.973976
Zn5   Zn    Zn3+2 0.495530 0.070660 0.574170 1.074859
Zn6   Zn    Zn3+2 0.495530 0.929340 0.574170 1.109637
Zn7   Zn    Zn3+2 0.995530 0.570660 0.574170 1.074900
Zn8   Zn    Zn3+2 0.995530 0.429340 0.574170 1.109565

loop_
_geom_bond_atom_site_label_1
_geom_bond_atom_site_label_2
_ccdc_geom_bond_type
C58   C62   A    
C47   O6    A    
C21   C26   A    
O7    Zn7   S    
C46   O4    A    
O1    Zn1   S    
C8    F11   S    
C6    F9    S    
C32   O16   A    
C62   F5    S    
O2    Zn2   S    
C1    O20   A    
C4    C8    A    
C11   H16   S    
C5    C49   A    
C12   C49   S    
C60   F16   S    
C19   C46   S    
C23   O13   A    
C27   C33   A    
C44   O18   A    
C34   C51   S    
C32   O2    A    
O1    Zn6   S    
C33   C42   A    
C10   H15   S    
C35   C37   A    
C24   C26   A    
C24   H13   S    
C5    C72   A    
C69   H5    S    
C10   C15   A    
C17   H19   S    
C29   O24   A    
C54   C68   A    
C20   C25   A    
C60   C72   A    
C26   F13   S    
O15   Zn5   S    
C33   C36   A    
O1    Zn3   S    
C67   C72   A    
C11   C16   A    
C18   C40   A    
C54   C63   A    
C30   O14   A    
C28   C35   A    
O17   Zn7   S    
C9    H14   S    
C22   C25   A    
C38   H7    S    
C25   F12   S    
C14   C67   A    
O5    Zn5   S    
C70   C71   A    
O6    Zn6   S    
C57   C70   A    
O10   Zn3   S    
C35   C43   A    
C1    C50   S    
C8    C52   A    
C32   C55   S    
O23   Zn7   S    
C2    C61   A    
C16   H18   S    
C48   O8    A    
C21   C48   S    
C40   C42   A    
C65   F8    S    
C4    C56   A    
C5    F1    S    
C41   C43   A    
O16   Zn8   S    
O1    Zn5   S    
C2    C6    A    
C31   O26   A    
C58   F3    S    
C30   C53   S    
C12   O21   A    
O4    Zn4   S    
C46   O19   A    
C9    C49   A    
O19   Zn2   S    
C13   H17   S    
C40   H9    S    
O26   Zn2   S    
C3    C7    A    
C56   C68   A    
C3    C45   A    
C6    C50   A    
C23   O22   A    
O12   Zn2   S    
O13   Zn4   S    
C27   F14   S    
C9    C14   A    
C3    C58   A    
C18   C44   S    
C13   C52   A    
C53   C62   A    
O21   Zn5   S    
C30   O25   A    
C55   C64   A    
C28   F15   S    
C24   C37   A    
O12   Zn8   S    
C43   H12   S    
C53   C66   A    
C17   C56   A    
C55   C69   A    
C19   C39   A    
C48   O7    A    
O8    Zn8   S    
C21   C28   A    
O18   Zn1   S    
C64   F7    S    
O12   Zn4   S    
C31   O17   A    
C2    C71   A    
C10   C50   A    
C15   C71   A    
O3    Zn3   S    
C34   O11   A    
C47   O5    A    
C22   H11   S    
C70   H6    S    
O11   Zn4   S    
O9    Zn3   S    
O12   Zn7   S    
C57   C65   A    
C16   C45   A    
C34   O23   A    
C66   H3    S    
C20   C27   A    
C61   F2    S    
C22   C36   A    
C59   C63   A    
C13   C17   A    
C60   C64   A    
C42   H1    S    
C31   C57   S    
C36   C38   A    
C18   C38   A    
O14   Zn6   S    
C37   C39   A    
C15   H2    S    
C23   C52   S    
O24   Zn1   S    
C29   O15   A    
C4    C59   A    
C14   H20   S    
C68   H4    S    
C1    O10   A    
O20   Zn6   S    
O22   Zn8   S    
C39   H8    S    
C20   C47   S    
C11   C51   A    
C7    C51   A    
C12   O9    A    
C44   O3    A    
C61   C65   A    
C7    F10   S    
C29   C54   S    
C45   C66   A    
O25   Zn1   S    
C41   H10   S    
C67   C69   A    
C59   F4    S    
C19   C41   A    
C63   F6    S    
