data_mof_unit_37312.cif
_audit_creation_date              2012-12-11T16:10:30-0500
_audit_creation_method            fapswitch 2.2
_symmetry_space_group_name_H-M    P1
_symmetry_Int_Tables_number       1
_space_group_crystal_system       triclinic
_cell_length_a                    8.514727
_cell_length_b                    14.371933
_cell_length_c                    17.212141
_cell_angle_alpha                 92.472293
_cell_angle_beta                  95.63629
_cell_angle_gamma                 91.710185
_cell_volume                      2092.93792982

loop_
_atom_site_label
_atom_site_type_symbol
_atom_type_description
_atom_site_fract_x
_atom_site_fract_y
_atom_site_fract_z
_atom_type_partial_charge
Ba1   Ba    Ba6+2 0.148060 0.545480 0.461240 1.684627
Ba2   Ba    Ba6+2 0.662110 0.454510 0.538700 1.687293
C1    C     C_3   0.328821 0.752520 0.155751 -0.410833
C2    C     C_3   0.345847 0.733179 0.242833 0.365126
C3    C     C_3   0.503405 0.754657 0.638312 0.717418
C4    C     C_3   0.382952 0.831973 0.633919 -0.367982
C5    C     C_3   0.969695 0.203223 0.765146 0.784502
C6    C     C_3   0.870059 0.123555 0.794652 0.427562
C7    C     C_3   0.414026 0.084593 0.707560 0.268988
C8    C     C_3   0.452702 0.048259 0.788849 -0.335939
C9    C     C_R   0.014761 0.937518 0.527211 -0.069185
C10   C     C_R   0.822001 0.802432 0.496120 0.130720
C11   C     C_R   0.672922 0.772082 0.460385 -0.204362
C12   C     C_3   0.906911 0.793597 0.216583 1.093855
C13   C     C_R   0.562813 0.834860 0.430368 -0.002579
C14   C     C_R   0.601821 0.930292 0.434607 -0.145747
C15   C     C_R   0.752552 0.963962 0.466262 -0.001677
C16   C     C_R   0.864150 0.900506 0.497995 -0.038150
C17   C     C_R   0.946311 0.096051 0.490767 -0.034327
C18   C     C_R   0.058137 0.032555 0.520968 0.011058
C19   C     C_R   0.992759 0.193019 0.490529 -0.023623
C20   C     C_R   0.143888 0.223125 0.523364 -0.208104
C21   C     C_R   0.253872 0.160472 0.551961 -0.006408
C22   C     C_R   0.213355 0.064824 0.545549 -0.171326
C23   C     C_3   0.947708 0.850181 0.145188 -0.318592
C24   C     C_R   0.794232 0.059861 0.463036 -0.074648
C25   C     C_R   0.604432 0.524438 0.276015 -0.077792
C26   C     C_R   0.448500 0.490448 0.256453 -0.047415
C27   C     C_R   0.377452 0.498311 0.179827 -0.177591
C28   C     C_R   0.464102 0.535938 0.122551 -0.007199
C29   C     C_R   0.617922 0.572801 0.143738 -0.160290
C30   C     C_R   0.685340 0.569164 0.221101 0.108019
C31   C     C_R   0.402898 0.541076 0.835959 -0.101983
C32   C     C_R   0.360279 0.523178 0.755978 0.084270
C33   C     C_R   0.106506 0.458624 0.782915 -0.007184
C34   C     C_3   0.923793 0.264379 0.298626 0.751199
C35   C     C_R   0.146438 0.479329 0.863353 -0.135143
C36   C     C_R   0.297459 0.517235 0.890233 0.000518
C37   C     C_1   0.349054 0.526944 0.973001 -0.011955
C38   C     C_1   0.398804 0.532459 0.041492 -0.004437
C39   C     C_R   0.215485 0.478384 0.730210 -0.246709
C40   C     C_3   0.895794 0.161907 0.270552 -0.400280
C41   C     C_3   0.982852 0.670487 0.700299 0.423500
C42   C     C_3   0.897713 0.684820 0.773870 -0.296702
C43   C     C_3   0.403807 0.242688 0.284649 0.746078
C44   C     C_3   0.476167 0.284479 0.214725 0.410503
H1    H     H_    0.259339 0.676373 0.252340 0.097043
H2    H     H_    0.778191 0.150660 0.237739 0.163105
H3    H     H_    0.983028 0.139982 0.230645 0.091200
H4    H     H_    0.904061 0.117047 0.321396 0.007736
H5    H     H_    0.943183 0.601537 0.672331 0.067127
H6    H     H_    0.936885 0.751904 0.805327 0.074599
H7    H     H_    0.923305 0.627384 0.813808 0.075214
H8    H     H_    0.768961 0.685559 0.758973 0.151056
H9    H     H_    0.217920 0.719624 0.126290 0.123043
H10   H     H_    0.381336 0.319723 0.179716 -0.100315
H11   H     H_    0.575216 0.333555 0.236607 -0.016758
H12   H     H_    0.467184 0.708885 0.258466 -0.012355
H13   H     H_    0.427850 0.723119 0.126778 0.097568
H14   H     H_    0.479973 0.711845 0.582852 -0.000887
H15   H     H_    0.394766 0.878208 0.687369 0.064122
H16   H     H_    0.397432 0.872706 0.581763 0.069256
H17   H     H_    0.262547 0.802880 0.630910 0.106929
H18   H     H_    0.331043 0.828372 0.146404 0.123853
H19   H     H_    0.913150 0.923697 0.145874 0.042762
H20   H     H_    0.743577 0.139937 0.783842 0.011767
H21   H     H_    0.892268 0.057191 0.762198 -0.091897
H22   H     H_    0.462292 0.035049 0.665832 0.013234
H23   H     H_    0.283517 0.086328 0.697098 0.054891
H24   H     H_    0.362043 0.994800 0.800397 0.091281
H25   H     H_    0.456632 0.104482 0.835032 0.137785
H26   H     H_    0.567757 0.014298 0.792076 0.046413
H27   H     H_    0.638797 0.699014 0.459421 0.032439
H28   H     H_    0.515313 0.978124 0.411923 0.051578
H29   H     H_    0.300880 0.015230 0.562092 0.051694
H30   H     H_    0.177047 0.296603 0.526659 0.063933
H31   H     H_    0.101181 0.892946 0.553852 0.106402
H32   H     H_    0.707830 0.105185 0.437079 0.099692
H33   H     H_    0.515708 0.575489 0.855553 0.064493
H34   H     H_    0.685276 0.603138 0.100361 0.073397
H35   H     H_    0.064648 0.460092 0.904805 0.084381
H36   H     H_    0.258729 0.470310 0.163842 0.092361
H37   H     H_    0.183305 0.463383 0.668431 0.059151
H38   H     H_    0.075944 0.853791 0.142322 0.100801
H39   H     H_    0.891463 0.815257 0.090129 0.062451
H40   H     H_    0.043061 0.275754 0.329165 0.004199
O1    O     O_2   0.110000 0.727700 0.527600 -0.493323
O2    O     O_3   0.311419 0.304360 0.327394 -0.675562
O3    O     O_3   0.958822 0.703313 0.198279 -0.640667
O4    O     O_2   0.700300 0.272240 0.472380 -0.435748
O5    O     O_3   0.942950 0.388490 0.465850 -0.461376
O6    O     O_3   0.470280 0.329180 0.607330 -0.440602
O7    O     O_3   0.808980 0.285720 0.348494 -0.616403
O8    O     O_3   0.377250 0.547380 0.588690 -0.492094
O9    O     O_3   0.885550 0.376060 0.643580 -0.467248
O10   O     O_2   0.785211 0.444352 0.775458 -0.471898
O11   O     O_3   0.912019 0.286911 0.798551 -0.613162
O12   O     O_3   0.867340 0.611500 0.534090 -0.490910
O13   O     O_3   0.433040 0.452610 0.411250 -0.476938
O14   O     O_2   0.638240 0.544950 0.683210 -0.458056
O15   O     O_3   0.485314 0.702302 0.704494 -0.677606
O16   O     O_2   0.585534 0.166104 0.564886 -0.503565
O17   O     O_3   0.481175 0.174275 0.701274 -0.602270
O18   O     O_3   0.340010 0.670810 0.392610 -0.494485
O19   O     O_2   0.233101 0.834256 0.430468 -0.475055
O20   O     O_3   0.955128 0.744937 0.651366 -0.621544
O21   O     O_3   0.318523 0.814053 0.288587 -0.582096
O22   O     O_2   0.172060 0.454990 0.316770 -0.419028
O23   O     O_3   0.924740 0.623930 0.356360 -0.434375
O24   O     O_2   0.987392 0.532038 0.227249 -0.466859
P1    P     P_3+3 0.940740 0.713140 0.550990 1.012965
P2    P     P_3+3 0.347910 0.426910 0.329700 0.962947
P3    P     P_3+3 0.886908 0.613085 0.252705 1.058065
P4    P     P_3+3 0.869550 0.286850 0.448950 0.988854
P5    P     P_3+3 0.924805 0.390736 0.746825 0.962964
P6    P     P_3+3 0.365310 0.790563 0.387252 0.967523
P7    P     P_3+3 0.466315 0.580785 0.683159 0.938120
P8    P     P_3+3 0.445030 0.206578 0.603789 0.957436
N1    N     N_3   0.149799 0.670937 0.723690 -0.534558
H41   H     H_    0.187009 0.736204 0.749481 0.180907
H42   H     H_    0.199295 0.664278 0.671064 0.153164
O25   O     O_3   0.303742 0.166568 0.251712 -0.645528
C45   C     C_3   0.263778 0.101897 0.306779 0.168956
H43   H     H_    0.178452 0.050335 0.276658 0.075389
H44   H     H_    0.365373 0.059957 0.326691 0.021871
H45   H     H_    0.211212 0.135900 0.356881 0.000522
N2    N     N_3   0.531150 0.209918 0.338455 -0.459357
H46   H     H_    0.577833 0.150170 0.314266 0.154224
H47   H     H_    0.486342 0.192522 0.390578 0.163647
O26   O     O_3   0.535080 0.212979 0.167823 -0.635657
C46   C     C_3   0.579346 0.250112 0.098278 0.179441
H48   H     H_    0.640653 0.195906 0.066067 0.062214
H49   H     H_    0.662315 0.311509 0.110229 0.048415
H50   H     H_    0.473406 0.269377 0.060050 0.039278
O27   O     O_3   0.660284 0.791746 0.641304 -0.670178
C47   C     C_3   0.695959 0.863054 0.700547 0.154105
H51   H     H_    0.644556 0.848048 0.755844 0.042556
H52   H     H_    0.658102 0.930831 0.678404 0.022645
H53   H     H_    0.825333 0.871260 0.714606 0.092606
N3    N     N_3   0.952300 0.199814 0.679534 -0.520201
H54   H     H_    0.832211 0.198848 0.659878 0.179971
H55   H     H_    0.996279 0.137094 0.659410 0.120076
O28   O     O_3   0.127982 0.184011 0.793387 -0.657424
C48   C     C_3   0.229927 0.262575 0.800402 0.251616
H56   H     H_    0.202449 0.307761 0.850305 0.041127
H57   H     H_    0.230337 0.296377 0.743762 -0.021291
H58   H     H_    0.351656 0.241468 0.816744 0.075704
O29   O     O_3   0.913584 0.116403 0.875701 -0.602623
C49   C     C_3   0.825793 0.043807 0.905404 0.182403
H59   H     H_    0.823109 0.978139 0.868434 -0.007431
H60   H     H_    0.704648 0.066311 0.913251 0.024427
H61   H     H_    0.882669 0.028518 0.964036 0.071182
O30   O     O_3   0.999796 0.825771 0.286175 -0.611639
C50   C     C_3   0.956494 0.913626 0.314268 0.192324
H62   H     H_    0.838497 0.908629 0.335055 0.042010
H63   H     H_    0.959927 0.966549 0.270055 -0.026387
H64   H     H_    0.041711 0.938354 0.363898 0.091397
O31   O     O_3   0.741937 0.789330 0.227568 -0.718037
C51   C     C_3   0.655962 0.867133 0.201167 0.003113
H65   H     H_    0.617658 0.857514 0.137743 0.069138
H66   H     H_    0.717349 0.935641 0.213281 0.028331
H67   H     H_    0.552354 0.873938 0.234023 0.122862
N4    N     N_3   0.688177 0.509245 0.350273 -0.440184
H68   H     H_    0.684356 0.438753 0.361917 0.219201
H69   H     H_    0.644593 0.551663 0.393358 0.189900
O32   O     O_3   0.899278 0.324918 0.235736 -0.628869
C52   C     C_3   0.002451 0.309642 0.177553 0.170885
H70   H     H_    0.958364 0.250027 0.137362 0.028763
H71   H     H_    0.124261 0.298823 0.202498 0.062574
H72   H     H_    0.004693 0.371969 0.141894 0.072599

loop_
_geom_bond_atom_site_label_1
_geom_bond_atom_site_label_2
_ccdc_geom_bond_type
Ba1   O1    S    
C9    C16   A    
C6    H20   S    
O19   P6    D    
C34   C40   S    
C17   C18   A    
C20   H30   S    
C46   H50   S    
Ba1   O13   S    
C21   P8    S    
C5    O28   S    
O27   C47   S    
C52   H71   S    
C1    H18   S    
C26   P2    S    
C24   H32   S    
C12   O31   S    
C14   H28   S    
C15   C24   A    
C4    H15   S    
Ba2   O9    S    
N4    H69   S    
C35   C36   A    
N3    H55   S    
C47   H53   S    
Ba1   P2    S    
C3    C4    S    
O8    P7    S    
C45   H44   S    
O1    P1    D    
O28   C48   S    
C39   H37   S    
Ba1   Ba2   S    
Ba2   O4    S    
C17   C24   A    
O6    P8    S    
C9    H31   S    
Ba1   O23   S    
O18   P6    S    
C1    H9    S    
C34   O7    S    
C18   C22   A    
O9    P5    S    
C14   C15   A    
C23   H38   S    
C21   C22   A    
C51   H66   S    
O10   P5    D    
C33   P5    S    
C30   P3    S    
O11   P5    S    
C7    C8    S    
C50   H63   S    
O16   P8    D    
O23   P3    S    
C25   N4    S    
C8    H25   S    
C42   H6    S    
C32   P7    S    
Ba2   O14   S    
Ba1   O5    S    
C19   C20   A    
C35   H35   S    
O32   C52   S    
C6    O29   S    
C32   C39   A    
C48   H58   S    
C42   H7    S    
C23   H39   S    
Ba2   O5    S    
C31   C32   A    
C52   H72   S    
C3    O15   S    
O20   P1    S    
N1    H42   S    
C36   C37   S    
C2    O21   S    
O3    P3    S    
C9    C18   A    
C13   C14   A    
C45   H43   S    
C43   O2    S    
C23   H19   S    
N3    H54   S    
C50   H64   S    
C48   H57   S    
C49   H61   S    
C37   C38   T    
C31   H33   S    
C45   H45   S    
Ba1   O22   S    
C34   H40   S    
C43   C44   S    
O22   P2    D    
C41   O20   S    
C4    H17   S    
C41   C42   S    
N2    H47   S    
C12   O3    S    
C27   C28   A    
C51   H65   S    
O24   P3    D    
Ba2   O8    S    
C28   C29   A    
C7    O17   S    
C34   O32   S    
C15   C16   A    
C51   H67   S    
C28   C38   S    
C40   H2    S    
O29   C49   S    
Ba2   O6    S    
Ba1   O18   S    
C50   H62   S    
C40   H4    S    
C8    H24   S    
C47   H52   S    
C11   H27   S    
Ba2   O13   S    
C11   C13   A    
C44   H11   S    
C8    H26   S    
O31   C51   S    
O17   P8    S    
C2    H12   S    
C1    C2    S    
C52   H70   S    
C33   C35   A    
C3    O27   S    
C26   C27   A    
O12   P1    S    
C5    O11   S    
C3    H14   S    
C17   C19   A    
C25   C30   A    
C20   C21   A    
C29   C30   A    
C7    H23   S    
C19   P4    S    
C46   H49   S    
C44   H10   S    
Ba1   O12   S    
C44   O26   S    
N1    H41   S    
C22   H29   S    
C43   O25   S    
C29   H34   S    
C31   C36   A    
O5    P4    S    
C48   H56   S    
O15   P7    S    
C4    H16   S    
C49   H60   S    
O26   C46   S    
O25   C45   S    
C7    H22   S    
C27   H36   S    
C12   O30   S    
C49   H59   S    
Ba1   P1    S    
Ba2   P4    S    
C41   H5    S    
C5    N3    S    
C43   N2    S    
O13   P2    S    
O7    P4    S    
O4    P4    D    
C12   C23   S    
C46   H48   S    
C33   C39   A    
O21   P6    S    
N4    H68   S    
C5    C6    S    
C40   H3    S    
O2    P2    S    
C42   H8    S    
C10   C11   A    
Ba2   O12   S    
C6    H21   S    
C10   C16   A    
C25   C26   A    
C13   P6    S    
C47   H51   S    
O14   P7    D    
Ba1   O8    S    
O30   C50   S    
C10   P1    S    
N2    H46   S    
C41   N1    S    
C2    H1    S    
C1    H13   S    
