data_mof_unit_53195.cif
_audit_creation_date              2013-03-05T16:05:09-0500
_audit_creation_method            fapswitch 2.2
_symmetry_space_group_name_H-M    P1
_symmetry_Int_Tables_number       1
_space_group_crystal_system       triclinic
_cell_length_a                    10.868047
_cell_length_b                    9.589817
_cell_length_c                    10.926669
_cell_angle_alpha                 90.28862
_cell_angle_beta                  97.207414
_cell_angle_gamma                 89.586815
_cell_volume                      1129.76817339

loop_
_atom_site_label
_atom_site_type_symbol
_atom_site_description
_atom_site_fract_x
_atom_site_fract_y
_atom_site_fract_z
_atom_type_partial_charge
O1    O     O_R   0.319660 0.618740 0.499990 -0.550100
O2    O     O_R   0.319660 0.381260 0.499990 -0.540294
C1    C     C_R   0.261265 0.500247 0.495044 0.909669
O3    O     O_R   0.499990 0.618790 0.317690 -0.548766
O4    O     O_R   0.499990 0.381210 0.317690 -0.541554
C2    C     C_R   0.491363 0.499403 0.259035 0.869170
Cu1   Cu    Cu3+1 0.500020 0.640660 0.500000 1.126558
Cu2   Cu    Cu3+1 0.500020 0.359340 0.500000 1.138098
O5    O     O_R   0.680370 0.618830 0.500010 -0.544152
O6    O     O_R   0.680370 0.381170 0.500010 -0.536141
O7    O     O_R   0.500030 0.618780 0.682310 -0.528585
O8    O     O_R   0.500030 0.381220 0.682310 -0.515021
C3    C     C_R   0.736108 0.499834 0.492526 0.901235
C4    C     C_R   0.491850 0.499709 0.738553 0.950944
C5    C     C_3   0.401110 0.630981 0.058731 0.477247
C6    C     C_3   0.441483 0.342720 0.062938 0.448509
C7    C     C_3   0.395335 0.617351 0.913376 0.038965
C8    C     C_3   0.448208 0.346197 0.918865 0.066157
H1    H     H_    0.439861 0.711318 0.880700 0.206459
H2    H     H_    0.530697 0.285497 0.899637 0.201887
H3    H     H_    0.658593 0.615071 0.130848 0.243199
H4    H     H_    0.681567 0.440430 0.127966 0.233973
H5    H     H_    0.648265 0.628326 0.919808 0.278247
H6    H     H_    0.683209 0.448536 0.918289 0.238542
C9    C     C_3   0.615323 0.520110 0.086734 -0.472862
C10   C     C_3   0.481090 0.497210 0.119506 -0.271243
C11   C     C_3   0.481657 0.496426 0.874706 -0.267449
C12   C     C_3   0.614372 0.525411 0.944874 -0.434234
C13   C     C_R   0.057979 0.372998 0.473145 0.318266
C14   C     C_R   0.057944 0.628462 0.483189 0.337061
C15   C     C_R   0.930297 0.375616 0.469940 -0.153503
C16   C     C_R   0.930964 0.626595 0.485804 -0.162102
H7    H     H_    0.880084 0.278646 0.457234 0.232118
H8    H     H_    0.881842 0.725101 0.488662 0.221761
C17   C     C_R   0.867854 0.500497 0.483686 -0.205440
C18   C     C_R   0.125103 0.500476 0.485107 -0.251989
C19   C     C_R   0.410315 0.074102 0.429948 0.085457
C20   C     C_R   0.409869 0.926887 0.430688 0.080039
H9    H     H_    0.338356 0.129306 0.372023 0.229365
H10   H     H_    0.335815 0.872593 0.375499 0.237379
N1    N     N_R   0.500030 0.852070 0.500030 -0.267171
N2    N     N_R   0.500030 0.147930 0.500030 -0.262093
C21   C     C_R   0.588163 0.923334 0.581005 0.361045
C22   C     C_R   0.588499 0.075927 0.580942 0.365710
N3    N     N_R   0.469802 0.763387 0.097334 0.135752
O9    O     O_R   0.437901 0.841117 0.185948 -0.253669
O10   O     O_R   0.557931 0.812071 0.039611 -0.296959
N4    N     N_R   0.533566 0.233889 0.116555 0.135912
O11   O     O_R   0.508874 0.149740 0.203019 -0.252316
O12   O     O_R   0.639377 0.213197 0.074637 -0.318451
S1    S     S_3+6 0.692390 0.833693 0.702998 0.101444
O13   O     O_2   0.820981 0.891057 0.708069 -0.182104
O14   O     O_2   0.641354 0.868333 0.820859 -0.210484
O15   O     O_3   0.719738 0.661665 0.712490 -0.541441
H11   H     H_    0.795773 0.649723 0.771934 0.365220
S2    S     S_3+6 0.712763 0.165247 0.683644 0.113155
O16   O     O_2   0.722562 0.106868 0.811436 -0.151520
O17   O     O_2   0.831198 0.134254 0.630826 -0.240670
O18   O     O_3   0.717516 0.336432 0.714166 -0.538629
H12   H     H_    0.803505 0.355173 0.752220 0.372267
S3    S     S_3+6 0.245283 0.659493 0.107642 0.119634
O19   O     O_2   0.253244 0.648733 0.245142 -0.316183
O20   O     O_2   0.206465 0.806374 0.072724 -0.129248
O21   O     O_3   0.128253 0.558484 0.046869 -0.436944
H13   H     H_    0.054845 0.592225 0.084027 0.374188
S4    S     S_3+6 0.286483 0.286208 0.096800 0.139717
O22   O     O_2   0.186072 0.318191 0.993612 -0.151951
O23   O     O_2   0.284292 0.130714 0.113287 -0.132918
O24   O     O_3   0.250074 0.359683 0.227391 -0.546311
H14   H     H_    0.158327 0.362664 0.218148 0.390253
N5    N     N_R   0.270453 0.627224 0.844205 0.146880
O25   O     O_R   0.228784 0.749058 0.806297 -0.212536
O26   O     O_R   0.194279 0.523503 0.832851 -0.228351
N6    N     N_R   0.350056 0.266329 0.844148 0.192329
O27   O     O_R   0.286268 0.317187 0.746058 -0.264503
O28   O     O_R   0.345950 0.132151 0.860765 -0.201355
N7    N     N_R   0.115387 0.239622 0.460180 0.134978
O29   O     O_R   0.159621 0.171743 0.558831 -0.205214
O30   O     O_R   0.087048 0.169621 0.358383 -0.299806
N8    N     N_R   0.114267 0.761434 0.471188 0.143377
O31   O     O_R   0.165226 0.826228 0.569145 -0.231146
O32   O     O_R   0.084655 0.832311 0.370473 -0.266760

loop_
_geom_bond_atom_site_label_1
_geom_bond_atom_site_label_2
_geom_bond_distance
_ccdc_geom_bond_type
S4    O23   1.503628 D    
C6    N4    1.509299 S    
Cu1   Cu2   2.697807 S    
N7    O29   1.299728 A    
C9    C12   1.549882 S    
Cu1   O7    2.004097 S    
C13   C18   1.425159 A    
N6    O28   1.302258 A    
C20   H10   1.078689 S    
Cu2   N2    2.027385 S    
C3    C17   1.447176 S    
O4    C2    1.301909 A    
O7    C4    1.308314 A    
S4    O24   1.678296 S    
S2    O16   1.498085 D    
C5    C7    1.586374 S    
C19   N2    1.362160 A    
S3    O20   1.504672 D    
O5    C3    1.295136 A    
H4    C9    1.104225 S    
C15   H7    1.081132 S    
C4    C11   1.506121 S    
C14   N8    1.432148 S    
N4    O12   1.303654 A    
S4    O22   1.498708 D    
O18   H12   0.991326 S    
C8    N6    1.475809 S    
N1    C21   1.399298 A    
S3    O19   1.498067 D    
N2    C22   1.402196 A    
O3    Cu1   2.001961 S    
N3    O10   1.301588 A    
C6    C10   1.641803 S    
N6    O27   1.296592 A    
S1    O13   1.500047 D    
C7    C11   1.575519 S    
C16   C17   1.393191 A    
C20   N1    1.363107 A    
N8    O32   1.300814 A    
N5    O26   1.294208 A    
C5    C10   1.640081 S    
C9    C10   1.562428 S    
N3    O9    1.298693 A    
O1    C1    1.303108 A    
C16   H8    1.083967 S    
S3    O21   1.672214 S    
C21   C22   1.463378 A    
C19   C20   1.411874 A    
C22   S2    1.855689 S    
Cu2   O8    2.001995 S    
C5    S3    1.856718 S    
N7    O30   1.300843 A    
C6    C8    1.585596 S    
H5    C12   1.103640 S    
O3    C2    1.307445 A    
N4    O11   1.300088 A    
O8    C4    1.296895 A    
C7    N5    1.470973 S    
C15   C17   1.389010 A    
C6    S4    1.854686 S    
C5    N3    1.508897 S    
Cu1   O5    1.969685 S    
H3    C9    1.108003 S    
O15   H11   0.991235 S    
O1    Cu1   1.972893 S    
Cu2   O6    1.972687 S    
O2    Cu2   1.969879 S    
C8    C11   1.580841 S    
H6    C12   1.109950 S    
N8    O31   1.299211 A    
O6    C3    1.300735 A    
O4    Cu2   2.004062 S    
S2    O18   1.673390 S    
C14   C18   1.422356 A    
S1    O15   1.675588 S    
O21   H13   0.991097 S    
O2    C1    1.299723 A    
N5    O25   1.300729 A    
C13   C15   1.383743 A    
C14   C16   1.384142 A    
C21   S1    1.848651 S    
C2    C10   1.514682 S    
C1    C18   1.470141 S    
C7    H1    1.107507 S    
S2    O17   1.502440 D    
C8    H2    1.106879 S    
Cu1   N1    2.027382 S    
O24   H14   0.989750 S    
C13   N7    1.433230 S    
C19   H9    1.079659 S    
C11   C12   1.572142 S    
S1    O14   1.499593 D    
