data_mof_unit_20643.cif
_audit_creation_date              2012-12-11T18:37:19-0500
_audit_creation_method            fapswitch 2.2
_symmetry_space_group_name_H-M    P1
_symmetry_Int_Tables_number       1
_space_group_crystal_system       triclinic
_cell_length_a                    8.206358
_cell_length_b                    14.393621
_cell_length_c                    26.974637
_cell_angle_alpha                 93.526893
_cell_angle_beta                  92.56441
_cell_angle_gamma                 88.117749
_cell_volume                      3175.55611215

loop_
_atom_site_label
_atom_site_type_symbol
_atom_type_description
_atom_site_fract_x
_atom_site_fract_y
_atom_site_fract_z
_atom_type_partial_charge
Ba1   Ba    Ba6+2 0.849670 0.455410 0.524690 1.647943
Ba2   Ba    Ba6+2 0.340150 0.544510 0.475310 1.662639
C1    C     C_3   0.637073 0.127391 0.669708 -0.317661
C2    C     C_3   0.632597 0.220514 0.645939 0.323535
C3    C     C_3   0.522506 0.690704 0.623126 0.298552
C4    C     C_3   0.488382 0.729134 0.675590 -0.343815
C5    C     C_3   0.008239 0.806006 0.336213 0.313081
C6    C     C_3   0.042098 0.827845 0.283336 -0.297578
C7    C     C_3   0.562356 0.784991 0.327296 0.341213
C8    C     C_3   0.483502 0.878053 0.314473 -0.320041
C9    C     C_R   0.009441 0.434095 0.179940 0.592586
C10   C     C_R   0.955240 0.598550 0.178916 0.585917
C11   C     C_2   0.777217 0.567543 0.270825 -0.089486
C12   C     C_3   0.134419 0.249965 0.668619 0.320139
C13   C     C_3   0.756174 0.594882 0.325174 -0.095736
C14   C     C_1   0.981344 0.484606 0.343695 0.040433
C15   C     C_2   0.023707 0.478676 0.296324 -0.078738
C16   C     C_2   0.915044 0.520719 0.256481 0.216136
C17   C     C_R   0.039437 0.512769 0.102908 -0.080294
C18   C     C_R   0.051635 0.431104 0.129306 -0.034198
C19   C     C_R   0.103791 0.347886 0.104311 -0.060069
C20   C     C_R   0.990092 0.596815 0.128022 -0.027191
C21   C     C_2   0.853363 0.534006 0.359613 -0.262175
C22   C     C_2   0.352509 0.480191 0.641950 -0.284846
C23   C     C_3   0.087243 0.236601 0.721457 -0.332631
C24   C     C_R   0.180856 0.425900 0.976405 0.019665
C25   C     C_R   0.084484 0.589409 0.972834 0.019831
C26   C     C_R   0.151225 0.506760 0.949154 0.050473
C27   C     C_R   0.256658 0.347334 0.951830 -0.100103
C28   C     C_R   0.297791 0.347491 0.902206 -0.060124
C29   C     C_R   0.263864 0.425534 0.874416 -0.030881
C30   C     C_R   0.189218 0.505120 0.897718 -0.077971
C31   C     C_R   0.153552 0.583326 0.869694 -0.034877
C32   C     C_R   0.191289 0.580689 0.818856 0.591319
C33   C     C_R   0.304133 0.425653 0.823868 0.577991
C34   C     C_3   0.164107 0.259761 0.424348 0.311995
C35   C     C_2   0.461168 0.483960 0.729928 -0.072457
C36   C     C_3   0.503585 0.488633 0.675889 -0.050964
C37   C     C_1   0.215420 0.520604 0.656594 0.039102
C38   C     C_2   0.176827 0.522174 0.704103 -0.104315
C39   C     C_2   0.305596 0.501367 0.743908 0.203319
C40   C     C_R   0.135468 0.426472 0.027112 0.019830
C41   C     C_R   0.077038 0.510612 0.051425 0.050098
C42   C     C_R   0.056007 0.592789 0.024827 0.020095
C43   C     C_R   0.145482 0.345554 0.054598 -0.099902
C44   C     C_R   0.977566 0.678128 0.101909 -0.062545
C45   C     C_3   0.165439 0.154440 0.414821 -0.383750
C46   C     C_R   0.047338 0.665976 0.943333 -0.100908
C47   C     C_R   0.080790 0.662780 0.893054 -0.060304
C48   C     C_R   0.008868 0.676245 0.051564 -0.101837
C49   C     C_R   0.691545 0.065124 0.473865 -0.027477
C50   C     C_R   0.512156 0.199002 0.502450 0.048315
C51   C     C_R   0.374383 0.230490 0.527648 -0.328199
C52   C     C_R   0.285318 0.170342 0.553562 0.009174
C53   C     C_R   0.345378 0.079618 0.559827 0.165082
C54   C     C_R   0.475445 0.043276 0.531044 -0.019716
C55   C     C_R   0.560453 0.103038 0.501837 -0.053558
C56   C     C_3   0.010466 0.736853 0.575087 0.269645
C57   C     C_R   0.643966 0.909748 0.500462 -0.023753
C58   C     C_R   0.736591 0.969992 0.474120 0.017900
C59   C     C_R   0.682922 0.813012 0.497367 0.031349
C60   C     C_R   0.814263 0.778632 0.470135 -0.275419
C61   C     C_R   0.917317 0.838818 0.449321 -0.019599
C62   C     C_R   0.876135 0.934292 0.449666 -0.132688
C63   C     C_R   0.517575 0.947801 0.529666 -0.024870
C64   C     C_3   0.036918 0.840469 0.578737 -0.326830
C65   C     C_3   0.659924 0.339294 0.380004 0.300655
C66   C     C_3   0.665269 0.315715 0.324352 -0.363442
H1    H     H_    0.739297 0.221712 0.622165 0.109477
H2    H     H_    0.252452 0.132726 0.385616 0.124265
H3    H     H_    0.202818 0.119807 0.449314 0.060371
H4    H     H_    0.041375 0.131809 0.402373 0.116317
H5    H     H_    0.879877 0.724297 0.575494 0.026289
H6    H     H_    0.061389 0.707764 0.539700 0.052589
H7    H     H_    0.011967 0.870228 0.616717 0.179817
H8    H     H_    0.956096 0.876875 0.551924 0.065928
H9    H     H_    0.165164 0.851299 0.569962 0.162630
H10   H     H_    0.782559 0.359490 0.394417 0.006543
H11   H     H_    0.571908 0.398526 0.386249 0.083517
H12   H     H_    0.636880 0.069872 0.640321 0.116007
H13   H     H_    0.758867 0.259749 0.316796 0.130771
H14   H     H_    0.696219 0.378075 0.304945 0.071285
H15   H     H_    0.544192 0.291893 0.309578 0.133619
H16   H     H_    0.518767 0.226721 0.622655 -0.028433
H17   H     H_    0.528706 0.122245 0.692508 0.152785
H18   H     H_    0.406041 0.666450 0.605152 0.039536
H19   H     H_    0.612188 0.631445 0.624921 0.025071
H20   H     H_    0.404663 0.791232 0.674043 0.170557
H21   H     H_    0.429840 0.676235 0.696410 0.069144
H22   H     H_    0.749577 0.120231 0.693784 0.134759
H23   H     H_    0.154260 0.285516 0.747542 0.124843
H24   H     H_    0.961537 0.734533 0.335738 -0.002694
H25   H     H_    0.914457 0.857527 0.350036 -0.053022
H26   H     H_    0.130492 0.775498 0.267269 0.164167
H27   H     H_    0.926678 0.826641 0.260264 0.113701
H28   H     H_    0.093446 0.898240 0.283050 0.094195
H29   H     H_    0.660228 0.768387 0.300672 -0.027453
H30   H     H_    0.616539 0.792883 0.365901 -0.021987
H31   H     H_    0.579172 0.930629 0.313402 0.053171
H32   H     H_    0.109665 0.324216 0.661081 0.044197
H33   H     H_    0.418477 0.871354 0.277493 0.116809
H34   H     H_    0.139110 0.445215 0.286367 0.122236
H35   H     H_    0.113157 0.283574 0.123255 0.120774
H36   H     H_    0.558459 0.472707 0.757728 0.102446
H37   H     H_    0.356386 0.285392 0.885534 0.123002
H38   H     H_    0.289761 0.284792 0.970314 0.069776
H39   H     H_    0.181769 0.278217 0.038388 0.069142
H40   H     H_    0.693477 0.597695 0.243499 0.101799
H41   H     H_    0.942134 0.744251 0.120351 0.118461
H42   H     H_    0.988450 0.729312 0.957732 0.070072
H43   H     H_    0.266745 0.232888 0.665615 0.015229
H44   H     H_    0.049568 0.723632 0.872449 0.124208
H45   H     H_    0.052542 0.538713 0.714438 0.123094
H46   H     H_    0.998792 0.742428 0.034930 0.068983
H47   H     H_    0.834211 0.545784 0.399078 0.075675
H48   H     H_    0.356448 0.441809 0.606041 0.072172
H49   H     H_    0.332412 0.302235 0.525522 0.071924
H50   H     H_    0.954551 0.980402 0.432146 0.062279
H51   H     H_    0.845026 0.704853 0.469010 0.052077
H52   H     H_    0.759883 0.108448 0.451526 0.094829
H53   H     H_    0.954386 0.250930 0.725033 0.143454
H54   H     H_    0.117572 0.164090 0.731331 0.143382
H55   H     H_    0.289467 0.281912 0.433957 0.002511
H56   H     H_    0.084034 0.278767 0.455704 0.069403
N1    N     N_R   0.960785 0.517359 0.204374 -0.422018
N2    N     N_R   0.265523 0.502259 0.796266 -0.425227
O1    O     O_2   0.918080 0.549800 0.616640 -0.471669
O2    O     O_3   0.611950 0.260813 0.403184 -0.639792
O3    O     O_3   0.041689 0.190719 0.636024 -0.560682
O4    O     O_2   0.271610 0.450170 0.383330 -0.455258
O5    O     O_3   0.039630 0.450200 0.443530 -0.502420
O6    O     O_3   0.531440 0.620360 0.408460 -0.456727
O7    O     O_3   0.107226 0.300999 0.381051 -0.628347
O8    O     O_3   0.643350 0.612530 0.521650 -0.480494
O9    O     O_3   0.127390 0.668260 0.431510 -0.464012
O10   O     O_2   0.256520 0.832550 0.457536 -0.474478
O11   O     O_3   0.153474 0.812348 0.365466 -0.562078
O12   O     O_3   0.150070 0.549720 0.556460 -0.488844
O13   O     O_3   0.546340 0.387390 0.478340 -0.487721
O14   O     O_2   0.398940 0.728800 0.517420 -0.456462
O15   O     O_3   0.587520 0.761577 0.597542 -0.639236
O16   O     O_2   0.431749 0.532738 0.322909 -0.485423
O17   O     O_3   0.445590 0.715027 0.322910 -0.548519
O18   O     O_2   0.014101 0.362280 0.201931 -0.599236
O19   O     O_2   0.373247 0.357228 0.804436 -0.599289
O20   O     O_2   0.921002 0.673038 0.200704 -0.627963
O21   O     O_2   0.160521 0.649025 0.794955 -0.593900
O22   O     O_3   0.658250 0.379560 0.591530 -0.489928
O23   O     O_2   0.834326 0.426300 0.673529 -0.493782
O24   O     O_3   0.086128 0.698715 0.616782 -0.623800
O25   O     O_3   0.636163 0.292751 0.683328 -0.595741
O26   O     O_2   0.790750 0.271170 0.482550 -0.471767
O27   O     O_3   0.062300 0.331660 0.568480 -0.493562
O28   O     O_2   0.946469 0.166017 0.542628 -0.474564
P1    P     P_3+3 0.090020 0.577590 0.608380 0.996461
P2    P     P_3+3 0.614340 0.285150 0.467650 0.972679
P3    P     P_3+3 0.084730 0.212604 0.575043 0.990891
P4    P     P_3+3 0.099670 0.422330 0.391610 0.989753
P5    P     P_3+3 0.112233 0.789386 0.426395 0.983148
P6    P     P_3+3 0.659379 0.398840 0.656166 0.969934
P7    P     P_3+3 0.583218 0.729585 0.533882 0.939413
P8    P     P_3+3 0.540485 0.613034 0.343740 0.979913
H57   H     H_    0.604222 0.749324 0.695638 0.124228
H58   H     H_    0.396625 0.902780 0.343078 0.151190
Br1   Br    Br    0.270381 0.014940 0.614312 -0.676610
H59   H     H_    0.447506 0.902702 0.550312 0.139181

loop_
_geom_bond_atom_site_label_1
_geom_bond_atom_site_label_2
_ccdc_geom_bond_type
C25   C46   A    
O12   P1    S    
C46   H42   S    
C53   C54   A    
O15   P7    S    
C7    H30   S    
C1    H17   S    
C13   P8    S    
C17   C18   A    
C6    H28   S    
C61   P5    S    
C41   C42   A    
C34   O7    S    
O3    P3    S    
C7    O17   S    
C4    H20   S    
C5    C6    S    
C51   C52   A    
C65   H10   S    
C56   H6    S    
C60   C61   A    
C11   C16   D    
Ba1   O26   S    
C1    H22   S    
C59   P7    S    
C66   H13   S    
C9    N1    Am   
C35   C36   S    
O7    P4    S    
C16   N1    S    
C33   O19   D    
C28   C29   A    
C51   H49   S    
C5    H24   S    
C31   C47   A    
C54   C63   A    
C10   C20   A    
C22   C37   D    
C62   H50   S    
C54   C55   A    
C34   C45   S    
Ba1   Ba2   S    
O22   P6    S    
C10   O20   D    
Ba1   P1    S    
O10   P5    D    
C3    O15   S    
C25   C42   A    
C56   C64   S    
O26   P2    D    
C7    H29   S    
C14   C15   D    
C49   H52   S    
C22   C36   S    
C49   C55   A    
C23   H54   S    
O17   P8    S    
Ba1   O13   S    
Ba2   P4    S    
Ba1   P2    S    
C13   C21   S    
C57   C58   A    
O27   P3    S    
C59   C60   A    
C6    H27   S    
C11   H40   S    
C1    H12   S    
C7    C8    S    
C2    H1    S    
C17   C41   A    
Ba2   O5    S    
C19   C43   A    
C8    H33   S    
C12   H43   S    
C5    H25   S    
C9    C18   A    
C57   C59   A    
C23   H23   S    
O11   P5    S    
C14   P4    S    
C65   C66   S    
Ba2   O12   S    
C26   C30   A    
C34   H55   S    
O9    P5    S    
O28   P3    D    
O1    P1    D    
C37   C38   D    
C5    O11   S    
C10   N1    Am   
O14   P7    D    
C63   H59   S    
C33   N2    Am   
C37   P1    S    
C48   H46   S    
C40   C43   A    
C19   H35   S    
O5    P4    S    
C15   H34   S    
C45   H2    S    
C27   C28   A    
C32   O21   D    
Ba2   O6    S    
C38   H45   S    
C2    H16   S    
C32   N2    Am   
C64   H8    S    
C17   C20   A    
C15   C16   S    
C65   H11   S    
Ba2   O8    S    
C18   C19   A    
Ba1   O27   S    
C45   H3    S    
C60   H51   S    
C47   H44   S    
C3    H18   S    
C46   C47   A    
C20   C44   A    
C22   H48   S    
C14   C21   D    
O24   P1    S    
C11   C13   S    
C28   H37   S    
C29   C33   A    
C27   H38   S    
C40   C41   A    
Ba2   O13   S    
C1    C2    S    
C6    H26   S    
C50   C51   A    
C24   C40   A    
C9    O18   D    
C42   C48   A    
C2    O25   S    
C52   C53   A    
C38   C39   S    
C8    H58   S    
C34   H56   S    
C66   H15   S    
C39   N2    S    
C29   C30   A    
Ba1   O1    S    
Ba1   O5    S    
O16   P8    D    
C35   H36   S    
C12   H32   S    
C50   P2    S    
C4    H21   S    
C44   C48   A    
C24   C26   A    
Ba2   O9    S    
O8    P7    S    
O4    P4    D    
C58   C62   A    
C66   H14   S    
C30   C31   A    
Ba2   O14   S    
C65   O2    S    
O25   P6    S    
C52   P3    S    
C3    C4    S    
O13   P2    S    
C64   H7    S    
Ba2   O4    S    
C31   C32   A    
C56   O24   S    
C64   H9    S    
C12   C23   S    
C35   C39   D    
C8    H31   S    
O23   P6    D    
O6    P8    S    
C45   H4    S    
C50   C55   A    
O2    P2    S    
C21   H47   S    
C61   C62   A    
C3    H19   S    
C43   H39   S    
C4    H57   S    
C24   C27   A    
C44   H41   S    
C25   C26   A    
C53   Br1   S    
Ba1   O22   S    
C49   C58   A    
C23   H53   S    
C57   C63   A    
Ba1   O12   S    
Ba1   O8    S    
C56   H5    S    
C36   P6    S    
C12   O3    S    
