data_mof_unit_34326.cif
_audit_creation_date              2013-03-05T16:44:40-0500
_audit_creation_method            fapswitch 2.2
_symmetry_space_group_name_H-M    P1
_symmetry_Int_Tables_number       1
_space_group_crystal_system       triclinic
_cell_length_a                    27.373029
_cell_length_b                    10.870688
_cell_length_c                    9.978049
_cell_angle_alpha                 88.962813
_cell_angle_beta                  90.948004
_cell_angle_gamma                 89.2063
_cell_volume                      2967.91453539

loop_
_atom_site_label
_atom_site_type_symbol
_atom_site_description
_atom_site_fract_x
_atom_site_fract_y
_atom_site_fract_z
_atom_type_partial_charge
O1    O     O_R   0.500010 0.316790 0.614690 -0.558211
O2    O     O_R   0.500000 0.316760 0.385350 -0.633423
C1    C     C_R   0.500336 0.259696 0.500156 0.933969
O3    O     O_R   0.428760 0.500040 0.614660 -0.542759
O4    O     O_R   0.428750 0.500000 0.385310 -0.638335
C2    C     C_R   0.405777 0.504154 0.498351 0.956596
Zn1   Zn    Zn3+2 0.500000 0.500020 0.653130 1.051573
Zn2   Zn    Zn3+2 0.500000 0.499980 0.346870 0.994583
O5    O     O_R   0.500000 0.683240 0.614650 -0.617761
O6    O     O_R   0.499990 0.683210 0.385310 -0.619612
O7    O     O_R   0.571250 0.500000 0.614690 -0.611634
O8    O     O_R   0.571240 0.499960 0.385340 -0.614674
C3    C     C_R   0.503298 0.737981 0.498757 0.952437
C4    C     C_R   0.594074 0.500241 0.500502 0.988677
C5    C     C_R   0.180383 0.427149 0.385967 0.570918
O9    O     O_2   0.208400 0.323995 0.395016 -0.519886
N1    N     N_R   0.201181 0.539963 0.398603 -0.337621
C6    C     C_R   0.174821 0.646038 0.373916 0.593624
C7    C     C_R   0.284494 0.599852 0.351420 -0.085894
C8    C     C_R   0.334135 0.591014 0.377438 -0.287700
C9    C     C_R   0.319968 0.477530 0.584617 0.354599
C10   C     C_R   0.268784 0.490013 0.560948 -0.091774
C11   C     C_R   0.251645 0.546308 0.439493 0.196885
C12   C     C_R   0.101844 0.525584 0.342893 -0.056956
C13   C     C_R   0.129918 0.418140 0.368304 -0.074562
C14   C     C_R   0.107097 0.305223 0.386531 -0.199316
C15   C     C_R   0.125170 0.640754 0.333941 -0.080328
C16   C     C_R   0.352454 0.523853 0.488827 -0.079091
H1    H     H_    0.128725 0.223948 0.413372 0.213051
C17   C     C_R   0.647548 0.494214 0.497269 -0.200309
C18   C     C_R   0.975687 0.397060 0.330289 -0.046379
C19   C     C_R   0.970904 0.623096 0.328112 0.076511
C20   C     C_R   0.948135 0.507118 0.340545 0.061729
C21   C     C_R   0.950220 0.285995 0.308623 -0.125056
C22   C     C_R   0.901662 0.277059 0.354147 0.421770
C23   C     C_R   0.875353 0.385645 0.383959 -0.116043
C24   C     C_R   0.897614 0.500851 0.365558 -0.128398
C25   C     C_R   0.869786 0.609878 0.377284 -0.033666
C26   C     C_R   0.820240 0.602330 0.407243 0.616232
N2    N     N_R   0.799986 0.490633 0.434958 -0.336985
C27   C     C_R   0.826628 0.383537 0.427234 0.668782
C28   C     C_R   0.717858 0.425649 0.371681 0.467205
C29   C     C_R   0.667827 0.426205 0.393452 -0.306509
C30   C     C_R   0.678122 0.558508 0.587115 -0.190530
C31   C     C_R   0.729534 0.545586 0.574126 0.381206
C32   C     C_R   0.748699 0.485274 0.462216 0.184557
O10   O     O_2   0.805760 0.275933 0.461328 -0.432471
C33   C     C_R   0.027342 0.402223 0.344268 0.055021
C34   C     C_R   0.050420 0.518132 0.331144 0.015768
C35   C     C_R   0.022235 0.627557 0.313334 0.054832
C36   C     C_R   0.056147 0.297327 0.383258 0.468583
H2    H     H_    0.644251 0.377225 0.324898 0.185270
O11   O     O_2   0.196012 0.755408 0.395027 -0.505304
C37   C     C_R   0.097385 0.746156 0.293372 -0.019212
H3    H     H_    0.358557 0.635487 0.308536 0.181071
H4    H     H_    0.271527 0.645067 0.259700 0.183894
C38   C     C_R   0.941716 0.730794 0.337433 -0.182237
C39   C     C_R   0.891960 0.723989 0.360206 -0.079064
O12   O     O_2   0.792397 0.705798 0.408459 -0.482244
C40   C     C_R   0.046497 0.738494 0.285598 -0.240930
H5    H     H_    0.956576 0.822080 0.333561 0.179468
H6    H     H_    0.871237 0.809050 0.368869 0.212999
H7    H     H_    0.026467 0.820150 0.252977 0.181907
C41   C     C_R   0.497676 0.054927 0.611102 -0.089342
C42   C     C_R   0.504063 0.126238 0.496502 -0.121732
C43   C     C_R   0.515525 0.062853 0.376091 -0.111331
C44   C     C_R   0.521469 0.933782 0.377452 -0.137147
C45   C     C_R   0.509773 0.867430 0.495791 -0.151149
C46   C     C_R   0.500449 0.931571 0.610214 0.108981
C47   C     C_3   0.484168 0.913522 0.750888 0.669529
C48   C     C_3   0.482651 0.056251 0.754774 -0.290419
C49   C     C_R   0.461340 0.546509 0.068329 0.160149
N3    N     N_R   0.499670 0.499140 0.142800 -0.114387
C50   C     C_R   0.540923 0.469834 0.075800 -0.147374
H8    H     H_    0.573113 0.440726 0.132992 0.185401
C51   C     C_R   0.541426 0.469370 0.932838 -0.007478
N4    N     N_R   0.499670 0.499180 0.857150 -0.129641
C52   C     C_R   0.461089 0.544578 0.926691 0.076229
C53   C     C_3   0.410030 0.498057 0.924345 0.287737
C54   C     C_3   0.409682 0.506809 0.076079 -0.571586
H9    H     H_    0.383801 0.561988 0.871765 0.162001
H10   H     H_    0.385354 0.582325 0.108766 0.181517
H11   H     H_    0.405399 0.417696 0.130857 0.248225
O13   O     O_3   0.339075 0.418008 0.696695 -0.699261
H12   H     H_    0.316237 0.427734 0.771674 0.360172
C55   C     C_2   0.119865 0.863391 0.249289 1.006497
O14   O     O_2   0.101072 0.961826 0.278599 -0.632059
O15   O     O_R   0.161237 0.861226 0.168911 -0.751633
H13   H     H_    0.172749 0.946780 0.144090 0.368106
C56   C     C_2   0.656888 0.653362 0.676364 1.033894
O16   O     O_2   0.673294 0.667844 0.789510 -0.555608
O17   O     O_R   0.618368 0.728904 0.628746 -0.786253
H14   H     H_    0.607077 0.790185 0.697493 0.376557
O18   O     O_3   0.762086 0.598624 0.661865 -0.696366
H15   H     H_    0.750514 0.582730 0.753815 0.382250
C57   C     C_2   0.516867 0.128347 0.246774 1.024261
O19   O     O_2   0.555980 0.158680 0.200290 -0.638942
O20   O     O_R   0.472435 0.165287 0.186728 -0.726864
H16   H     H_    0.475175 0.242987 0.130674 0.353291
C58   C     C_2   0.540727 0.870534 0.257448 1.001799
O21   O     O_2   0.521183 0.887049 0.147351 -0.580916
O22   O     O_R   0.580990 0.790508 0.271960 -0.741215
H17   H     H_    0.590287 0.751255 0.184392 0.363664
O23   O     O_3   0.438332 0.856705 0.756975 -0.780454
H18   H     H_    0.430054 0.851326 0.853320 0.356823
C59   C     C_2   0.232944 0.441155 0.658089 0.923536
O24   O     O_2   0.239037 0.339040 0.709657 -0.560411
O25   O     O_R   0.191271 0.510940 0.687088 -0.790724
H19   H     H_    0.169131 0.467380 0.752533 0.356702
O26   O     O_3   0.520115 0.857140 0.835067 -0.720757
H20   H     H_    0.513508 0.767748 0.839203 0.360055
C60   C     C_2   0.431905 0.108970 0.775081 1.011334
O27   O     O_2   0.412670 0.096612 0.884188 -0.559379
O28   O     O_R   0.406307 0.167120 0.668743 -0.747987
H21   H     H_    0.371849 0.191694 0.693640 0.406155
C61   C     C_2   0.522319 0.111160 0.840149 1.087694
O29   O     O_2   0.564547 0.072991 0.834415 -0.524900
O30   O     O_R   0.511179 0.207960 0.922838 -0.828992
H22   H     H_    0.540600 0.231872 0.978029 0.362396
C62   C     C_2   0.587194 0.424619 0.873073 0.938118
O31   O     O_2   0.626235 0.465347 0.911916 -0.604774
O32   O     O_R   0.586609 0.328105 0.782624 -0.755875
H23   H     H_    0.620549 0.303274 0.753015 0.352471
O33   O     O_3   0.407255 0.376321 0.880058 -0.639941
H24   H     H_    0.430664 0.324762 0.933917 0.377607
O34   O     O_3   0.737549 0.370262 0.260859 -0.699627
H25   H     H_    0.710954 0.333638 0.206667 0.364628
O35   O     O_3   0.878645 0.165162 0.361961 -0.647010
H26   H     H_    0.902820 0.103625 0.397462 0.362722
C63   C     C_2   0.970550 0.192275 0.215120 1.039108
O36   O     O_2   0.953436 0.089244 0.208597 -0.615599
O37   O     O_R   0.008575 0.224491 0.129833 -0.783991
H27   H     H_    0.019224 0.154249 0.071023 0.361814
O38   O     O_3   0.034063 0.191547 0.429971 -0.768397
H28   H     H_    0.059317 0.129160 0.456668 0.369262

loop_
_geom_bond_atom_site_label_1
_geom_bond_atom_site_label_2
_geom_bond_distance
_ccdc_geom_bond_type
C7    H4    1.083176 S    
C39   H6    1.083631 S    
O34   H25   0.991804 S    
N3    C50   1.358785 A    
C63   O37   1.399591 S    
C7    C8    1.380884 A    
C12   C15   1.415319 A    
O35   H26   0.991112 S    
C60   O28   1.398294 S    
O28   H21   1.012872 S    
C38   C39   1.387268 A    
C15   C37   1.415648 A    
C37   C40   1.397536 A    
N4    C52   1.364744 A    
O25   H19   1.013784 S    
Zn1   O7    1.993901 S    
N1    C11   1.436799 S    
C50   C51   1.426872 A    
C40   H7    1.079184 S    
O17   H14   1.013766 S    
C23   C24   1.410659 A    
C8    H3    1.079558 S    
O4    C2    1.301630 A    
O7    C4    1.308430 A    
C55   O15   1.398672 S    
C29   H2    1.084418 S    
C5    C13   1.394705 A    
C59   O24   1.223180 D    
C5    O9    1.350543 S    
C61   O29   1.225294 D    
C5    N1    1.366209 A    
C21   C22   1.415801 A    
C28   C32   1.400013 A    
C41   C48   1.498188 S    
O5    C3    1.295965 A    
O30   H22   1.007841 S    
O23   H18   0.992206 S    
C49   C52   1.413712 A    
C47   O26   1.409492 S    
C6    O11   1.348524 S    
O26   H20   0.991147 S    
O13   H12   0.989040 S    
C33   C36   1.422042 A    
C2    C16   1.473545 S    
C22   C23   1.413047 A    
O37   H27   1.013936 S    
C57   O20   1.397548 S    
C18   C20   1.411603 A    
C47   C48   1.552746 S    
Zn1   N4    2.035747 S    
C43   C44   1.410053 A    
C25   C39   1.397437 A    
C9    C10   1.421212 A    
C57   O19   1.220982 D    
C17   C30   1.416555 A    
C23   C27   1.409064 A    
C46   C47   1.490134 S    
C19   C38   1.413547 A    
C4    C17   1.465213 S    
C54   H11   1.112208 S    
C31   O18   1.378224 S    
C60   O27   1.223154 D    
C62   O32   1.396346 S    
C10   C11   1.417616 A    
C1    C42   1.454110 S    
C50   H8    1.082259 S    
C44   C45   1.416019 A    
C12   C13   1.406052 A    
C54   H10   1.107009 S    
C26   N2    1.367388 A    
C37   C55   1.485492 S    
C52   C53   1.492871 S    
C45   C46   1.374173 A    
C8    C16   1.400655 A    
O3    Zn1   1.981230 S    
C13   C14   1.395329 A    
C31   C32   1.410082 A    
C20   C24   1.411667 A    
O1    C1    1.310417 A    
C7    C11   1.393456 A    
C24   C25   1.407688 A    
C56   O17   1.398991 S    
C9    O13   1.374024 S    
Zn2   O8    1.981230 S    
C26   O12   1.350251 S    
C48   C60   1.513426 S    
C58   O22   1.398582 S    
N1    C6    1.368108 A    
C27   O10   1.349372 S    
C18   C21   1.420631 A    
O18   H15   0.988605 S    
C51   C62   1.476523 S    
C41   C46   1.342258 A    
C51   N4    1.390727 A    
C19   C35   1.416650 A    
C44   C58   1.491649 S    
O3    C2    1.310660 A    
N2    C27   1.369221 A    
C9    C16   1.407459 A    
O8    C4    1.299047 A    
C34   C35   1.415691 A    
C18   C33   1.420496 A    
C17   C29   1.401134 A    
C28   C29   1.390105 A    
N2    C32   1.436147 S    
C30   C56   1.492604 S    
C30   C31   1.420653 A    
C55   O14   1.223201 D    
C43   C57   1.463639 S    
C12   C34   1.414114 A    
Zn1   O5    2.021561 S    
C33   C34   1.422206 A    
O1    Zn1   2.035234 S    
O2    Zn2   2.021562 S    
C6    C15   1.412302 A    
C49   N3    1.365111 A    
O6    C3    1.290958 A    
O4    Zn2   1.993904 S    
C38   H5    1.077970 S    
O38   H28   0.991529 S    
C53   O33   1.405409 S    
C53   H9    1.110945 S    
C35   C40   1.410029 A    
C41   C42   1.384677 A    
O2    C1    1.292645 A    
C49   C54   1.486953 S    
C10   C59   1.487041 S    
C14   C36   1.398354 A    
C19   C20   1.418451 A    
C56   O16   1.221740 D    
C25   C26   1.396808 A    
C59   O25   1.398341 S    
Zn2   N3    2.036277 S    
C36   O38   1.383520 S    
C61   O30   1.382712 S    
C48   C61   1.505584 S    
C63   O36   1.222417 D    
C47   O23   1.407844 S    
C42   C43   1.432897 A    
O22   H17   1.013975 S    
C28   O34   1.382257 S    
C53   C54   1.518889 S    
O15   H13   1.013886 S    
C21   C63   1.501320 S    
C14   H1    1.083760 S    
Zn2   O6    2.035233 S    
O20   H16   1.008925 S    
C22   O35   1.379148 S    
C62   O31   1.222264 D    
C58   O21   1.223113 D    
O32   H23   1.014046 S    
O33   H24   0.990602 S    
C3    C45   1.420596 S    
