data_mof_unit_30814.cif
_audit_creation_date              2012-12-10T17:42:38-0500
_audit_creation_method            fapswitch 2.2
_symmetry_space_group_name_H-M    P1
_symmetry_Int_Tables_number       1
_space_group_crystal_system       triclinic
_cell_length_a                    9.899317
_cell_length_b                    10.723875
_cell_length_c                    13.094973
_cell_angle_alpha                 91.434848
_cell_angle_beta                  69.678271
_cell_angle_gamma                 88.05957
_cell_volume                      1301.87080296

loop_
_atom_site_label
_atom_site_type_symbol
_atom_type_description
_atom_site_fract_x
_atom_site_fract_y
_atom_site_fract_z
_atom_type_partial_charge
C1    C     C_R   0.497528 0.740791 0.498015 0.871151
C2    C     C_R   0.434144 0.470226 0.983589 0.101391
C3    C     C_R   0.464216 0.437414 0.873189 0.091944
C4    C     C_R   0.546558 0.455365 0.026506 0.043264
C5    C     C_R   0.678600 0.389139 0.965642 0.143532
C6    C     C_R   0.695604 0.340520 0.861416 -0.247565
C7    C     C_R   0.589890 0.363449 0.816403 -0.205036
C8    C     C_R   0.531421 0.508498 0.127800 -0.266720
C9    C     C_R   0.760970 0.416558 0.119390 -0.251959
C10   C     C_R   0.368706 0.481544 0.821950 -0.115131
C11   C     C_R   0.220227 0.902333 0.542724 -0.185127
C12   C     C_R   0.420173 0.493364 0.704017 0.833225
C13   C     C_R   0.092784 0.973096 0.595763 -0.157922
C14   C     C_R   0.097590 0.088970 0.643608 -0.148162
C15   C     C_R   0.230348 0.139457 0.628498 -0.152745
C16   C     C_R   0.360092 0.073033 0.565779 0.102092
C17   C     C_R   0.356263 0.947306 0.535986 0.099811
C18   C     C_R   0.489654 0.875396 0.499063 -0.125488
C19   C     C_R   0.621026 0.933347 0.475288 -0.219900
C20   C     C_R   0.623042 0.060326 0.485531 -0.221376
C21   C     C_R   0.493426 0.130317 0.526941 -0.129498
C22   C     C_R   0.787101 0.657877 0.650672 -0.137690
C23   C     C_R   0.497421 0.261476 0.510160 0.872008
C24   C     C_R   0.819552 0.727222 0.729716 -0.205622
C25   C     C_R   0.958221 0.721945 0.732219 -0.202891
C26   C     C_R   0.065747 0.649322 0.654238 -0.197602
C27   C     C_R   0.035423 0.574309 0.575876 0.145148
C28   C     C_R   0.891195 0.576279 0.574911 0.177174
C29   C     C_R   0.964127 0.427418 0.428151 -0.142344
C30   C     C_R   0.107439 0.427871 0.427860 -0.107685
C31   C     C_R   0.580438 0.498921 0.295471 0.899760
C32   C     C_R   0.788442 0.372555 0.011881 0.184223
C33   C     C_R   0.630675 0.480896 0.177604 -0.099259
C34   C     C_R   0.230817 0.530327 0.884820 -0.218226
C35   C     C_R   0.191628 0.543470 0.997238 -0.167962
C36   C     C_R   0.292806 0.516807 0.046467 -0.193064
H1    H     H_    0.838200 0.395854 0.159125 0.152959
H2    H     H_    0.989959 0.937563 0.600155 0.155423
H3    H     H_    0.998737 0.141968 0.688318 0.135492
H4    H     H_    0.230878 0.231229 0.664725 0.149778
H5    H     H_    0.939269 0.368140 0.369569 0.140179
H6    H     H_    0.680171 0.672981 0.651023 0.204212
H7    H     H_    0.737203 0.787660 0.787834 0.152056
H8    H     H_    0.984144 0.778525 0.791969 0.157996
H9    H     H_    0.790933 0.286064 0.812502 0.153455
H10   H     H_    0.439061 0.568814 0.172244 0.156467
H11   H     H_    0.154854 0.561444 0.846960 0.158397
H12   H     H_    0.256459 0.530318 0.133944 0.132391
H13   H     H_    0.084322 0.579288 0.045995 0.148134
H14   H     H_    0.607304 0.321396 0.736615 0.172112
N1    N     N_R   0.856860 0.501200 0.500990 -0.118754
N2    N     N_R   0.142450 0.501280 0.501020 -0.122306
O1    O     O_R   0.385310 0.683220 0.500000 -0.647366
O2    O     O_R   0.614640 0.683250 0.500010 -0.633347
O3    O     O_R   0.328400 0.499950 0.653610 -0.639872
O4    O     O_R   0.557730 0.499970 0.653620 -0.628011
O5    O     O_R   0.385360 0.316750 0.499990 -0.610469
O6    O     O_R   0.614690 0.316780 0.500000 -0.624236
O7    O     O_R   0.442270 0.500030 0.346380 -0.611246
O8    O     O_R   0.671600 0.500050 0.346390 -0.611795
Zn1   Zn    Zn3+2 0.346880 0.499980 0.499990 0.918694
Zn2   Zn    Zn3+2 0.653120 0.500020 0.500010 0.922842
H15   H     H_    0.208307 0.817239 0.502276 0.179193
H16   H     H_    0.726167 0.103821 0.457608 0.168456
H17   H     H_    0.172360 0.657707 0.654863 0.209404
H18   H     H_    0.190430 0.368885 0.368964 0.155205
C37   C     C_3   0.932726 0.305467 0.951619 -0.431396
C38   C     C_3   0.921427 0.163876 0.955762 -0.876899
H19   H     H_    0.886625 0.135025 0.041622 0.264040
H20   H     H_    0.843084 0.131517 0.918610 0.255216
H21   H     H_    0.028515 0.117938 0.910178 0.255031
H22   H     H_    0.976772 0.334572 0.865924 0.201174
H23   H     H_    0.013215 0.331812 0.989080 0.220454
H24   H     H_    0.723515 0.880748 0.445278 0.171187

loop_
_geom_bond_atom_site_label_1
_geom_bond_atom_site_label_2
_ccdc_geom_bond_type
O6    Zn2   S    
C23   O6    A    
C16   C21   A    
C6    H9    S    
C19   C20   A    
C4    C8    A    
C1    C18   S    
C37   H22   S    
C11   H15   S    
N2    Zn1   S    
C5    C6    A    
C28   N1    A    
C15   C16   A    
O8    Zn2   S    
C34   C35   A    
C31   O7    A    
C1    O1    A    
C9    C32   A    
C14   H3    S    
C38   H19   S    
O1    Zn1   S    
C35   C36   A    
C16   C17   A    
C35   H13   S    
C31   C33   S    
C37   H23   S    
C5    C32   A    
C22   C28   A    
C13   C14   A    
C9    C33   A    
N1    Zn2   S    
C25   H8    S    
O7    Zn1   S    
C37   C38   S    
C24   C25   A    
C18   C19   A    
O2    Zn2   S    
C25   C26   A    
C31   O8    A    
C20   H16   S    
C2    C4    A    
C1    O2    A    
C29   C30   A    
C9    H1    S    
C17   C18   A    
C26   C27   A    
C10   C34   A    
C12   O4    A    
C13   H2    S    
C30   H18   S    
C10   C12   S    
C32   C37   S    
C21   C23   S    
C22   C24   A    
C27   N2    A    
C29   N1    A    
C2    C36   A    
C23   O5    A    
C30   N2    A    
C11   C17   A    
C29   H5    S    
C26   H17   S    
C19   H24   S    
C7    H14   S    
C4    C5    A    
O5    Zn1   S    
C6    C7    A    
C3    C7    A    
C2    C3    A    
C3    C10   A    
C11   C13   A    
C22   H6    S    
C38   H21   S    
O3    Zn1   S    
C36   H12   S    
O4    Zn2   S    
C8    C33   A    
C8    H10   S    
C15   H4    S    
C12   O3    A    
C20   C21   A    
C38   H20   S    
C27   C28   A    
C24   H7    S    
C14   C15   A    
C34   H11   S    
