data_mof_unit_65075.cif
_audit_creation_date              2012-12-10T19:03:09-0500
_audit_creation_method            fapswitch 2.2
_symmetry_space_group_name_H-M    P1
_symmetry_Int_Tables_number       1
_space_group_crystal_system       triclinic
_cell_length_a                    30.26391
_cell_length_b                    30.263944
_cell_length_c                    38.72304
_cell_angle_alpha                 89.999989
_cell_angle_beta                  89.999981
_cell_angle_gamma                 90.0
_cell_volume                      35466.6366953

loop_
_atom_site_label
_atom_site_type_symbol
_atom_type_description
_atom_site_fract_x
_atom_site_fract_y
_atom_site_fract_z
_atom_type_partial_charge
C1    C     C_R   0.086164 0.500000 0.500000 0.897190
C2    C     C_R   0.500000 0.913836 0.500000 0.896694
C3    C     C_R   0.913836 0.500000 0.500000 0.897190
C4    C     C_R   0.500000 0.086164 0.500000 0.896693
C5    C     C_R   0.586164 0.000000 0.000000 0.897718
C6    C     C_R   0.000000 0.413836 1.000000 0.897221
C7    C     C_R   0.413836 0.000000 0.000000 0.897718
C8    C     C_R   0.000000 0.586164 1.000000 0.897220
C9    C     C_R   0.133952 0.500000 0.499999 -0.035918
C10   C     C_R   0.500000 0.866047 0.500000 -0.035953
C11   C     C_R   0.866047 0.500000 0.499999 -0.035918
C12   C     C_R   0.500000 0.133952 0.500000 -0.035953
C13   C     C_R   0.633953 0.000000 0.000000 -0.035869
C14   C     C_R   0.000000 0.366047 0.999999 -0.035905
C15   C     C_R   0.366047 0.000000 1.000000 -0.035869
C16   C     C_R   1.000000 0.633953 1.000000 -0.035905
C17   C     C_R   0.225467 0.500001 0.500000 0.104567
C18   C     C_R   0.500000 0.774533 0.500000 0.104654
C19   C     C_R   0.774533 0.499999 0.499999 0.104566
C20   C     C_R   0.500000 0.225467 0.500000 0.104654
C21   C     C_R   0.725467 0.000000 0.000000 0.104487
C22   C     C_R   0.000001 0.274533 1.000000 0.104574
C23   C     C_R   0.274533 0.000000 1.000000 0.104487
C24   C     C_R   0.999999 0.725467 1.000000 0.104575
C25   C     C_R   0.296350 0.470615 0.478259 0.118251
C26   C     C_R   0.470612 0.703649 0.478261 0.118247
C27   C     C_R   0.703650 0.529385 0.478259 0.118251
C28   C     C_R   0.529388 0.296351 0.478261 0.118248
C29   C     C_R   0.296351 0.529386 0.521741 0.118263
C30   C     C_R   0.470612 0.296351 0.521739 0.118257
C31   C     C_R   0.703649 0.470614 0.521741 0.118263
C32   C     C_R   0.529388 0.703649 0.521739 0.118257
C33   C     C_R   0.796350 0.970616 0.978258 0.118277
C34   C     C_R   0.970614 0.203649 0.978260 0.118270
C35   C     C_R   0.203649 0.029384 0.978258 0.118276
C36   C     C_R   0.029386 0.796351 0.978260 0.118270
C37   C     C_R   0.796350 0.029383 0.021742 0.118286
C38   C     C_R   0.970612 0.796351 0.021739 0.118283
C39   C     C_R   0.203649 0.970616 0.021742 0.118286
C40   C     C_R   0.029387 0.203649 0.021739 0.118283
C41   C     C_R   0.342332 0.470401 0.478332 0.081166
C42   C     C_R   0.470399 0.657668 0.478335 0.081155
C43   C     C_R   0.657668 0.529598 0.478332 0.081166
C44   C     C_R   0.529601 0.342332 0.478335 0.081154
C45   C     C_R   0.342332 0.529599 0.521667 0.081169
C46   C     C_R   0.470399 0.342332 0.521665 0.081137
C47   C     C_R   0.657668 0.470401 0.521667 0.081169
C48   C     C_R   0.529601 0.657668 0.521665 0.081136
C49   C     C_R   0.842332 0.970402 0.978332 0.081202
C50   C     C_R   0.970400 0.157668 0.978334 0.081170
C51   C     C_R   0.157668 0.029598 0.978332 0.081201
C52   C     C_R   0.029600 0.842332 0.978334 0.081170
C53   C     C_R   0.842332 0.029597 0.021669 0.081184
C54   C     C_R   0.970399 0.842332 0.021666 0.081173
C55   C     C_R   0.157668 0.970402 0.021668 0.081184
C56   C     C_R   0.029601 0.157667 0.021666 0.081172
C57   C     C_R   0.365525 0.500000 0.500000 -0.213824
C58   C     C_R   0.500000 0.634475 0.500000 -0.213817
C59   C     C_R   0.634475 0.500000 0.500000 -0.213824
C60   C     C_R   0.500000 0.365525 0.500000 -0.213817
C61   C     C_R   0.865525 1.000000 0.000000 -0.213816
C62   C     C_R   0.000000 0.134475 1.000000 -0.213808
C63   C     C_R   0.134475 1.000000 1.000000 -0.213816
C64   C     C_R   1.000000 0.865525 1.000000 -0.213808
C65   C     C_R   0.273430 0.500001 0.499999 -0.092572
C66   C     C_R   0.500000 0.726569 0.500000 -0.092589
C67   C     C_R   0.726569 0.499999 0.499999 -0.092572
C68   C     C_R   0.500000 0.273431 0.500000 -0.092589
C69   C     C_R   0.773431 1.000000 0.000000 -0.092562
C70   C     C_R   0.000001 0.226569 1.000000 -0.092579
C71   C     C_R   0.226569 1.000000 1.000000 -0.092562
C72   C     C_R   0.999999 0.773431 1.000000 -0.092579
C73   C     C_R   0.500000 0.586415 0.500000 0.872960
C74   C     C_R   0.586415 0.500000 0.500000 0.872958
C75   C     C_R   0.500000 0.413585 0.500000 0.872960
C76   C     C_R   0.413585 0.500000 0.500000 0.872959
C77   C     C_R   0.000000 0.086415 1.000000 0.872898
C78   C     C_R   0.086415 0.000000 1.000000 0.872895
C79   C     C_R   1.000000 0.913585 1.000000 0.872899
C80   C     C_R   0.913585 0.000000 0.000000 0.872895
C81   C     C_R   0.000000 0.500000 0.432806 1.006167
C82   C     C_R   0.500000 0.000000 0.432806 1.006149
C83   C     C_R   0.000000 0.500000 0.567192 1.007379
C84   C     C_R   0.500000 0.000000 0.567194 1.006148
C85   C     C_R   0.500000 0.000000 0.932807 1.007436
C86   C     C_R   0.000000 0.500000 0.932805 1.006205
C87   C     C_R   0.500000 0.000000 0.067192 1.007436
C88   C     C_R   1.000000 0.500000 0.067192 1.007418
C89   C     C_R   0.031551 0.525220 0.377024 0.294875
C90   C     C_R   0.525220 0.968449 0.377024 0.294886
C91   C     C_R   0.968449 0.474780 0.377024 0.294875
C92   C     C_R   0.474780 0.031551 0.377024 0.294886
C93   C     C_R   0.031759 0.475113 0.622957 0.292456
C94   C     C_R   0.525220 0.031551 0.622976 0.294881
C95   C     C_R   0.968241 0.524887 0.622957 0.292456
C96   C     C_R   0.474779 0.968449 0.622976 0.294882
C97   C     C_R   0.531760 0.024887 0.877043 0.292433
C98   C     C_R   0.025220 0.468449 0.877023 0.294858
C99   C     C_R   0.468240 0.975113 0.877043 0.292434
C100  C     C_R   0.974780 0.531551 0.877023 0.294858
C101  C     C_R   0.531760 0.975113 0.122957 0.292428
C102  C     C_R   0.024887 0.531760 0.122957 0.292438
C103  C     C_R   0.468240 0.024887 0.122957 0.292428
C104  C     C_R   0.975113 0.468240 0.122957 0.292439
C105  C     C_R   0.031396 0.525372 0.340803 0.018482
C106  C     C_R   0.525372 0.968604 0.340803 0.018483
C107  C     C_R   0.968604 0.474628 0.340803 0.018482
C108  C     C_R   0.474628 0.031396 0.340803 0.018482
C109  C     C_R   0.031550 0.474777 0.659181 0.019780
C110  C     C_R   0.525372 0.031396 0.659197 0.018477
C111  C     C_R   0.968450 0.525223 0.659181 0.019781
C112  C     C_R   0.474628 0.968604 0.659197 0.018477
C113  C     C_R   0.531550 0.025223 0.840819 0.019781
C114  C     C_R   0.025372 0.468604 0.840803 0.018476
C115  C     C_R   0.468450 0.974777 0.840819 0.019781
C116  C     C_R   0.974628 0.531396 0.840803 0.018476
C117  C     C_R   0.531550 0.974777 0.159180 0.019778
C118  C     C_R   0.025223 0.531550 0.159181 0.019779
C119  C     C_R   0.468450 0.025223 0.159181 0.019778
C120  C     C_R   0.974777 0.468450 0.159181 0.019779
C121  C     C_R   1.000000 0.500000 0.322819 -0.028190
C122  C     C_R   0.500000 1.000000 0.322819 -0.028186
C123  C     C_R   0.000000 0.500000 0.677341 -0.030492
C124  C     C_R   0.500000 0.000000 0.677181 -0.028191
C125  C     C_R   0.500000 0.000000 0.822659 -0.030500
C126  C     C_R   0.000000 0.500000 0.822819 -0.028200
C127  C     C_R   0.500000 1.000000 0.177341 -0.030499
C128  C     C_R   1.000000 0.500000 0.177341 -0.030496
C129  C     C_R   1.000000 0.500000 0.395098 -0.244720
C130  C     C_R   0.500000 0.000000 0.395098 -0.244731
C131  C     C_R   0.000000 0.500000 0.604900 -0.242967
C132  C     C_R   0.500000 0.000000 0.604902 -0.244731
C133  C     C_R   0.500000 0.000000 0.895100 -0.242962
C134  C     C_R   0.000000 0.500000 0.895098 -0.244725
C135  C     C_R   0.500000 1.000000 0.104900 -0.242964
C136  C     C_R   1.000000 0.500000 0.104900 -0.242973
C137  C     C_R   1.000000 0.500000 0.215317 0.369989
C138  C     C_R   0.500000 1.000000 0.215317 0.369986
C139  C     C_R   0.000000 0.500000 0.785067 0.374384
C140  C     C_R   0.500000 0.000000 0.784683 0.370007
C141  C     C_R   0.500000 0.000000 0.714933 0.374381
C142  C     C_R   0.000000 0.500000 0.715317 0.370021
C143  C     C_R   0.500000 1.000000 0.285067 0.374364
C144  C     C_R   1.000000 0.500000 0.285067 0.374365
C145  C     C_R   0.202695 0.465725 0.516371 -0.177537
C146  C     C_R   0.465727 0.797305 0.516375 -0.177690
C147  C     C_R   0.797305 0.534275 0.516371 -0.177537
C148  C     C_R   0.534272 0.202695 0.516375 -0.177690
C149  C     C_R   0.202695 0.534276 0.483628 -0.177693
C150  C     C_R   0.465728 0.202695 0.483625 -0.177712
C151  C     C_R   0.797305 0.465724 0.483628 -0.177693
C152  C     C_R   0.534273 0.797305 0.483625 -0.177712
C153  C     C_R   0.702695 0.965722 0.016367 -0.177517
C154  C     C_R   0.965726 0.297305 0.016371 -0.177536
C155  C     C_R   0.297305 0.034278 0.016368 -0.177517
C156  C     C_R   0.034274 0.702695 0.016371 -0.177536
C157  C     C_R   0.702695 0.034278 0.983633 -0.177539
C158  C     C_R   0.965725 0.702695 0.983627 -0.177692
C159  C     C_R   0.297305 0.965722 0.983632 -0.177539
C160  C     C_R   0.034275 0.297305 0.983627 -0.177692
C161  C     C_R   0.156893 0.465449 0.516053 -0.149123
C162  C     C_R   0.465452 0.843108 0.516057 -0.149681
C163  C     C_R   0.843107 0.534551 0.516052 -0.149123
C164  C     C_R   0.534547 0.156892 0.516057 -0.149681
C165  C     C_R   0.156892 0.534551 0.483946 -0.149768
C166  C     C_R   0.465452 0.156892 0.483943 -0.149683
C167  C     C_R   0.843108 0.465449 0.483946 -0.149768
C168  C     C_R   0.534548 0.843108 0.483943 -0.149683
C169  C     C_R   0.656893 0.965446 0.016049 -0.149237
C170  C     C_R   0.965450 0.343107 0.016053 -0.149154
C171  C     C_R   0.343107 0.034553 0.016049 -0.149238
C172  C     C_R   0.034550 0.656893 0.016053 -0.149154
C173  C     C_R   0.656893 0.034554 0.983951 -0.149240
C174  C     C_R   0.965450 0.656892 0.983945 -0.149799
C175  C     C_R   0.343107 0.965447 0.983950 -0.149240
C176  C     C_R   0.034550 0.343108 0.983945 -0.149799
H1    H     H_    0.220435 0.439318 0.529205 0.148871
H2    H     H_    0.439322 0.779565 0.529212 0.148849
H3    H     H_    0.779565 0.560682 0.529205 0.148871
H4    H     H_    0.560677 0.220435 0.529212 0.148850
H5    H     H_    0.220434 0.560684 0.470794 0.148839
H6    H     H_    0.439323 0.220435 0.470788 0.148834
H7    H     H_    0.779566 0.439317 0.470794 0.148839
H8    H     H_    0.560678 0.779565 0.470788 0.148834
H9    H     H_    0.720435 0.939312 0.029198 0.148871
H10   H     H_    0.939319 0.279565 0.029206 0.148867
H11   H     H_    0.279565 0.060688 0.029199 0.148871
H12   H     H_    0.060681 0.720435 0.029206 0.148867
H13   H     H_    0.720435 0.060688 0.970801 0.148856
H14   H     H_    0.939317 0.720434 0.970793 0.148834
H15   H     H_    0.279565 0.939312 0.970801 0.148856
H16   H     H_    0.060682 0.279566 0.970793 0.148834
H17   H     H_    0.139418 0.438757 0.528744 0.191281
H18   H     H_    0.438763 0.860583 0.528753 0.191238
H19   H     H_    0.860582 0.561243 0.528744 0.191280
H20   H     H_    0.561237 0.139417 0.528753 0.191238
H21   H     H_    0.139417 0.561242 0.471253 0.191223
H22   H     H_    0.438763 0.139417 0.471247 0.191237
H23   H     H_    0.860583 0.438758 0.471253 0.191223
H24   H     H_    0.561237 0.860583 0.471247 0.191237
H25   H     H_    0.639417 0.938752 0.028738 0.191248
H26   H     H_    0.938758 0.360582 0.028746 0.191264
H27   H     H_    0.360582 0.061248 0.028739 0.191249
H28   H     H_    0.061242 0.639418 0.028746 0.191263
H29   H     H_    0.639417 0.061248 0.971262 0.191247
H30   H     H_    0.938759 0.639417 0.971252 0.191206
H31   H     H_    0.360582 0.938752 0.971261 0.191248
H32   H     H_    0.061241 0.360583 0.971252 0.191206
N1    N     N_R   0.000780 0.461363 0.267399 -0.148881
N2    N     N_R   0.461363 0.999220 0.267399 -0.148879
N3    N     N_R   0.999220 0.538637 0.267399 -0.148881
N4    N     N_R   0.538637 0.000780 0.267399 -0.148879
N5    N     N_R   0.961381 0.499112 0.733087 -0.147241
N6    N     N_R   0.461363 0.000780 0.732601 -0.148890
N7    N     N_R   0.038618 0.500888 0.733087 -0.147242
N8    N     N_R   0.538637 0.999220 0.732601 -0.148890
N9    N     N_R   0.461381 0.000888 0.766913 -0.147241
N10   N     N_R   0.961363 0.499221 0.767399 -0.148899
N11   N     N_R   0.538618 0.999112 0.766912 -0.147241
N12   N     N_R   0.038637 0.500779 0.767399 -0.148899
N13   N     N_R   0.461381 0.999112 0.233087 -0.147233
N14   N     N_R   0.000888 0.461382 0.233087 -0.147232
N15   N     N_R   0.538618 0.000888 0.233087 -0.147233
N16   N     N_R   0.999112 0.538618 0.233087 -0.147232
O1    O     O_R   0.065410 0.463110 0.500070 -0.614540
O2    O     O_R   0.463110 0.934590 0.500070 -0.614457
O3    O     O_R   0.934590 0.536890 0.500070 -0.614541
O4    O     O_R   0.536890 0.065410 0.500070 -0.614457
O5    O     O_R   0.065410 0.536890 0.499930 -0.614456
O6    O     O_R   0.463110 0.065410 0.499930 -0.614458
O7    O     O_R   0.934590 0.463110 0.499930 -0.614456
O8    O     O_R   0.536890 0.934590 0.499930 -0.614459
O9    O     O_R   0.565410 0.963110 0.000070 -0.614555
O10   O     O_R   0.963110 0.434590 0.000070 -0.614556
O11   O     O_R   0.434590 0.036890 0.000070 -0.614555
O12   O     O_R   0.036890 0.565410 0.000070 -0.614557
O13   O     O_R   0.565410 0.036890 0.999930 -0.614557
O14   O     O_R   0.963110 0.565410 0.999930 -0.614472
O15   O     O_R   0.434590 0.963110 0.999930 -0.614556
O16   O     O_R   0.036890 0.434590 0.999930 -0.614472
O17   O     O_R   0.999940 0.463110 0.449140 -0.586003
O18   O     O_R   0.463110 0.000060 0.449140 -0.585976
O19   O     O_R   0.000060 0.536890 0.449140 -0.586004
O20   O     O_R   0.536890 0.999940 0.449140 -0.585977
O21   O     O_R   0.999940 0.536890 0.550860 -0.586323
O22   O     O_R   0.463110 0.999940 0.550860 -0.585982
O23   O     O_R   0.000060 0.463110 0.550860 -0.586322
O24   O     O_R   0.536890 0.000060 0.550860 -0.585982
O25   O     O_R   0.499940 0.963110 0.949140 -0.586361
O26   O     O_R   0.963110 0.500060 0.949140 -0.586020
O27   O     O_R   0.500060 0.036890 0.949140 -0.586361
O28   O     O_R   0.036890 0.499940 0.949140 -0.586021
O29   O     O_R   0.499940 0.036890 0.050860 -0.586367
O30   O     O_R   0.963110 0.499940 0.050860 -0.586340
O31   O     O_R   0.500060 0.963110 0.050860 -0.586367
O32   O     O_R   0.036890 0.500060 0.050860 -0.586341
O33   O     O_R   0.499920 0.565550 0.471320 -0.625800
O34   O     O_R   0.565550 0.500080 0.471320 -0.625804
O35   O     O_R   0.500080 0.434450 0.471320 -0.625800
O36   O     O_R   0.434450 0.499920 0.471320 -0.625804
O37   O     O_R   0.499920 0.434450 0.528680 -0.625760
O38   O     O_R   0.565550 0.499920 0.528680 -0.625752
O39   O     O_R   0.500080 0.565550 0.528680 -0.625760
O40   O     O_R   0.434450 0.500080 0.528680 -0.625752
O41   O     O_R   0.999920 0.065550 0.971320 -0.625780
O42   O     O_R   0.065550 0.000080 0.971320 -0.625772
O43   O     O_R   0.000080 0.934450 0.971320 -0.625780
O44   O     O_R   0.934450 0.999920 0.971320 -0.625773
O45   O     O_R   0.999920 0.934450 0.028680 -0.625729
O46   O     O_R   0.065550 0.999920 0.028680 -0.625733
O47   O     O_R   0.000080 0.065550 0.028680 -0.625729
O48   O     O_R   0.934450 0.000080 0.028680 -0.625733
Zn1   Zn    Zn3+2 0.000000 0.450710 0.500000 1.060259
Zn2   Zn    Zn3+2 0.450710 0.000000 0.500000 1.060673
Zn3   Zn    Zn3+2 0.000000 0.549290 0.500000 1.060259
Zn4   Zn    Zn3+2 0.549290 0.000000 0.500000 1.060672
Zn5   Zn    Zn3+2 0.500000 0.950710 0.000000 1.059702
Zn6   Zn    Zn3+2 0.950710 0.500000 0.000000 1.060116
Zn7   Zn    Zn3+2 0.500000 0.049290 0.000000 1.059701
Zn8   Zn    Zn3+2 0.049290 0.500000 0.000000 1.060115
Zn9   Zn    Zn3+2 0.500000 0.500000 0.461670 0.940469
Zn10  Zn    Zn3+2 0.500000 0.500000 0.538330 0.940724
Zn11  Zn    Zn3+2 0.000000 0.000000 0.961670 0.940728
Zn12  Zn    Zn3+2 0.000000 0.000000 0.038330 0.940983
Cl1   Cl    Cl    0.072902 0.555143 0.399393 -0.641807
Cl2   Cl    Cl    0.555143 0.927098 0.399393 -0.641764
Cl3   Cl    Cl    0.927098 0.444857 0.399393 -0.641807
Cl4   Cl    Cl    0.444857 0.072902 0.399393 -0.641765
Cl5   Cl    Cl    0.073162 0.445322 0.600517 -0.642769
Cl6   Cl    Cl    0.555143 0.072902 0.600607 -0.641769
Cl7   Cl    Cl    0.926838 0.554678 0.600518 -0.642769
Cl8   Cl    Cl    0.444857 0.927098 0.600607 -0.641769
Cl9   Cl    Cl    0.573162 0.054678 0.899482 -0.642869
Cl10  Cl    Cl    0.055143 0.427098 0.899393 -0.641872
Cl11  Cl    Cl    0.426838 0.945322 0.899482 -0.642870
Cl12  Cl    Cl    0.944857 0.572902 0.899393 -0.641871
Cl13  Cl    Cl    0.573162 0.945322 0.100517 -0.642874
Cl14  Cl    Cl    0.054678 0.573162 0.100517 -0.642832
Cl15  Cl    Cl    0.426838 0.054678 0.100517 -0.642874
Cl16  Cl    Cl    0.945322 0.426838 0.100517 -0.642833
N17   N     N_3   0.063833 0.550176 0.321951 -0.420920
H33   H     H_    0.095225 0.538858 0.328931 0.232416
H34   H     H_    0.061133 0.583417 0.328991 0.239216
N18   N     N_3   0.550177 0.936167 0.321951 -0.420920
H35   H     H_    0.538859 0.904775 0.328931 0.232417
H36   H     H_    0.583418 0.938867 0.328991 0.239220
N19   N     N_3   0.936167 0.449823 0.321951 -0.420920
H37   H     H_    0.904775 0.461142 0.328931 0.232416
H38   H     H_    0.938867 0.416583 0.328991 0.239217
N20   N     N_3   0.449823 0.063833 0.321951 -0.420920
H39   H     H_    0.461141 0.095225 0.328931 0.232416
H40   H     H_    0.416582 0.061133 0.328991 0.239221
N21   N     N_3   0.062708 0.448065 0.677760 -0.417186
H41   H     H_    0.094626 0.458348 0.671274 0.238591
H42   H     H_    0.058787 0.415181 0.670073 0.233518
N22   N     N_3   0.550177 0.063833 0.678049 -0.420917
H43   H     H_    0.538859 0.095225 0.671069 0.232435
H44   H     H_    0.583418 0.061133 0.671009 0.239204
N23   N     N_3   0.937292 0.551935 0.677760 -0.417185
H45   H     H_    0.905374 0.541652 0.671274 0.238591
H46   H     H_    0.941212 0.584819 0.670073 0.233518
N24   N     N_3   0.449823 0.936167 0.678049 -0.420916
H47   H     H_    0.461141 0.904775 0.671069 0.232435
H48   H     H_    0.416582 0.938867 0.671009 0.239204
N25   N     N_3   0.562709 0.051934 0.822239 -0.417191
H49   H     H_    0.594626 0.041651 0.828726 0.238591
H50   H     H_    0.558788 0.084818 0.829927 0.233496
N26   N     N_3   0.050176 0.436167 0.821951 -0.420920
H51   H     H_    0.038858 0.404774 0.828931 0.232436
H52   H     H_    0.083417 0.438866 0.828991 0.239182
N27   N     N_3   0.437291 0.948066 0.822239 -0.417191
H53   H     H_    0.405373 0.958349 0.828726 0.238592
H54   H     H_    0.441212 0.915181 0.829927 0.233496
N28   N     N_3   0.949824 0.563833 0.821951 -0.420921
H55   H     H_    0.961142 0.595225 0.828931 0.232436
H56   H     H_    0.916583 0.561134 0.828991 0.239183
N29   N     N_3   0.562709 0.948066 0.177760 -0.417190
H57   H     H_    0.594626 0.958349 0.171274 0.238609
H58   H     H_    0.558788 0.915182 0.170072 0.233478
N30   N     N_3   0.051934 0.562709 0.177760 -0.417190
H59   H     H_    0.041651 0.594626 0.171274 0.238610
H60   H     H_    0.084818 0.558788 0.170073 0.233482
N31   N     N_3   0.437291 0.051934 0.177760 -0.417190
H61   H     H_    0.405373 0.041651 0.171274 0.238609
H62   H     H_    0.441212 0.084818 0.170073 0.233477
N32   N     N_3   0.948066 0.437291 0.177760 -0.417189
H63   H     H_    0.958349 0.405374 0.171274 0.238610
H64   H     H_    0.915181 0.441212 0.170073 0.233482
N33   N     N_3   0.273404 0.441095 0.455433 -0.417311
H65   H     H_    0.252467 0.459653 0.439592 0.201566
H66   H     H_    0.254230 0.419449 0.470163 0.192891
N34   N     N_3   0.441089 0.726596 0.455438 -0.417298
H67   H     H_    0.459645 0.747533 0.439595 0.201581
H68   H     H_    0.419445 0.745770 0.470170 0.192928
N35   N     N_3   0.726596 0.558905 0.455433 -0.417311
H69   H     H_    0.747533 0.540347 0.439592 0.201566
H70   H     H_    0.745770 0.580551 0.470163 0.192891
N36   N     N_3   0.558911 0.273404 0.455438 -0.417298
H71   H     H_    0.540355 0.252467 0.439596 0.201581
H72   H     H_    0.580556 0.254230 0.470170 0.192928
N37   N     N_3   0.273404 0.558907 0.544566 -0.417125
H73   H     H_    0.252466 0.540349 0.560407 0.201888
H74   H     H_    0.254231 0.580553 0.529835 0.192916
N38   N     N_3   0.441089 0.273404 0.544562 -0.417260
H75   H     H_    0.459645 0.252467 0.560404 0.201605
H76   H     H_    0.419444 0.254230 0.529830 0.192916
N39   N     N_3   0.726596 0.441093 0.544566 -0.417125
H77   H     H_    0.747533 0.459651 0.560407 0.201888
H78   H     H_    0.745769 0.419447 0.529835 0.192916
N40   N     N_3   0.558911 0.726596 0.544562 -0.417260
H79   H     H_    0.540355 0.747533 0.560404 0.201606
H80   H     H_    0.580555 0.745770 0.529830 0.192916
N41   N     N_3   0.773404 0.941098 0.955430 -0.417152
H81   H     H_    0.752466 0.959658 0.939591 0.201868
H82   H     H_    0.754231 0.919450 0.970159 0.192863
N42   N     N_3   0.941092 0.226596 0.955436 -0.417287
H83   H     H_    0.959649 0.247533 0.939594 0.201585
H84   H     H_    0.919446 0.245769 0.970167 0.192863
N43   N     N_3   0.226596 0.058902 0.955431 -0.417153
H85   H     H_    0.247533 0.040343 0.939591 0.201868
H86   H     H_    0.245769 0.080550 0.970160 0.192863
N44   N     N_3   0.058908 0.773404 0.955436 -0.417287
H87   H     H_    0.040351 0.752467 0.939594 0.201585
H88   H     H_    0.080554 0.754230 0.970167 0.192863
N45   N     N_3   0.773404 0.058902 0.044569 -0.417115
H89   H     H_    0.752466 0.040342 0.060409 0.201892
H90   H     H_    0.754231 0.080550 0.029841 0.192851
N46   N     N_3   0.941090 0.773404 0.044563 -0.417101
H91   H     H_    0.959647 0.752467 0.060405 0.201907
H92   H     H_    0.919445 0.754231 0.029832 0.192888
N47   N     N_3   0.226596 0.941098 0.044569 -0.417115
H93   H     H_    0.247533 0.959657 0.060409 0.201892
H94   H     H_    0.245769 0.919450 0.029840 0.192851
N48   N     N_3   0.058910 0.226596 0.044563 -0.417101
H95   H     H_    0.040353 0.247533 0.060405 0.201907
H96   H     H_    0.080555 0.245769 0.029832 0.192887
N49   N     N_3   0.364725 0.438888 0.456826 -0.416005
H97   H     H_    0.381962 0.455749 0.437530 0.217076
H98   H     H_    0.387009 0.420857 0.471898 0.175765
N50   N     N_3   0.438883 0.635274 0.456830 -0.416003
H99   H     H_    0.455742 0.618037 0.437533 0.217076
H100  H     H_    0.420854 0.612990 0.471903 0.175760
N51   N     N_3   0.635275 0.561112 0.456826 -0.416005
H101  H     H_    0.618038 0.544251 0.437529 0.217075
H102  H     H_    0.612990 0.579143 0.471898 0.175765
N52   N     N_3   0.561117 0.364726 0.456830 -0.416004
H103  H     H_    0.544258 0.381963 0.437533 0.217076
H104  H     H_    0.579146 0.387010 0.471903 0.175760
N53   N     N_3   0.364726 0.561113 0.543174 -0.415906
H105  H     H_    0.381962 0.544252 0.562470 0.217179
H106  H     H_    0.387010 0.579144 0.528102 0.175742
N54   N     N_3   0.438883 0.364726 0.543170 -0.415943
H107  H     H_    0.455742 0.381963 0.562467 0.217139
H108  H     H_    0.420853 0.387010 0.528097 0.175763
N55   N     N_3   0.635274 0.438887 0.543174 -0.415905
H109  H     H_    0.618038 0.455748 0.562470 0.217179
H110  H     H_    0.612990 0.420857 0.528102 0.175742
N56   N     N_3   0.561117 0.635274 0.543170 -0.415943
H111  H     H_    0.544258 0.618037 0.562467 0.217139
H112  H     H_    0.579146 0.612990 0.528097 0.175764
N57   N     N_3   0.864725 0.938890 0.956824 -0.415913
H113  H     H_    0.881962 0.955752 0.937528 0.217180
H114  H     H_    0.887010 0.920858 0.971895 0.175747
N58   N     N_3   0.938884 0.135274 0.956829 -0.415951
H115  H     H_    0.955744 0.118037 0.937532 0.217139
H116  H     H_    0.920854 0.112991 0.971902 0.175767
N59   N     N_3   0.135274 0.061110 0.956824 -0.415913
H117  H     H_    0.118038 0.044248 0.937528 0.217180
H118  H     H_    0.112990 0.079142 0.971895 0.175746
N60   N     N_3   0.061115 0.864726 0.956829 -0.415951
H119  H     H_    0.044256 0.881963 0.937532 0.217139
H120  H     H_    0.079145 0.887009 0.971902 0.175767
N61   N     N_3   0.864726 0.061110 0.043176 -0.415852
H121  H     H_    0.881962 0.044248 0.062472 0.217243
H122  H     H_    0.887010 0.079142 0.028105 0.175750
N62   N     N_3   0.938884 0.864726 0.043171 -0.415851
H123  H     H_    0.955744 0.881963 0.062468 0.217243
H124  H     H_    0.920854 0.887010 0.028098 0.175743
N63   N     N_3   0.135274 0.938890 0.043176 -0.415852
H125  H     H_    0.118038 0.955751 0.062472 0.217243
H126  H     H_    0.112990 0.920858 0.028105 0.175750
N64   N     N_3   0.061116 0.135274 0.043171 -0.415851
H127  H     H_    0.044256 0.118037 0.062468 0.217243
H128  H     H_    0.079146 0.112990 0.028098 0.175743

loop_
_geom_bond_atom_site_label_1
_geom_bond_atom_site_label_2
_ccdc_geom_bond_type
N24   H48   S    
N59   H117  S    
C89   Cl1   S    
C23   C155  A    
C94   Cl6   S    
C62   C77   S    
C91   Cl3   S    
N8    N11   A    
C175  H31   S    
C14   C170  A    
C42   C58   A    
C117  N29   S    
N29   H57   S    
N17   H33   S    
C31   C67   A    
C76   O36   A    
C45   C57   A    
C155  C171  A    
C78   O42   A    
C57   C76   S    
C32   C66   A    
N51   H102  S    
C142  N7    A    
C112  C124  A    
C37   C69   A    
N49   H98   S    
C42   N50   S    
C73   O33   A    
C98   C114  A    
C45   N53   S    
C61   C80   S    
C89   C129  A    
C154  C170  A    
O3    Zn3   S    
C139  N12   A    
C86   C134  S    
N42   H84   S    
C4    C12   S    
C46   N54   S    
C5    C13   S    
C33   C69   A    
C74   O34   A    
C35   C71   A    
C8    C16   S    
O31   Zn5   S    
C11   C167  A    
N1    N14   A    
C18   C152  A    
C144  N1    A    
N20   H40   S    
C91   C107  A    
O35   Zn9   S    
N30   H59   S    
C25   C41   A    
C31   N39   S    
C137  N14   A    
C28   C44   A    
C94   C132  A    
C29   C45   A    
N22   H43   S    
C80   O48   A    
C26   C66   A    
C13   C173  A    
C166  H22   S    
C101  Cl13  S    
N37   H74   S    
C81   C129  S    
N35   H69   S    
N34   H67   S    
C114  N26   S    
N26   H52   S    
C35   C51   A    
C64   C79   S    
N52   H104  S    
C156  C172  A    
N62   H123  S    
C2    O2    A    
C46   C60   A    
O1    Zn1   S    
C20   C68   S    
C96   Cl8   S    
C142  N5    A    
C28   C68   A    
O22   Zn2   S    
C111  N23   S    
C91   C129  A    
C8    O14   A    
O11   Zn7   S    
C176  H32   S    
C155  H11   S    
N7    N12   A    
C139  N10   A    
C112  N24   S    
C145  C161  A    
O4    Zn4   S    
C151  C167  A    
N54   H108  S    
O25   Zn5   S    
O34   Zn9   S    
N60   H120  S    
C170  H26   S    
C3    C11   S    
N48   H95   S    
C47   C59   A    
C147  H3    S    
C10   C168  A    
C83   O23   A    
C174  H30   S    
C21   C153  A    
O46   Zn12  S    
N53   H105  S    
C144  N3    A    
C24   C156  A    
N45   H90   S    
O48   Zn12  S    
N23   H46   S    
C49   N57   S    
N57   H113  S    
O10   Zn6   S    
C97   C133  A    
N40   H79   S    
C157  C173  A    
C154  H10   S    
C137  N16   A    
C82   O18   A    
C79   O45   A    
C40   C70   A    
N54   H107  S    
O13   Zn7   S    
C56   N64   S    
N63   H126  S    
C114  C126  A    
N21   H42   S    
O17   Zn1   S    
C150  C166  A    
N38   H75   S    
C146  H2    S    
C84   O22   A    
N25   H50   S    
C106  N18   S    
C30   N38   S    
C53   C61   A    
C92   C108  A    
N38   H76   S    
N46   H91   S    
C55   C63   A    
C90   Cl2   S    
C19   C151  A    
C20   C148  A    
C95   Cl7   S    
O23   Zn1   S    
C36   C52   A    
C2    O8    A    
C37   C53   A    
C13   C169  A    
C6    O10   A    
O33   Zn9   S    
C121  C144  S    
C106  C122  A    
C122  C143  S    
C100  C134  A    
N56   H112  S    
C101  C135  A    
C125  C140  S    
C38   C72   A    
C126  C139  S    
C43   N51   S    
O44   Zn11  S    
C82   O20   A    
C148  C164  A    
C28   N36   S    
C149  C165  A    
C118  N30   S    
C3    O7    A    
C55   N63   S    
N28   H55   S    
C109  C123  A    
C40   C56   A    
C84   C132  S    
C21   C69   S    
N36   H72   S    
C25   N33   S    
C6    C14   S    
N32   H64   S    
C108  N20   S    
C104  Cl16  S    
C83   O21   A    
C11   C163  A    
C161  H17   S    
C9    C161  A    
C27   N35   S    
C29   C65   A    
N58   H115  S    
N35   H70   S    
C75   O35   A    
C85   O27   A    
N31   H62   S    
C124  C141  S    
O19   Zn3   S    
C24   C72   S    
C16   C174  A    
N47   H94   S    
C39   C71   A    
C104  C136  A    
C80   O44   A    
C30   C46   A    
N50   H99   S    
O14   Zn6   S    
C158  C174  A    
C141  N6    A    
C102  Cl14  S    
N5    N10   A    
C164  H20   S    
C151  H7    S    
C143  N4    A    
C18   C66   S    
C84   O24   A    
C83   C131  S    
C147  C163  A    
N49   H97   S    
C54   C64   A    
C7    C15   S    
C20   C150  A    
C34   N42   S    
O27   Zn7   S    
C27   C67   A    
C140  N9    A    
C159  C175  A    
C23   C71   S    
C10   C162  A    
C89   C105  A    
O20   Zn4   S    
C167  H23   S    
N64   H127  S    
N64   H128  S    
C22   C70   S    
C44   N52   S    
C36   C72   A    
C93   C109  A    
C63   C78   S    
C115  N27   S    
N17   H34   S    
C149  H5    S    
C41   N49   S    
N44   H87   S    
O40   Zn10  S    
O8    Zn4   S    
C100  C116  A    
C100  Cl12  S    
C75   O37   A    
O36   Zn9   S    
N43   H85   S    
C150  H6    S    
C103  Cl15  S    
C146  C162  A    
C26   C42   A    
N33   H65   S    
O39   Zn10  S    
C5    O13   A    
O41   Zn11  S    
C97   Cl9   S    
O26   Zn6   S    
N30   H60   S    
C99   Cl11  S    
N41   H82   S    
C99   C115  A    
C33   C49   A    
N22   H44   S    
C81   O17   A    
C172  H28   S    
C14   C176  A    
O29   Zn7   S    
C152  C168  A    
C39   C55   A    
N51   H101  S    
N62   H124  S    
N61   H122  S    
C53   N61   S    
O16   Zn8   S    
C19   C67   S    
C127  C138  S    
C152  H8    S    
C34   C70   A    
C92   Cl4   S    
C87   O31   A    
N24   H47   S    
C148  H4    S    
C31   C47   A    
O6    Zn2   S    
C95   C131  A    
C32   C48   A    
C141  N8    A    
N29   H58   S    
C54   N62   S    
C143  N2    A    
C156  H12   S    
C86   O28   A    
C7    O11   A    
C49   C61   A    
C111  C123  A    
N19   H37   S    
N34   H68   S    
C159  H15   S    
C51   C63   A    
C88   C136  S    
C52   C64   A    
N26   H51   S    
C88   O30   A    
C107  N19   S    
C94   C110  A    
C19   C147  A    
C17   C145  A    
N63   H125  S    
C87   C135  S    
C12   C164  A    
N59   H118  S    
C140  N11   A    
C38   C54   A    
C163  H19   S    
C1    C9    S    
N39   H78   S    
C117  C127  A    
C59   C74   S    
C90   C106  A    
N48   H96   S    
C8    O12   A    
C48   N56   S    
C107  C121  A    
C3    O3    A    
C120  N32   S    
N45   H89   S    
C1    O1    A    
N20   H39   S    
O5    Zn3   S    
C168  H24   S    
C109  N21   S    
C116  N28   S    
C40   N48   S    
N40   H80   S    
C120  C128  A    
C48   C58   A    
C60   C75   S    
C93   Cl5   S    
C101  C117  A    
C81   O19   A    
C158  H14   S    
O28   Zn8   S    
C41   C57   A    
C12   C166  A    
O30   Zn6   S    
N21   H41   S    
O38   Zn10  S    
C138  N15   A    
C44   C60   A    
N3    N16   A    
O15   Zn5   S    
C123  C142  S    
C77   O41   A    
C24   C158  A    
C78   O46   A    
C171  H27   S    
N25   H49   S    
C102  C136  A    
C169  H25   S    
N23   H45   S    
C90   C130  A    
C27   C43   A    
C87   O29   A    
N46   H92   S    
C105  N17   S    
C153  C169  A    
O12   Zn8   S    
N52   H103  S    
C173  H29   S    
O2    Zn2   S    
O7    Zn1   S    
C32   N40   S    
C93   C131  A    
C30   C68   A    
C85   C133  S    
C104  C120  A    
O42   Zn11  S    
C86   O26   A    
N31   H61   S    
C92   C130  A    
N39   H77   S    
N27   H53   S    
N58   H116  S    
O47   Zn12  S    
N47   H93   S    
C88   O32   A    
C85   O25   A    
C33   N41   S    
C96   C112  A    
C22   C160  A    
O24   Zn4   S    
C165  H21   S    
C50   N58   S    
N28   H56   S    
N43   H86   S    
C113  C125  A    
C52   N60   S    
C99   C133  A    
C103  C135  A    
N60   H119  S    
C113  N25   S    
C79   O43   A    
O45   Zn12  S    
O43   Zn11  S    
N53   H106  S    
C102  C118  A    
C96   C132  A    
C35   N43   S    
N33   H66   S    
N2    N13   A    
C116  C126  A    
C160  C176  A    
C110  N22   S    
C98   Cl10  S    
C118  C128  A    
C37   N45   S    
C34   C50   A    
C15   C171  A    
C9    C165  A    
C25   C65   A    
O18   Zn2   S    
N50   H100  S    
C39   N47   S    
C138  N13   A    
C6    O16   A    
C23   C159  A    
N18   H36   S    
N19   H38   S    
C4    O6    A    
C128  C137  S    
C4    O4    A    
C1    O5    A    
C16   C172  A    
N55   H109  S    
C162  H18   S    
N55   H110  S    
C105  C121  A    
C47   N55   S    
N27   H54   S    
C103  C119  A    
N18   H35   S    
C7    O15   A    
C26   N34   S    
C50   C62   A    
C82   C130  S    
C97   C113  A    
C2    C10   S    
C74   O38   A    
C36   N44   S    
N42   H83   S    
N56   H111  S    
C22   C154  A    
N44   H88   S    
C21   C157  A    
O32   Zn8   S    
C17   C149  A    
C108  C122  A    
C18   C146  A    
N6    N9    A    
C77   O47   A    
C119  N31   S    
C43   C59   A    
O9    Zn5   S    
N37   H73   S    
C98   C134  A    
C17   C65   S    
C115  C125  A    
C15   C175  A    
O21   Zn3   S    
C95   C111  A    
N41   H81   S    
C29   N37   S    
N32   H63   S    
C153  H9    S    
C51   N59   S    
C56   C62   A    
C76   O40   A    
N36   H71   S    
C157  H13   S    
C160  H16   S    
O37   Zn10  S    
C73   O39   A    
N57   H114  S    
N61   H121  S    
C145  H1    S    
C5    O9    A    
C110  C124  A    
C58   C73   S    
C119  C127  A    
N4    N15   A    
C38   N46   S    
