data_mof_unit_23790.cif
_audit_creation_date              2012-12-10T19:09:04-0500
_audit_creation_method            fapswitch 2.2
_symmetry_space_group_name_H-M    P1
_symmetry_Int_Tables_number       1
_space_group_crystal_system       triclinic
_cell_length_a                    17.71331
_cell_length_b                    10.805625
_cell_length_c                    9.554341
_cell_angle_alpha                 90.421164
_cell_angle_beta                  90.273708
_cell_angle_gamma                 91.227362
_cell_volume                      1828.24197838

loop_
_atom_site_label
_atom_site_type_symbol
_atom_type_description
_atom_site_fract_x
_atom_site_fract_y
_atom_site_fract_z
_atom_type_partial_charge
C1    C     C_R   0.496690 0.262284 0.499505 0.793357
C2    C     C_R   0.885181 0.483037 0.502529 0.032817
C3    C     C_1   0.965898 0.482634 0.501617 0.019271
C4    C     C_1   0.033592 0.484506 0.500262 0.058595
C5    C     C_R   0.152974 0.542902 0.612079 -0.335161
C6    C     C_R   0.232306 0.547677 0.615401 0.505772
C7    C     C_R   0.272442 0.499980 0.500328 -0.195656
C8    C     C_R   0.232985 0.447051 0.386210 -0.372093
C9    C     C_R   0.153631 0.442991 0.383041 0.533036
C10   C     C_R   0.114369 0.488680 0.498752 -0.028371
C11   C     C_R   0.480190 0.065137 0.624703 0.040645
C12   C     C_R   0.355567 0.500892 0.500009 0.852337
C13   C     C_R   0.484617 0.129259 0.498967 -0.071744
C14   C     C_R   0.473313 0.062673 0.373416 -0.233187
C15   C     C_R   0.471639 0.933305 0.375055 -0.189745
C16   C     C_R   0.483396 0.870250 0.501457 -0.132522
C17   C     C_R   0.478683 0.937766 0.626617 0.018134
C18   C     C_3   0.525412 0.937216 0.759431 0.317655
C19   C     C_3   0.526456 0.077813 0.754857 -0.474665
C20   C     C_R   0.563288 0.534306 0.073498 0.028312
C21   C     C_R   0.442382 0.443968 0.073586 0.581066
C22   C     C_R   0.441434 0.449304 0.923717 -0.180953
C23   C     C_R   0.496254 0.737709 0.500583 0.782706
C24   C     C_R   0.564087 0.530298 0.926963 0.138799
C25   C     C_3   0.610762 0.645672 0.917223 0.239830
C26   C     C_3   0.608606 0.652895 0.077036 0.258158
C27   C     C_R   0.644410 0.497983 0.500310 0.804591
C28   C     C_R   0.845117 0.450787 0.623809 0.506544
C29   C     C_R   0.765888 0.453427 0.621556 -0.245423
C30   C     C_R   0.727309 0.492368 0.501321 -0.104493
C31   C     C_R   0.768511 0.523934 0.381340 -0.205994
C32   C     C_R   0.846939 0.519553 0.382064 -0.234230
Cu1   Cu    Cu3+1 0.500000 0.499980 0.640670 0.961540
Cu2   Cu    Cu3+1 0.500000 0.500020 0.359330 1.006580
H1    H     H_    0.465755 0.883532 0.276834 0.210990
H2    H     H_    0.582466 0.899358 0.742761 0.067983
H3    H     H_    0.583554 0.118813 0.735532 0.160348
H4    H     H_    0.393545 0.412500 0.865506 0.163912
H5    H     H_    0.579633 0.718303 0.861556 0.160495
H6    H     H_    0.734684 0.423672 0.712935 0.195501
H7    H     H_    0.740297 0.552507 0.287041 0.153131
H8    H     H_    0.121023 0.583109 0.696719 0.162774
H9    H     H_    0.264021 0.406108 0.301303 0.221535
H10   H     H_    0.470213 0.109499 0.273886 0.167826
N1    N     N_R   0.500470 0.500930 0.147930 -0.197834
N2    N     N_R   0.500480 0.500890 0.852020 -0.219446
O1    O     O_R   0.500000 0.319640 0.618810 -0.583590
O2    O     O_R   0.500010 0.319680 0.381230 -0.567859
O3    O     O_R   0.391250 0.499990 0.618840 -0.556381
O4    O     O_R   0.391260 0.500020 0.381250 -0.532390
O5    O     O_R   0.499990 0.680320 0.618770 -0.597199
O6    O     O_R   0.500000 0.680360 0.381190 -0.532344
O7    O     O_R   0.608740 0.499980 0.618750 -0.552781
O8    O     O_R   0.608750 0.500010 0.381160 -0.589443
O9    O     O_3   0.883511 0.407318 0.739428 -0.578835
C33   C     C_3   0.878154 0.493704 0.850096 -0.331857
H11   H     H_    0.820030 0.494688 0.893253 0.202302
H12   H     H_    0.896531 0.588346 0.817303 0.148115
H13   H     H_    0.916429 0.465439 0.935805 0.193258
O10   O     O_3   0.491806 0.893854 0.886038 -0.567208
C34   C     C_3   0.415367 0.855814 0.872502 -0.219437
H14   H     H_    0.408838 0.776011 0.799276 0.206543
H15   H     H_    0.379752 0.934030 0.839589 0.150622
H16   H     H_    0.394985 0.824651 0.976310 0.176854
H17   H     H_    0.494576 0.122127 0.841077 0.207318
O11   O     O_3   0.383479 0.388239 0.146119 -0.567553
C35   C     C_3   0.365804 0.269127 0.091829 -0.412178
H18   H     H_    0.336752 0.214820 0.174489 0.203252
H19   H     H_    0.416962 0.217260 0.061199 0.157618
H20   H     H_    0.326004 0.275392 0.002140 0.157346
O12   O     O_3   0.683768 0.619318 0.867580 -0.603546
C36   C     C_3   0.712679 0.720877 0.791461 -0.361059
H21   H     H_    0.714746 0.806712 0.856188 0.150640
H22   H     H_    0.679074 0.735001 0.694450 0.168137
H23   H     H_    0.771292 0.701098 0.759497 0.190273
H24   H     H_    0.664185 0.641733 0.129550 0.086327
O13   O     O_3   0.565873 0.753506 0.124507 -0.544599
C37   C     C_3   0.614679 0.856829 0.146651 -0.264432
H25   H     H_    0.580499 0.940511 0.161382 0.195435
H26   H     H_    0.651642 0.875213 0.055144 0.142694
H27   H     H_    0.649308 0.844076 0.242642 0.144845
H28   H     H_    0.877845 0.545016 0.288579 0.156581
O14   O     O_3   0.271372 0.609449 0.722286 -0.575057
C38   C     C_3   0.250588 0.561618 0.854072 -0.335587
H29   H     H_    0.246973 0.458511 0.853827 0.150052
H30   H     H_    0.196684 0.601386 0.889903 0.157976
H31   H     H_    0.294571 0.589977 0.931612 0.191509
O15   O     O_3   0.113109 0.386966 0.273937 -0.567479
C39   C     C_3   0.137545 0.432502 0.143191 -0.337442
H32   H     H_    0.188650 0.383711 0.107669 0.173213
H33   H     H_    0.147899 0.534619 0.144945 0.150621
H34   H     H_    0.092440 0.413009 0.064642 0.194003

loop_
_geom_bond_atom_site_label_1
_geom_bond_atom_site_label_2
_ccdc_geom_bond_type
C8    C9    A    
O9    C33   S    
C21   O11   S    
C38   H31   S    
C5    H8    S    
C12   O3    A    
C27   O8    A    
C7    C8    A    
O13   C37   S    
C11   C19   S    
C28   C29   A    
C38   H30   S    
C9    O15   S    
C30   C31   A    
C37   H26   S    
Cu1   O3    S    
C15   C16   A    
C22   H4    S    
C33   H11   S    
C2    C32   A    
C18   C19   S    
C34   H15   S    
C19   H3    S    
C31   C32   A    
C16   C17   A    
C26   H24   S    
C8    H9    S    
C25   O12   S    
C39   H33   S    
C9    C10   A    
C20   N1    A    
O11   C35   S    
C21   C22   A    
C27   C30   S    
Cu1   N2    S    
C36   H23   S    
C15   H1    S    
C28   O9    S    
Cu1   Cu2   S    
C21   N1    A    
Cu1   O7    S    
C7    C12   S    
Cu2   O4    S    
C26   O13   S    
C35   H18   S    
C20   C24   A    
C24   C25   S    
C36   H22   S    
C37   H25   S    
C1    O1    A    
C25   C26   S    
O10   C34   S    
C35   H19   S    
C34   H16   S    
C29   C30   A    
C23   O5    A    
O14   C38   S    
C17   C18   S    
Cu2   N1    S    
C38   H29   S    
C39   H34   S    
C18   O10   S    
C22   N2    A    
Cu2   O8    S    
C16   C23   S    
Cu1   O1    S    
C1    C13   S    
C4    C10   S    
C3    C4    T    
C14   H10   S    
C11   C17   A    
C6    O14   S    
C31   H7    S    
C36   H21   S    
C12   O4    A    
C27   O7    A    
C1    O2    A    
C6    C7    A    
Cu1   O5    S    
C32   H28   S    
Cu2   O6    S    
C33   H13   S    
C35   H20   S    
C24   N2    A    
C2    C3    S    
C5    C10   A    
C25   H5    S    
C11   C13   A    
C37   H27   S    
C23   O6    A    
C5    C6    A    
C20   C26   S    
C29   H6    S    
C33   H12   S    
C19   H17   S    
C34   H14   S    
O12   C36   S    
Cu2   O2    S    
O15   C39   S    
C14   C15   A    
C2    C28   A    
C39   H32   S    
C13   C14   A    
C18   H2    S    
