data_mof_unit_33559.cif
_audit_creation_date              2012-12-11T20:07:22-0500
_audit_creation_method            fapswitch 2.2
_symmetry_space_group_name_H-M    P1
_symmetry_Int_Tables_number       1
_space_group_crystal_system       triclinic
_cell_length_a                    8.283461
_cell_length_b                    16.287508
_cell_length_c                    18.694759
_cell_angle_alpha                 111.569968
_cell_angle_beta                  90.570694
_cell_angle_gamma                 83.894414
_cell_volume                      2331.14167555

loop_
_atom_site_label
_atom_site_type_symbol
_atom_type_description
_atom_site_fract_x
_atom_site_fract_y
_atom_site_fract_z
_atom_type_partial_charge
Ba1   Ba    Ba6+2 0.333520 0.539550 0.472180 1.665532
Ba2   Ba    Ba6+2 0.856270 0.460520 0.527840 1.651935
C1    C     C_3   0.125252 0.844855 0.341146 -0.304681
C2    C     C_R   0.449759 0.405689 0.078123 -0.066382
C3    C     C_R   0.300692 0.430228 0.942976 -0.060524
C4    C     C_3   0.589397 0.745736 0.311808 0.326306
C5    C     C_R   0.450448 0.461467 0.970851 0.009852
C6    C     C_R   0.242605 0.431764 0.873323 -0.062591
C7    C     C_R   0.332037 0.463102 0.827425 -0.054840
C8    C     C_R   0.474394 0.503053 0.857204 -0.000746
C9    C     C_R   0.533059 0.503154 0.929586 0.025934
C10   C     C_R   0.282936 0.456462 0.752920 -0.017766
C11   C     C_R   0.376126 0.488236 0.708984 -0.288540
C12   C     C_3   0.100921 0.758320 0.351155 0.347913
C13   C     C_R   0.507745 0.535251 0.739632 0.040240
C14   C     C_R   0.556410 0.544185 0.815238 -0.042512
C15   C     C_R   0.656024 0.497509 0.070625 0.041729
C16   C     C_3   0.699340 0.815028 0.312210 -0.349324
C17   C     C_R   0.714713 0.497041 0.142871 0.040279
C18   C     C_R   0.633377 0.454942 0.184300 0.023448
C19   C     C_R   0.507195 0.405352 0.148362 0.056899
C20   C     C_R   0.683240 0.593468 0.850725 -0.020990
C21   C     C_R   0.741813 0.593029 0.920683 -0.077635
C22   C     C_R   0.673701 0.544857 0.959986 0.020803
C23   C     C_3   0.064350 0.292866 0.273460 0.251336
C24   C     C_R   0.737643 0.540190 0.029856 0.044872
C25   C     C_R   0.884330 0.574267 0.059313 -0.082497
C26   C     C_R   0.855589 0.538002 0.173376 -0.045127
C27   C     C_R   0.941686 0.572935 0.129032 -0.100754
C28   C     C_3   0.619795 0.736508 0.663411 0.293411
C29   C     C_R   0.908113 0.540787 0.246497 0.018828
C30   C     C_R   0.819067 0.505819 0.289057 -0.281698
C31   C     C_R   0.683726 0.462312 0.259388 0.049536
C32   C     C_2   0.386892 0.240151 0.496465 -0.266113
C33   C     C_R   0.808957 0.751769 0.514668 -0.293327
C34   C     C_3   0.047666 0.239588 0.187690 -0.207087
C35   C     C_2   0.232210 0.118725 0.418838 -0.093552
C36   C     C_2   0.252003 0.205565 0.445344 0.028549
C37   C     C_2   0.512064 0.184871 0.504665 -0.023395
C38   C     C_3   0.511738 0.085915 0.459067 -0.052488
C39   C     C_3   0.342793 0.054296 0.441911 0.050074
C40   C     C_3   0.597973 0.837376 0.700423 -0.357707
C41   C     C_2   0.638556 0.022996 0.475978 -0.099775
C42   C     C_2   0.598244 0.970943 0.514071 -0.147393
C43   C     C_R   0.844793 0.932216 0.574443 0.020749
C44   C     C_R   0.713388 0.903139 0.528036 -0.031306
C45   C     C_3   0.680192 0.289536 0.698041 0.349956
C46   C     C_R   0.957747 0.872798 0.590625 -0.116224
C47   C     C_R   0.939897 0.782513 0.560636 0.063852
C48   C     C_R   0.690797 0.811701 0.500921 -0.001947
C49   C     C_3   0.568414 0.264240 0.337985 0.287253
C50   C     C_3   0.570158 0.164154 0.298958 -0.346331
C51   C     C_3   0.145549 0.668474 0.712633 0.312590
C52   C     C_3   0.143349 0.697459 0.799886 -0.380514
C53   C     C_2   0.997498 0.296976 0.142825 0.790662
C54   C     C_2   0.280226 0.208342 0.741556 0.854404
C55   C     C_2   0.514289 0.708204 0.234067 0.849306
C56   C     C_3   0.714196 0.272305 0.771887 -0.322521
C57   C     C_2   0.799450 0.011823 0.436968 0.896657
C58   C     C_3   0.202810 0.242303 0.682655 0.300189
C59   C     C_3   0.139141 0.164907 0.619124 -0.310796
C60   C     C_R   0.516050 0.455428 0.039912 -0.013033
H1    H     H_    0.196088 0.744941 0.388253 0.135816
H2    H     H_    0.273020 0.652430 0.690680 0.007401
H3    H     H_    0.079743 0.608678 0.688832 0.065464
H4    H     H_    0.147644 0.895976 0.397685 0.146116
H5    H     H_    0.212040 0.755935 0.825229 0.133457
H6    H     H_    0.199777 0.643023 0.817094 0.057340
H7    H     H_    0.016085 0.715346 0.822992 0.122825
H8    H     H_    0.981922 0.764562 0.380242 -0.062999
H9    H     H_    0.017535 0.868059 0.315528 0.143746
H10   H     H_    0.940927 0.318457 0.300377 -0.004326
H11   H     H_    0.136227 0.349316 0.281467 0.062886
H12   H     H_    0.688740 0.860287 0.745615 0.130985
H13   H     H_    0.958248 0.191090 0.180995 0.092265
H14   H     H_    0.166374 0.201310 0.162929 0.092449
H15   H     H_    0.230810 0.835436 0.301845 0.152420
H16   H     H_    0.797063 0.784594 0.267080 0.109335
H17   H     H_    0.730872 0.351800 0.703111 0.098115
H18   H     H_    0.546923 0.298656 0.692537 -0.067573
H19   H     H_    0.842668 0.279254 0.787510 0.163443
H20   H     H_    0.635788 0.320742 0.819842 0.076916
H21   H     H_    0.689807 0.204197 0.764771 0.175138
H22   H     H_    0.297439 0.266931 0.656525 -0.140388
H23   H     H_    0.613984 0.867102 0.656822 0.069323
H24   H     H_    0.238168 0.111255 0.591445 0.047541
H25   H     H_    0.085011 0.188445 0.574883 0.170410
H26   H     H_    0.045712 0.137438 0.643329 0.130946
H27   H     H_    0.339267 0.481049 0.651489 0.065956
H28   H     H_    0.126771 0.407231 0.855851 0.126292
H29   H     H_    0.450936 0.365288 0.173790 0.115655
H30   H     H_    0.740674 0.632673 0.824829 0.101175
H31   H     H_    0.056031 0.598913 0.146776 0.124899
H32   H     H_    0.859506 0.509859 0.345371 0.064879
H33   H     H_    0.223129 0.405675 0.974753 0.082521
H34   H     H_    0.473800 0.860601 0.726771 0.139188
H35   H     H_    0.355026 0.364174 0.053861 0.107800
H36   H     H_    0.839832 0.632793 0.943142 0.066293
H37   H     H_    0.664460 0.689831 0.321074 -0.084127
H38   H     H_    0.960668 0.600972 0.028882 0.070724
H39   H     H_    0.135835 0.093631 0.379665 0.129204
H40   H     H_    0.056611 0.897521 0.627921 0.093562
H41   H     H_    0.389826 0.311534 0.522156 0.063657
H42   H     H_    0.793175 0.681812 0.494051 0.068092
H43   H     H_    0.473729 0.976904 0.534500 0.116933
H44   H     H_    0.628053 0.871061 0.301707 0.170243
H45   H     H_    0.448230 0.293284 0.366302 0.002868
H46   H     H_    0.754485 0.841327 0.368763 0.073300
H47   H     H_    0.746291 0.713774 0.641422 0.004353
H48   H     H_    0.534987 0.715806 0.615307 0.071634
H49   H     H_    0.061305 0.385656 0.099562 0.304727
H50   H     H_    0.464767 0.133785 0.668855 0.256286
H51   H     H_    0.376703 0.618094 0.165599 0.309120
H52   H     H_    0.923267 0.051556 0.534085 0.285942
H53   H     H_    0.663118 0.278548 0.381838 0.074954
H54   H     H_    0.474322 0.148286 0.255499 0.137883
H55   H     H_    0.547561 0.134372 0.341651 0.077989
H56   H     H_    0.690447 0.134517 0.270081 0.144041
O1    O     O_2   0.402610 0.439360 0.314250 -0.455832
O2    O     O_2   0.845451 0.193239 0.494991 -0.460812
O3    O     O_3   0.752045 0.217459 0.634635 -0.609081
O4    O     O_3   0.648560 0.446300 0.404730 -0.499175
O5    O     O_3   0.025080 0.609480 0.556050 -0.491427
O6    O     O_2   0.948320 0.280590 0.426090 -0.450440
O7    O     O_3   0.147099 0.234602 0.304480 -0.647759
O8    O     O_2   0.945792 0.470191 0.752447 -0.498889
O9    O     O_3   0.069772 0.306682 0.716750 -0.596651
O10   O     O_3   0.108870 0.604000 0.387500 -0.499604
O11   O     O_2   0.242514 0.527056 0.247089 -0.419953
O12   O     O_3   0.070298 0.738510 0.693619 -0.629331
O13   O     O_3   0.600131 0.297859 0.281378 -0.634671
O14   O     O_3   0.111634 0.689644 0.278788 -0.601116
O15   O     O_2   0.241370 0.719440 0.573960 -0.469140
O16   O     O_3   0.507090 0.652150 0.432150 -0.466336
O17   O     O_2   0.355858 0.813235 0.506613 -0.497574
O18   O     O_2   0.870244 0.288386 0.108540 -0.607655
O19   O     O_R   0.101351 0.356305 0.136693 -0.776511
O20   O     O_2   0.218558 0.231839 0.805994 -0.564829
O21   O     O_R   0.419463 0.147153 0.722579 -0.744834
O22   O     O_2   0.531370 0.739438 0.184548 -0.630042
O23   O     O_3   0.464083 0.786535 0.368328 -0.628335
O24   O     O_R   0.424537 0.636558 0.218613 -0.718984
O25   O     O_2   0.804978 0.003139 0.369320 -0.610479
O26   O     O_R   0.943424 0.019841 0.476904 -0.751424
O27   O     O_2   0.787080 0.560670 0.685800 -0.466510
O28   O     O_3   0.541120 0.553770 0.595290 -0.501048
O29   O     O_3   0.080800 0.396070 0.612520 -0.462591
O30   O     O_3   0.587066 0.702324 0.719496 -0.637559
O31   O     O_3   0.164600 0.390590 0.443970 -0.478412
O32   O     O_3   0.682580 0.347920 0.567870 -0.485747
P1    P     P_3+3 0.582960 0.413890 0.320860 0.990101
P2    P     P_3+3 0.071690 0.707860 0.593450 0.982032
P3    P     P_3+3 0.506411 0.766585 0.453118 0.938758
P4    P     P_3+3 0.606720 0.586180 0.679160 0.969280
P5    P     P_3+3 0.696569 0.234624 0.550049 0.943161
P6    P     P_3+3 0.092512 0.589276 0.290397 0.984162
P7    P     P_3+3 0.131785 0.278066 0.404950 0.965519
P8    P     P_3+3 0.096594 0.408475 0.709166 0.951659

loop_
_geom_bond_atom_site_label_1
_geom_bond_atom_site_label_2
_ccdc_geom_bond_type
Ba2   O32   S    
C27   H31   S    
C25   C27   A    
O13   P1    S    
C17   C18   A    
C4    C55   S    
Ba1   O10   S    
C45   H17   S    
C16   H44   S    
C29   P6    S    
C12   O14   S    
C43   C44   A    
Ba2   O27   S    
C5    C9    A    
C24   C25   A    
C55   O24   S    
C28   H48   S    
C40   H34   S    
C15   C24   A    
C26   C27   A    
C34   H13   S    
C22   C24   A    
C56   H20   S    
C51   H2    S    
O7    P7    S    
C45   O3    S    
O16   P3    S    
C52   H6    S    
C48   P3    S    
C53   O18   D    
C2    C60   A    
C9    C22   A    
H51   O24   S    
Ba1   P2    S    
Ba1   Ba2   S    
Ba1   O1    S    
C23   O7    S    
Ba1   O4    S    
C13   P4    S    
C34   H14   S    
C15   C17   A    
C38   C41   S    
C51   C52   S    
C6    C7    A    
C33   C47   A    
C21   C22   A    
Ba1   O31   S    
O4    P1    S    
C51   H3    S    
C7    C8    A    
C41   C57   S    
C50   H55   S    
Ba2   O31   S    
C50   H54   S    
C57   O25   D    
Ba2   P4    S    
C2    H35   S    
C12   H8    S    
H50   O21   S    
Ba1   O28   S    
O15   P2    D    
O30   P4    S    
C45   H18   S    
Ba1   O15   S    
C3    H33   S    
C42   C44   S    
Ba2   O4    S    
O1    P1    D    
C4    C16   S    
C25   H38   S    
C40   H12   S    
C26   C29   A    
C28   H47   S    
C32   C37   D    
C33   H42   S    
C31   P1    S    
C56   H19   S    
C37   C38   S    
C3    C5    A    
C54   O21   S    
C49   O13   S    
C52   H5    S    
Ba2   O29   S    
C42   H43   S    
O2    P5    D    
C49   H53   S    
C49   C50   S    
C55   O22   D    
C37   P5    S    
C58   C59   S    
H52   O26   S    
C1    H9    S    
C41   C42   D    
Ba1   O5    S    
C5    C60   A    
C35   C36   D    
C59   H26   S    
C15   C60   A    
O11   P6    D    
C54   O20   D    
O8    P8    D    
C29   C30   A    
O28   P4    S    
C16   H16   S    
C46   H40   S    
O6    P7    D    
C33   C48   A    
C40   H23   S    
C10   C11   A    
C4    O23   S    
C17   C26   A    
O9    P8    S    
C1    C12   S    
C18   C31   A    
C46   C47   A    
C57   O26   S    
O32   P5    S    
C11   C13   A    
O12   P2    S    
C1    H4    S    
C6    H28   S    
O27   P4    D    
Ba1   O16   S    
C1    H15   S    
H49   O19   S    
C59   H25   S    
C19   H29   S    
C43   C46   A    
O5    P2    S    
C38   C39   S    
C14   C20   A    
O3    P5    S    
C47   P2    S    
C11   H27   S    
C32   C36   S    
C58   O9    S    
C36   P7    S    
O17   P3    D    
C3    C6    A    
C28   O30   S    
Ba2   O6    S    
Ba2   O28   S    
C44   C48   A    
C32   H41   S    
C53   O19   S    
C8    C9    A    
C30   C31   A    
C34   C53   S    
C8    C14   A    
C56   H21   S    
C4    H37   S    
C45   C56   S    
C35   H39   S    
C2    C19   A    
C58   H22   S    
O23   P3    S    
C52   H7    S    
C23   H10   S    
C12   H1    S    
O14   P6    S    
Ba1   P1    S    
C23   H11   S    
C35   C39   S    
C7    C10   A    
C16   H46   S    
C59   H24   S    
O10   P6    S    
C23   C34   S    
C54   C58   S    
C21   H36   S    
C18   C19   A    
C49   H45   S    
C30   H32   S    
C20   H30   S    
C20   C21   A    
C28   C40   S    
C51   O12   S    
C10   P8    S    
O29   P8    S    
O31   P7    S    
Ba2   O5    S    
C13   C14   A    
C50   H56   S    
