data_mof_unit_22339.cif
_audit_creation_date              2013-03-05T16:47:34-0500
_audit_creation_method            fapswitch 2.2
_symmetry_space_group_name_H-M    P1
_symmetry_Int_Tables_number       1
_space_group_crystal_system       triclinic
_cell_length_a                    15.767867
_cell_length_b                    8.929415
_cell_length_c                    8.109694
_cell_angle_alpha                 90.020267
_cell_angle_beta                  89.943811
_cell_angle_gamma                 90.001328
_cell_volume                      1141.82668102

loop_
_atom_site_label
_atom_site_type_symbol
_atom_site_description
_atom_site_fract_x
_atom_site_fract_y
_atom_site_fract_z
_atom_type_partial_charge
O1    O     O_R   0.500000 0.285340 0.636850 -0.615013
O2    O     O_R   0.500000 0.285340 0.363150 -0.614382
C1    C     C_R   0.500000 0.217992 0.499981 0.930057
O3    O     O_R   0.377140 0.500000 0.636930 -0.610254
O4    O     O_R   0.377140 0.500000 0.363070 -0.600368
O5    O     O_R   0.622860 0.500000 0.636930 -0.613482
O6    O     O_R   0.622860 0.500000 0.363070 -0.595029
C2    C     C_R   0.337822 0.500139 0.500027 0.895255
C3    C     C_R   0.662178 0.499989 0.499839 0.894157
Zn1   Zn    Zn3+2 0.500000 0.499990 0.682780 1.039633
Zn2   Zn    Zn3+2 0.500000 0.499990 0.317220 1.051362
C4    C     C_1   0.499999 0.934785 0.500022 -0.144709
O7    O     O_R   0.500000 0.714650 0.636900 -0.612257
O8    O     O_R   0.500000 0.714650 0.363100 -0.609401
C5    C     C_1   0.499999 0.065185 0.499971 -0.149947
C6    C     C_R   0.499999 0.781981 0.500017 0.944418
C7    C     C_3   0.047405 0.569218 0.660468 -0.342183
C8    C     C_3   0.049713 0.359055 0.458413 -0.382052
C9    C     C_3   0.950331 0.550143 0.663064 -0.363126
C10   C     C_3   0.952722 0.360595 0.437571 -0.357575
H1    H     H_    0.933911 0.455101 0.746222 0.232448
H2    H     H_    0.924689 0.272160 0.517726 0.221626
H3    H     H_    0.075504 0.499012 0.759915 0.239358
H4    H     H_    0.066132 0.286517 0.565542 0.222710
H5    H     H_    0.080668 0.305375 0.350451 0.254822
H6    H     H_    0.064223 0.686549 0.690601 0.273995
H7    H     H_    0.935927 0.329851 0.309315 0.270364
H8    H     H_    0.919347 0.649727 0.718788 0.264493
N1    N     N_1   0.500000 0.500030 0.073640 -0.009017
N2    N     N_1   0.500000 0.500030 0.926360 -0.009987
C11   C     C_1   0.750870 0.504689 0.498494 -0.070229
C12   C     C_1   0.249157 0.506386 0.499421 -0.071653
C13   C     C_3   0.082710 0.520894 0.489575 0.008018
C14   C     C_3   0.917340 0.516952 0.485890 0.006228
C15   C     C_3   0.948922 0.642050 0.359695 0.358592
C16   C     C_3   0.051061 0.631764 0.348372 0.360213
C17   C     C_1   0.825959 0.510093 0.493750 0.076269
C18   C     C_1   0.174092 0.513299 0.496157 0.077686
N3    N     N_R   0.088044 0.784121 0.364658 0.238540
O9    O     O_R   0.070057 0.885124 0.254248 -0.270552
O10   O     O_R   0.143214 0.818047 0.478002 -0.381583
N4    N     N_R   0.080382 0.571716 0.186683 0.207233
O11   O     O_R   0.044349 0.456970 0.116645 -0.398303
O12   O     O_R   0.148902 0.625014 0.118698 -0.326398
N5    N     N_R   0.919462 0.790338 0.421323 0.210334
O13   O     O_R   0.850150 0.849007 0.362620 -0.322010
O14   O     O_R   0.955753 0.857757 0.544942 -0.370582
N6    N     N_R   0.911995 0.622983 0.192455 0.237706
O15   O     O_R   0.857250 0.518478 0.157908 -0.385428
O16   O     O_R   0.929796 0.720784 0.078428 -0.289997

loop_
_geom_bond_atom_site_label_1
_geom_bond_atom_site_label_2
_geom_bond_distance
_ccdc_geom_bond_type
O5    Zn1   1.972242 S    
O4    C2    1.271460 A    
N1    N2    1.194395 T    
C10   H7    1.108007 S    
C12   C18   1.185556 T    
C14   C17   1.443525 S    
Zn1   N2    1.975359 S    
C16   N4    1.489616 S    
C15   C16   1.615653 S    
C4    C5    1.164396 T    
O3    C2    1.272147 A    
C10   C14   1.553491 S    
O5    C3    1.272407 A    
N6    O16   1.302541 A    
O2    C1    1.262326 A    
N3    O10   1.301834 A    
N5    O13   1.302593 A    
O6    Zn2   1.972958 S    
C9    H8    1.110375 S    
C7    H3    1.113904 S    
C8    H5    1.110604 S    
N4    O12   1.302605 A    
C8    H4    1.114543 S    
C7    H6    1.107996 S    
C7    C13   1.553986 S    
N6    O15   1.301802 A    
C7    C9    1.540216 S    
C10   H2    1.114134 S    
O4    Zn2   1.972243 S    
C8    C10   1.538876 S    
N5    O14   1.302143 A    
C8    C13   1.556570 S    
O8    C6    1.262496 A    
N4    O11   1.302094 A    
O2    Zn2   1.952685 S    
O3    Zn1   1.972960 S    
C15   N5    1.489280 S    
C11   C17   1.185574 T    
N3    O9    1.302563 A    
C13   C16   1.594485 S    
C1    C5    1.364477 S    
Zn2   N1    1.975359 S    
C14   C15   1.594654 S    
O7    C6    1.262621 A    
Zn2   O8    1.952437 S    
O6    C3    1.271189 A    
C3    C11   1.399143 S    
C13   C18   1.443530 S    
C9    H1    1.114509 S    
Zn1   O7    1.952696 S    
C16   N3    1.486051 S    
O1    Zn1   1.952427 S    
C4    C6    1.364449 S    
C15   N6    1.486216 S    
O1    C1    1.262224 A    
C9    C14   1.556939 S    
C2    C12   1.399174 S    
