data_mof_unit_33760.cif
_audit_creation_date              2012-12-11T14:49:26-0500
_audit_creation_method            fapswitch 2.2
_symmetry_space_group_name_H-M    P1
_symmetry_Int_Tables_number       1
_space_group_crystal_system       triclinic
_cell_length_a                    16.872533
_cell_length_b                    16.736024
_cell_length_c                    19.435345
_cell_angle_alpha                 117.698396
_cell_angle_beta                  62.318348
_cell_angle_gamma                 100.701258
_cell_volume                      4299.85284698

loop_
_atom_site_label
_atom_site_type_symbol
_atom_type_description
_atom_site_fract_x
_atom_site_fract_y
_atom_site_fract_z
_atom_type_partial_charge
C1    C     C_R   0.042311 0.759029 0.008111 -0.132568
C2    C     C_R   0.766642 0.438682 0.240793 0.082786
C3    C     C_R   0.723920 0.553375 0.026601 0.101471
C4    C     C_R   0.961963 0.759530 0.254879 0.065355
C5    C     C_R   0.250230 0.569146 0.011629 -0.143015
C6    C     C_R   0.920522 0.262054 0.835629 -0.130594
C7    C     C_R   0.172543 0.451073 0.751401 -0.122506
C8    C     C_R   0.054388 0.307612 0.048848 -0.117126
C9    C     C_R   0.976872 0.238711 0.971840 -0.109037
C10   C     C_R   0.251763 0.520838 0.827810 -0.116937
C11   C     C_R   0.183992 0.490189 0.087578 -0.127396
C12   C     C_R   0.763489 0.419821 0.164791 -0.055767
C13   C     C_R   0.987584 0.340815 0.759579 -0.138700
C14   C     C_R   0.258491 0.540278 0.064135 0.067844
C15   C     C_R   0.938702 0.264643 0.759535 0.068372
C16   C     C_R   0.258596 0.459667 0.746274 0.073132
C17   C     C_R   0.034083 0.222508 0.998050 0.059000
C18   C     C_R   0.851209 0.132465 0.706767 -0.181507
C19   C     C_R   0.901654 0.206757 0.697866 0.090963
C20   C     C_R   0.923276 0.220798 0.625434 -0.204578
C21   C     C_R   0.908158 0.154236 0.556313 0.083867
C22   C     C_R   0.868248 0.074037 0.560895 0.047942
C23   C     C_R   0.805442 0.563841 0.964915 -0.133680
C24   C     C_R   0.834917 0.065565 0.638271 0.068751
C25   C     C_R   0.940582 0.163158 0.479819 -0.290035
C26   C     C_R   0.943842 0.089240 0.404689 0.465526
C27   C     C_R   0.913690 0.005350 0.406322 0.024392
C28   C     C_R   0.870446 0.999288 0.485963 -0.057520
C29   C     C_R   0.838142 0.916129 0.489224 -0.052767
C30   C     C_R   0.792938 0.912076 0.569873 0.542583
C31   C     C_R   0.793012 0.986969 0.643560 -0.321965
C32   C     C_R   0.934260 0.926008 0.330023 -0.156035
C33   C     C_R   0.916062 0.842155 0.332591 0.048623
C34   C     C_R   0.953202 0.672866 0.248868 -0.108014
C35   C     C_R   0.860751 0.838134 0.411368 -0.102024
C36   C     C_R   0.424646 0.436685 0.672133 -0.235837
C37   C     C_R   0.341596 0.415576 0.668653 0.111317
C38   C     C_R   0.339178 0.361050 0.588726 -0.237337
C39   C     C_R   0.417374 0.341728 0.512335 0.134853
C40   C     C_R   0.499012 0.374774 0.516441 0.034104
C41   C     C_R   0.503397 0.418245 0.596430 0.132023
C42   C     C_R   0.413676 0.298320 0.432480 -0.191152
C43   C     C_R   0.488187 0.296112 0.358305 -0.156424
C44   C     C_R   0.566747 0.337379 0.363618 0.118447
C45   C     C_R   0.738278 0.484389 0.040699 -0.070822
C46   C     C_R   0.573834 0.372729 0.441934 0.032752
C47   C     C_R   0.652533 0.414416 0.447875 0.132489
C48   C     C_R   0.659120 0.449258 0.525954 -0.170483
C49   C     C_R   0.584785 0.451030 0.600015 -0.183073
C50   C     C_R   0.634614 0.351778 0.294588 -0.187050
C51   C     C_R   0.707929 0.403364 0.303978 0.090254
C52   C     C_R   0.719651 0.428481 0.378347 -0.243564
C53   C     C_R   0.638220 0.600569 0.062613 0.007149
C54   C     C_R   0.326368 0.569454 0.097452 0.125463
C55   C     C_R   0.399769 0.556228 0.173579 -0.116539
C56   C     C_R   0.023399 0.752902 0.173661 -0.109605
C57   C     C_R   0.325715 0.542269 0.156034 -0.194047
C58   C     C_R   0.397428 0.619203 0.064250 -0.222930
C59   C     C_R   0.473410 0.628214 0.076853 0.129520
C60   C     C_R   0.476799 0.593480 0.129260 0.042583
C61   C     C_R   0.559470 0.588055 0.128087 0.371235
C62   C     C_R   0.631715 0.647133 0.020951 -0.202406
C63   C     C_R   0.549219 0.663143 0.030050 -0.191365
C64   C     C_R   0.832001 0.175664 0.127605 0.033253
C65   C     C_R   0.966778 0.859711 0.984119 0.120127
C66   C     C_R   0.881540 0.936956 0.958404 -0.066644
C67   C     C_R   0.842390 0.487977 0.240297 -0.132634
C68   C     C_R   0.924629 0.859284 0.936252 -0.202486
C69   C     C_R   0.970638 0.942049 0.051176 -0.191661
C70   C     C_R   0.927661 0.021012 0.073833 0.116095
C71   C     C_R   0.879980 0.018305 0.028826 -0.054442
C72   C     C_R   0.831045 0.096674 0.057028 0.462852
C73   C     C_R   0.881032 0.178729 0.169897 -0.244729
C74   C     C_R   0.928728 0.101919 0.143230 -0.169578
C75   C     C_R   0.966289 0.688367 0.930246 -0.118269
C76   C     C_R   0.994142 0.772778 0.972152 0.060797
H1    H     H_    0.084080 0.807663 0.034873 0.099979
H2    H     H_    0.873050 0.220319 0.863612 0.150063
H3    H     H_    0.152162 0.408635 0.700879 0.099303
H4    H     H_    0.096084 0.321115 0.081378 0.110892
H5    H     H_    0.947143 0.188094 0.931987 0.159788
H6    H     H_    0.304790 0.543229 0.848030 0.098006
H7    H     H_    0.161621 0.468111 0.137654 0.092627
H8    H     H_    0.001969 0.372167 0.717633 0.091681
H9    H     H_    0.830623 0.122302 0.763686 0.152019
H10   H     H_    0.958799 0.279462 0.618746 0.117094
H11   H     H_    0.969234 0.225735 0.476887 0.176759
H12   H     H_    0.721471 0.372233 0.137602 0.134275
H13   H     H_    0.971538 0.929034 0.268786 0.165066
H14   H     H_    0.842562 0.773444 0.412309 0.179703
H15   H     H_    0.764794 0.982327 0.704266 0.203496
H16   H     H_    0.428264 0.474626 0.733222 0.120383
H17   H     H_    0.276162 0.340214 0.584910 0.121474
H18   H     H_    0.351659 0.271388 0.428305 0.141742
H19   H     H_    0.482467 0.267399 0.298097 0.153302
H20   H     H_    0.625888 0.328919 0.236662 0.154281
H21   H     H_    0.817673 0.608069 0.935482 0.096214
H22   H     H_    0.777063 0.465596 0.385793 0.132339
H23   H     H_    0.719788 0.480218 0.530964 0.150613
H24   H     H_    0.589297 0.483406 0.660966 0.139741
H25   H     H_    0.689971 0.664888 0.975453 0.142586
H26   H     H_    0.399072 0.529881 0.215219 0.185671
H27   H     H_    0.546434 0.693018 0.992206 0.146553
H28   H     H_    0.270420 0.506311 0.185060 0.126713
H29   H     H_    0.398994 0.643181 0.020790 0.114002
H30   H     H_    0.911578 0.651271 0.298662 0.111911
H31   H     H_    0.881375 0.240787 0.223914 0.169208
H32   H     H_    0.847786 0.931437 0.920932 0.202249
H33   H     H_    0.965784 0.105489 0.177328 0.210281
H34   H     H_    0.921817 0.798008 0.882924 0.124946
H35   H     H_    0.002643 0.943959 0.089011 0.135245
H36   H     H_    0.690227 0.452864 0.079869 0.159541
H37   H     H_    0.049046 0.807647 0.156050 0.097642
H38   H     H_    0.873492 0.502356 0.282232 0.097599
H39   H     H_    0.938478 0.670675 0.885265 0.086443
H40   H     H_    0.286903 0.621018 0.992370 0.095121
N1    N     N_R   0.036080 0.671900 0.995420 -0.039203
N2    N     N_R   0.954660 0.334720 0.880230 -0.044295
N3    N     N_R   0.116260 0.502360 0.832930 -0.044097
N4    N     N_R   0.012950 0.371090 0.051890 -0.049729
N5    N     N_R   0.963920 0.328100 0.004580 -0.045888
N6    N     N_R   0.165290 0.545350 0.880240 -0.043298
N7    N     N_R   0.132570 0.490700 0.051900 -0.041430
N8    N     N_R   0.996640 0.382750 0.832930 -0.042566
N9    N     N_R   0.834710 0.454650 0.119760 -0.046842
N10   N     N_R   0.867430 0.509300 0.948100 -0.046176
N11   N     N_R   0.003360 0.617250 0.167070 -0.045009
N12   N     N_R   0.825450 0.461270 0.995400 -0.054655
N13   N     N_R   0.045340 0.665280 0.119770 -0.042516
N14   N     N_R   0.883740 0.497640 0.167070 -0.044108
N15   N     N_R   0.987050 0.628910 0.948110 -0.039518
N16   N     N_R   0.174550 0.538730 0.004600 -0.040791
Ni1   Ni    Ni4+2 0.104370 0.604370 0.000010 0.223969
Ni2   Ni    Ni4+2 0.895630 0.395630 0.999990 0.255965
Ni3   Ni    Ni4+2 0.991920 0.505780 0.891500 0.218188
Ni4   Ni    Ni4+2 0.008080 0.494220 0.108500 0.217519
Cl1   Cl    Cl    0.994626 0.103196 0.308894 -0.726361
S1    S     S_3+6 0.741843 0.813171 0.580438 -0.045448
O1    O     O_2   0.813726 0.745199 0.545793 -0.321981
O2    O     O_2   0.681723 0.834473 0.673561 -0.266131
O3    O     O_3   0.680895 0.769561 0.523754 -0.528731
H41   H     H_    0.665361 0.708863 0.522248 0.376438
Cl2   Cl    Cl    0.563131 0.568826 0.208828 -0.682314
S2    S     S_3+6 0.764028 0.098478 0.009756 -0.080726
O4    O     O_2   0.720991 0.190840 0.053794 -0.330797
O5    O     O_2   0.820691 0.073970 0.915468 -0.353649
O6    O     O_3   0.683908 0.022692 0.020504 -0.526790
H42   H     H_    0.650925 0.024710 0.990396 0.383355

loop_
_geom_bond_atom_site_label_1
_geom_bond_atom_site_label_2
_ccdc_geom_bond_type
N9    Ni2   S    
C66   C68   A    
C30   S1    S    
N7    N16   A    
C1    H1    S    
C73   C74   A    
C3    C23   A    
C19   C20   A    
C43   C44   A    
C26   Cl1   S    
C2    C12   A    
C74   H33   S    
C45   H36   S    
C40   C46   A    
C55   H26   S    
C26   C27   A    
C37   C38   A    
C65   C76   S    
C18   C24   A    
C28   C29   A    
C67   H38   S    
N15   Ni3   S    
C38   C39   A    
C11   C14   A    
C65   C69   A    
C6    H2    S    
C45   N12   A    
C25   H11   S    
C18   C19   A    
C48   H23   S    
O6    H42   S    
C6    C15   A    
C46   C47   A    
C53   C61   A    
N9    N14   A    
C61   Cl2   S    
C5    N16   A    
C47   C48   A    
C44   C46   A    
C34   N11   A    
C20   H10   S    
C70   C74   A    
C43   H19   S    
C64   C73   A    
C70   C71   A    
N5    Ni2   S    
C56   N13   A    
N2    Ni2   S    
C16   C37   S    
C62   H25   S    
C55   C60   A    
C36   H16   S    
N1    Ni1   S    
C59   C60   A    
C22   C28   A    
C21   C22   A    
C4    C56   A    
C36   C41   A    
N14   Ni4   S    
S2    O6    S    
N1    N15   A    
C41   C49   A    
C75   N15   A    
C39   C42   A    
C4    C34   A    
C18   H9    S    
C12   H12   S    
C51   C52   A    
C34   H30   S    
C7    N3    A    
N11   Ni4   S    
C63   H27   S    
C2    C67   A    
S1    O1    D    
C39   C40   A    
C13   N8    A    
N16   Ni1   S    
N2    N8    A    
C12   N9    A    
C11   H7    S    
C58   C59   A    
C3    C45   A    
N3    Ni3   S    
C60   C61   A    
N4    Ni4   S    
C15   C19   S    
C75   C76   A    
N11   N13   A    
N6    Ni1   S    
C29   C30   A    
N12   Ni2   S    
C53   C62   A    
C9    N5    A    
C32   H13   S    
C13   H8    S    
C56   H37   S    
C65   C68   A    
C62   C63   A    
C50   C51   A    
C68   H34   S    
C9    C17   A    
C5    C14   A    
S1    O2    D    
C66   C71   A    
C23   N10   A    
N13   Ni1   S    
S2    O5    D    
C40   C41   A    
C14   C54   S    
N10   Ni3   S    
C31   H15   S    
C13   C15   A    
C5    H40   S    
C7    C16   A    
C22   C24   A    
C67   N14   A    
C75   H39   S    
C42   C43   A    
N4    N5    A    
C8    N4    A    
C7    H3    S    
C54   C58   A    
N3    N6    A    
C44   C50   A    
C72   S2    S    
C57   H28   S    
C21   C25   A    
C4    C33   S    
C36   C37   A    
N10   N12   A    
N8    Ni3   S    
C23   H21   S    
C27   C32   A    
C42   H18   S    
C1    C76   A    
C11   N7    A    
C66   H32   S    
S2    O4    D    
C10   N6    A    
S1    O3    S    
C47   C52   A    
C29   C35   A    
C59   C63   A    
C8    C17   A    
N7    Ni4   S    
C58   H29   S    
C32   C33   A    
C55   C57   A    
C25   C26   A    
C24   C31   A    
C71   C72   A    
C10   C16   A    
O3    H41   S    
C49   H24   S    
C3    C53   S    
C50   H20   S    
C30   C31   A    
C48   C49   A    
C38   H17   S    
C52   H22   S    
C33   C35   A    
C10   H6    S    
C64   C72   A    
C69   C70   A    
C69   H35   S    
C73   H31   S    
C2    C51   S    
C35   H14   S    
C20   C21   A    
C27   C28   A    
C8    H4    S    
C1    N1    A    
C6    N2    A    
C9    H5    S    
C54   C57   A    
