data_mof_unit_17508.cif
_audit_creation_date              2012-10-26T19:04:16-0400
_audit_creation_method            fapswitch 2.2
_symmetry_space_group_name_H-M    P1
_symmetry_Int_Tables_number       1
_space_group_crystal_system       triclinic
_cell_length_a                    14.64973
_cell_length_b                    15.932964
_cell_length_c                    9.613986
_cell_angle_alpha                 90.151804
_cell_angle_beta                  89.364805
_cell_angle_gamma                 90.247519
_cell_volume                      2243.86884859

loop_
_atom_site_label
_atom_site_type_symbol
_atom_type_description
_atom_site_fract_x
_atom_site_fract_y
_atom_site_fract_z
_atom_type_partial_charge
C1    C     C_R   0.378129 0.884319 0.500473 0.530933
C2    C     C_R   0.744961 0.196913 0.400005 -0.170351
C3    C     C_R   0.205701 0.270215 0.379509 -0.180888
C4    C     C_R   0.254288 0.688790 0.413360 -0.162216
C5    C     C_R   0.668989 0.800743 0.503116 -0.018407
C6    C     C_R   0.674403 0.195286 0.498659 -0.008008
C7    C     C_R   0.167557 0.299662 0.504035 -0.021674
C8    C     C_R   0.177260 0.692821 0.499656 -0.003330
C9    C     C_R   0.674031 0.976325 0.131741 0.306096
C10   C     C_R   0.174248 0.519516 0.131192 0.307035
C11   C     C_R   0.746866 0.948688 0.044922 -0.151280
C12   C     C_R   0.382836 0.120738 0.501826 0.527337
C13   C     C_R   0.245754 0.551963 0.047560 -0.144649
C14   C     C_R   0.742695 0.956943 0.904121 -0.205912
C15   C     C_R   0.242580 0.544779 0.906234 -0.213080
C16   C     C_R   0.664101 0.985481 0.845633 -0.077809
C17   C     C_R   0.164518 0.514707 0.846124 -0.078111
C18   C     C_R   0.581732 0.991765 0.921729 0.091793
C19   C     C_R   0.081883 0.507017 0.921838 0.091589
C20   C     C_R   0.583794 0.989707 0.071518 0.109481
C21   C     C_R   0.083796 0.508379 0.071647 0.107742
C22   C     C_R   0.421272 0.005910 0.075769 0.364886
C23   C     C_R   0.877336 0.385055 0.500438 0.533958
C24   C     C_R   0.921266 0.492792 0.075983 0.366039
C25   C     C_R   0.614687 0.122045 0.499770 0.541958
C26   C     C_R   0.611396 0.875651 0.500273 0.545681
C27   C     C_R   0.115933 0.621015 0.499858 0.547512
C28   C     C_R   0.110679 0.375186 0.500450 0.545836
C29   C     C_R   0.422145 0.007373 0.927186 -0.008865
C30   C     C_R   0.921885 0.494602 0.927197 -0.008756
C31   C     C_R   0.316950 0.206222 0.768454 -0.109770
C32   C     C_R   0.208389 0.903473 0.663277 -0.110926
C33   C     C_R   0.813971 0.703580 0.769269 -0.110759
C34   C     C_R   0.883045 0.620862 0.501855 0.526755
C35   C     C_R   0.712083 0.400652 0.676798 -0.111854
C36   C     C_R   0.268540 0.222847 0.891013 -0.133696
C37   C     C_R   0.128248 0.910751 0.741838 -0.133498
C38   C     C_R   0.763387 0.718155 0.890543 -0.131528
C39   C     C_R   0.635144 0.405396 0.762991 -0.136015
C40   C     C_R   0.674559 0.747300 0.882136 -0.121402
C41   C     C_R   0.571273 0.340625 0.763885 -0.128764
C42   C     C_R   0.179764 0.252316 0.884943 -0.129630
C43   C     C_R   0.063728 0.846482 0.740845 -0.128539
C44   C     C_R   0.639664 0.769763 0.753502 -0.088493
C45   C     C_R   0.276392 0.213191 0.381373 -0.161264
C46   C     C_R   0.583662 0.270938 0.677944 -0.106507
C47   C     C_R   0.142618 0.272611 0.756830 -0.093255
C48   C     C_R   0.079033 0.774461 0.661488 -0.105373
C49   C     C_R   0.693621 0.762955 0.630687 0.026578
C50   C     C_R   0.661885 0.263833 0.591252 0.025877
C51   C     C_R   0.194389 0.263786 0.632158 0.028111
C52   C     C_R   0.160648 0.764706 0.583230 0.024809
C53   C     C_R   0.276686 0.218313 0.636073 0.023910
C54   C     C_R   0.226275 0.830275 0.584005 0.026553
C55   C     C_R   0.775783 0.717406 0.635921 0.022021
C56   C     C_R   0.318163 0.752464 0.414081 -0.171691
C57   C     C_R   0.727386 0.329585 0.591238 0.028329
C58   C     C_R   0.314105 0.187538 0.507716 -0.013663
C59   C     C_R   0.306213 0.821782 0.501004 -0.000045
C60   C     C_R   0.815010 0.688200 0.507805 -0.013042
C61   C     C_R   0.803910 0.323850 0.500287 0.000562
C62   C     C_3   0.280169 0.948457 0.117984 -0.119665
C63   C     C_3   0.786980 0.420528 0.111601 -0.120678
C64   C     C_3   0.780646 0.983943 0.318581 -0.136822
C65   C     C_3   0.279836 0.458033 0.280637 -0.135067
C66   C     C_R   0.779804 0.716120 0.381120 -0.160257
C67   C     C_R   0.809882 0.259449 0.402348 -0.175074
C68   C     C_R   0.709492 0.773491 0.378917 -0.176070
Cu1   Cu    Cu3+1 0.499990 0.000000 0.640660 0.894046
Cu2   Cu    Cu3+1 0.999990 0.500000 0.640660 0.897123
Cu3   Cu    Cu3+1 0.500010 0.000000 0.359340 1.034461
Cu4   Cu    Cu3+1 0.000010 0.500000 0.359340 1.038188
H1    H     H_    0.302792 0.190545 0.282554 0.160614
H2    H     H_    0.858280 0.492668 0.871525 0.115035
H3    H     H_    0.386712 0.187364 0.781606 0.140340
H4    H     H_    0.254596 0.956519 0.663216 0.134177
H5    H     H_    0.883736 0.685076 0.784216 0.143912
H6    H     H_    0.757186 0.454431 0.674862 0.134591
H7    H     H_    0.299578 0.211448 0.990876 0.118429
H8    H     H_    0.115513 0.967123 0.801982 0.109473
H9    H     H_    0.792818 0.705562 0.991144 0.115698
H10   H     H_    0.624172 0.460344 0.827419 0.110244
H11   H     H_    0.633693 0.755227 0.975739 0.108277
H12   H     H_    0.378588 0.746608 0.348670 0.120573
H13   H     H_    0.510763 0.345226 0.829109 0.109437
H14   H     H_    0.140473 0.261634 0.979742 0.108073
H15   H     H_    0.000850 0.852979 0.800095 0.105395
H16   H     H_    0.688373 0.798041 0.279380 0.135666
H17   H     H_    0.751587 0.148621 0.322061 0.166043
H18   H     H_    0.182555 0.292999 0.279924 0.137344
H19   H     H_    0.266602 0.635117 0.347383 0.157971
H20   H     H_    0.812392 0.929410 0.083653 0.102611
H21   H     H_    0.308951 0.574102 0.091863 0.108004
H22   H     H_    0.569733 0.791037 0.751438 0.147769
H23   H     H_    0.807896 0.694977 0.282442 0.150063
H24   H     H_    0.529783 0.224693 0.677036 0.136129
H25   H     H_    0.072527 0.293512 0.756724 0.148207
H26   H     H_    0.025358 0.727925 0.659850 0.133368
H27   H     H_    0.314782 0.886279 0.119456 0.120072
H28   H     H_    0.246865 0.958791 0.016249 0.093414
H29   H     H_    0.225440 0.946680 0.198632 0.144986
H30   H     H_    0.828630 0.362500 0.099921 0.109036
H31   H     H_    0.749167 0.433532 0.014689 0.097892
H32   H     H_    0.735538 0.408364 0.194782 0.150776
H33   H     H_    0.833720 0.021937 0.263925 0.094833
H34   H     H_    0.866262 0.256566 0.328484 0.124708
H35   H     H_    0.796575 0.916083 0.313652 0.112511
H36   H     H_    0.782062 0.002074 0.430038 0.129111
H37   H     H_    0.337409 0.503458 0.280117 0.087916
H38   H     H_    0.290080 0.408586 0.199948 0.108565
H39   H     H_    0.281962 0.427811 0.384049 0.142698
H40   H     H_    0.802634 0.945148 0.840021 0.121944
H41   H     H_    0.302458 0.558847 0.843230 0.124486
H42   H     H_    0.671789 0.000044 0.738841 0.201010
H43   H     H_    0.172419 0.501148 0.738817 0.203080
H44   H     H_    0.358954 0.015132 0.871721 0.118288
N1    N     N_R   0.501200 0.000000 0.147910 -0.224952
N2    N     N_R   0.001200 0.500000 0.147910 -0.227041
N3    N     N_R   0.501270 1.000000 0.852040 -0.277989
N4    N     N_R   0.001270 0.500000 0.852040 -0.278288
O1    O     O_R   0.409820 0.909830 0.618810 -0.516125
O2    O     O_R   0.590170 0.909830 0.618760 -0.534477
O3    O     O_R   0.090170 0.590170 0.618760 -0.532679
O4    O     O_R   0.090170 0.409830 0.618760 -0.538058
O5    O     O_R   0.590190 0.090180 0.381190 -0.434888
O6    O     O_R   0.590190 0.909820 0.381190 -0.454082
O7    O     O_R   0.090190 0.590180 0.381190 -0.445176
O8    O     O_R   0.090190 0.409820 0.381190 -0.445804
O9    O     O_3   0.340339 0.015075 0.149712 -0.547893
O10   O     O_3   0.839915 0.490794 0.150773 -0.540968
O11   O     O_3   0.692591 0.001452 0.266684 -0.516231
O12   O     O_R   0.409820 0.090170 0.618810 -0.537336
O13   O     O_3   0.194635 0.499159 0.266872 -0.521325
O14   O     O_R   0.909820 0.409830 0.618810 -0.521641
O15   O     O_R   0.909820 0.590170 0.618810 -0.534062
O16   O     O_R   0.409840 0.909830 0.381240 -0.483158
O17   O     O_R   0.409840 0.090170 0.381240 -0.454354
O18   O     O_R   0.909840 0.409830 0.381240 -0.470463
O19   O     O_R   0.909840 0.590170 0.381240 -0.464746
O20   O     O_R   0.590170 0.090170 0.618760 -0.539544

loop_
_geom_bond_atom_site_label_1
_geom_bond_atom_site_label_2
_ccdc_geom_bond_type
C44   C49   A    
C33   C55   A    
C22   N1    A    
C66   C68   A    
C22   C29   A    
C23   O18   A    
C36   C42   A    
C62   O9    S    
C10   O13   S    
C4    C8    A    
C64   H33   S    
Cu3   O17   S    
C14   H40   S    
C29   N3    A    
C63   H30   S    
Cu4   O8    S    
C3    H18   S    
Cu1   O2    S    
C19   C21   A    
C3    C7    A    
C1    C59   S    
C30   H2    S    
C11   C14   A    
C6    C25   S    
C34   O19   A    
C45   H1    S    
C26   O6    A    
C63   O10   S    
Cu1   Cu3   S    
C25   O5    A    
C65   H39   S    
C27   O7    A    
C11   H20   S    
Cu4   O19   S    
Cu2   N4    S    
C41   C46   A    
C15   H41   S    
Cu3   O6    S    
C64   H36   S    
C42   H14   S    
C1    O16   A    
C43   C48   A    
C8    C52   A    
C40   C44   A    
C62   H29   S    
C12   C58   S    
Cu1   O20   S    
Cu4   O18   S    
C60   C66   A    
C10   C13   A    
C55   C60   A    
C4    C56   A    
C34   C60   S    
C40   H11   S    
C5    C49   A    
C2    C6    A    
C5    C68   A    
Cu2   O3    S    
C32   C54   A    
C20   N1    A    
C52   C54   A    
C56   H12   S    
C1    O1    A    
C54   C59   A    
C9    O11   S    
C10   C21   A    
C37   H8    S    
C45   C58   A    
Cu3   N1    S    
Cu4   O7    S    
C25   O20   A    
C39   C41   A    
C2    C67   A    
Cu3   O16   S    
C27   O3    A    
C47   C51   A    
C49   C55   A    
C3    C45   A    
C31   C53   A    
C7    C28   S    
C62   H27   S    
C13   H21   S    
C51   C53   A    
C37   C43   A    
C2    H17   S    
C35   C39   A    
C21   N2    A    
Cu2   O4    S    
C61   C67   A    
C9    C20   A    
C31   H3    S    
C64   O11   S    
Cu1   O1    S    
C32   C37   A    
C6    C50   A    
C9    C11   A    
C65   H37   S    
C62   H28   S    
C63   H31   S    
C29   H44   S    
C19   N4    A    
C13   C15   A    
C38   H9    S    
Cu2   O15   S    
C68   H16   S    
C14   C16   A    
C48   H26   S    
C17   H43   S    
C64   H35   S    
C23   C61   S    
C15   C17   A    
C12   O12   A    
C23   O14   A    
C12   O17   A    
C50   C57   A    
C39   H10   S    
C63   H32   S    
C36   H7    S    
C16   H42   S    
C32   H4    S    
C53   C58   A    
C28   O4    A    
C67   H34   S    
C57   C61   A    
C41   H13   S    
C46   C50   A    
C35   H6    S    
C24   N2    A    
C33   C38   A    
C47   H25   S    
C56   C59   A    
C35   C57   A    
C43   H15   S    
C4    H19   S    
C7    C51   A    
C22   O9    S    
C38   C40   A    
C33   H5    S    
C30   N4    A    
C34   O15   A    
Cu1   O12   S    
C17   C19   A    
Cu1   N3    S    
C18   C20   A    
C42   C47   A    
C24   C30   A    
C65   H38   S    
C44   H22   S    
C5    C26   S    
C24   O10   S    
C48   C52   A    
C46   H24   S    
C16   C18   A    
Cu4   N2    S    
Cu2   O14   S    
C8    C27   S    
C31   C36   A    
Cu3   O5    S    
Cu2   Cu4   S    
C26   O2    A    
C18   N3    A    
C65   O13   S    
C28   O8    A    
C66   H23   S    
