data_mof_unit_41912.cif
_audit_creation_date              2013-03-05T16:24:10-0500
_audit_creation_method            fapswitch 2.2
_symmetry_space_group_name_H-M    P1
_symmetry_Int_Tables_number       1
_space_group_crystal_system       triclinic
_cell_length_a                    15.134112
_cell_length_b                    13.825763
_cell_length_c                    27.80431
_cell_angle_alpha                 89.932215
_cell_angle_beta                  90.207971
_cell_angle_gamma                 90.097252
_cell_volume                      5817.74104306

loop_
_atom_site_label
_atom_site_type_symbol
_atom_site_description
_atom_site_fract_x
_atom_site_fract_y
_atom_site_fract_z
_atom_type_partial_charge
O1    O     O_R   0.371460 0.581430 0.500000 -0.583316
O2    O     O_R   0.628540 0.418570 0.500000 -0.592894
O3    O     O_R   0.628540 0.581430 0.500000 -0.585349
O4    O     O_R   0.371460 0.418570 0.500000 -0.596463
C1    C     C_R   0.329939 0.499919 0.500077 0.782273
C2    C     C_R   0.670239 0.500038 0.500303 0.789306
O5    O     O_R   0.500020 0.581430 0.430260 -0.590804
O6    O     O_R   0.499980 0.418570 0.569740 -0.568502
O7    O     O_R   0.499980 0.581430 0.569740 -0.591657
O8    O     O_R   0.500020 0.418570 0.430260 -0.568683
C3    C     C_R   0.501221 0.499928 0.407393 0.815681
C4    C     C_R   0.497938 0.499804 0.592760 0.811523
Cu1   Cu    Cu3+1 0.500000 0.596430 0.500000 0.937338
Cu2   Cu    Cu3+1 0.500000 0.403570 0.500000 0.952270
C5    C     C_R   0.425886 0.475084 0.177727 0.551210
C6    C     C_R   0.573873 0.519793 0.822569 0.547536
O9    O     O_2   0.355396 0.443167 0.202788 -0.569385
O10   O     O_2   0.649497 0.524691 0.797100 -0.562567
N1    N     N_R   0.498193 0.510343 0.201619 -0.451529
N2    N     N_R   0.494352 0.515554 0.799081 -0.454815
C7    C     C_R   0.570583 0.543910 0.177452 0.528201
C8    C     C_R   0.416445 0.510536 0.823779 0.529163
C9    C     C_R   0.541148 0.429160 0.276861 -0.025165
C10   C     C_R   0.474645 0.422092 0.724410 -0.023325
C11   C     C_R   0.542226 0.424954 0.327544 -0.089559
C12   C     C_R   0.473541 0.416696 0.673619 -0.086528
C13   C     C_R   0.461344 0.577153 0.330193 -0.283784
C14   C     C_R   0.512785 0.587675 0.669875 -0.281637
C15   C     C_R   0.459454 0.581243 0.280039 0.031014
C16   C     C_R   0.511143 0.594197 0.719941 0.033237
C17   C     C_R   0.499992 0.507416 0.253253 0.281496
C18   C     C_R   0.492888 0.510963 0.747397 0.274007
C19   C     C_R   0.499024 0.504990 0.101732 -0.047091
C20   C     C_R   0.498039 0.509216 0.899008 -0.048659
C21   C     C_R   0.425296 0.470788 0.127292 -0.034466
C22   C     C_R   0.577138 0.517522 0.873026 -0.037421
C23   C     C_R   0.354800 0.428567 0.102287 -0.198415
C24   C     C_R   0.657820 0.518621 0.897655 -0.197723
C25   C     C_R   0.571938 0.543027 0.127056 -0.007498
C26   C     C_R   0.416813 0.506247 0.874136 -0.007739
C27   C     C_R   0.502276 0.500147 0.354343 -0.100757
C28   C     C_R   0.494411 0.500340 0.646091 -0.106231
C29   C     C_R   0.420435 0.486101 0.975233 0.036797
C30   C     C_R   0.577082 0.529767 0.025606 0.037458
C31   C     C_R   0.580944 0.516122 0.974929 -0.016934
C32   C     C_R   0.423874 0.469487 0.025600 -0.017699
C33   C     C_R   0.499951 0.503685 0.949826 0.056268
C34   C     C_R   0.499999 0.501189 0.050880 0.057239
C35   C     C_R   0.339742 0.490624 0.949789 -0.199145
C36   C     C_R   0.645558 0.575456 0.051651 -0.199931
C37   C     C_R   0.337983 0.499656 0.900021 -0.162085
C38   C     C_R   0.643836 0.580297 0.101567 -0.165784
O11   O     O_2   0.339006 0.509075 0.799561 -0.569975
O12   O     O_2   0.641059 0.577574 0.202203 -0.574317
C39   C     C_R   0.354469 0.423918 0.051950 -0.018935
C40   C     C_R   0.661263 0.515654 0.948001 -0.018817
H1    H     H_    0.274487 0.500967 0.881925 0.183625
H2    H     H_    0.698934 0.614028 0.120067 0.182496
H3    H     H_    0.276960 0.490263 0.968104 0.159420
H4    H     H_    0.699932 0.610933 0.033871 0.161529
C41   C     C_R   0.095369 0.578019 0.481284 -0.170384
C42   C     C_R   0.904898 0.413538 0.493669 -0.176506
C43   C     C_R   0.905248 0.585957 0.509722 -0.169955
C44   C     C_R   0.096033 0.421595 0.521003 -0.169043
H5    H     H_    0.060794 0.638336 0.465034 0.124383
H6    H     H_    0.939014 0.346277 0.486654 0.121517
H7    H     H_    0.939723 0.653068 0.517016 0.124697
H8    H     H_    0.062022 0.361253 0.537558 0.123392
C45   C     C_R   0.187177 0.578397 0.481254 -0.186129
C46   C     C_R   0.813120 0.413492 0.493947 -0.200645
C47   C     C_R   0.813422 0.586221 0.509016 -0.186854
C48   C     C_R   0.187834 0.421154 0.520072 -0.198439
C49   C     C_R   0.233726 0.499764 0.500423 -0.020019
C50   C     C_R   0.766797 0.499990 0.501021 -0.026190
C51   C     C_R   0.048980 0.499831 0.501381 0.107411
C52   C     C_R   0.951791 0.499755 0.501647 0.111120
C53   C     C_R   0.571104 0.107856 0.519546 -0.298236
C54   C     C_R   0.457777 0.892097 0.463059 -0.288662
C55   C     C_R   0.430079 0.107662 0.479300 -0.307921
C56   C     C_R   0.542829 0.892436 0.536381 -0.290186
H9    H     H_    0.628003 0.071670 0.534792 0.122161
H10   H     H_    0.425382 0.928255 0.433334 0.125150
H11   H     H_    0.373319 0.071311 0.463922 0.127650
H12   H     H_    0.575316 0.928891 0.565983 0.122775
C57   C     C_R   0.569154 0.209449 0.519807 0.114772
C58   C     C_R   0.457813 0.790457 0.464128 0.087784
C59   C     C_R   0.431402 0.209273 0.479646 0.093732
C60   C     C_R   0.542351 0.790768 0.535708 0.081880
H13   H     H_    0.623409 0.248739 0.535995 0.113274
H14   H     H_    0.424177 0.750911 0.435939 0.112782
H15   H     H_    0.377015 0.248466 0.463605 0.118715
H16   H     H_    0.575864 0.751471 0.564029 0.112660
N3    N     N_R   0.500000 0.258690 0.500000 -0.160451
N4    N     N_R   0.500000 0.741310 0.500000 -0.168717
C61   C     C_R   0.500629 0.054656 0.499402 0.125023
C62   C     C_R   0.500469 0.945383 0.499593 0.129752
H17   H     H_    0.429621 0.634186 0.350531 0.153118
H18   H     H_    0.528085 0.652212 0.649325 0.159972
H19   H     H_    0.221752 0.639315 0.465513 0.139565
H20   H     H_    0.778497 0.345881 0.488259 0.143761
H21   H     H_    0.779041 0.653698 0.515203 0.147449
H22   H     H_    0.222948 0.360246 0.535436 0.136712
C63   C     C_R   0.412607 0.661944 0.256169 0.119036
C64   C     C_R   0.321016 0.672444 0.262087 -0.119159
C65   C     C_R   0.276174 0.748113 0.239272 -0.140078
C66   C     C_R   0.322489 0.813972 0.210658 -0.108849
C67   C     C_R   0.413782 0.804493 0.204981 -0.144932
C68   C     C_R   0.458853 0.728954 0.227756 -0.150165
H23   H     H_    0.284365 0.621583 0.284001 0.135370
H24   H     H_    0.205507 0.755640 0.243740 0.128675
H25   H     H_    0.287693 0.872510 0.193016 0.124470
H26   H     H_    0.449682 0.855881 0.183059 0.130303
H27   H     H_    0.529700 0.723381 0.223608 0.164494
C69   C     C_R   0.529050 0.688977 0.742891 0.130511
C70   C     C_R   0.608458 0.738231 0.733506 -0.114807
C71   C     C_R   0.625167 0.828118 0.754719 -0.142162
C72   C     C_R   0.562671 0.869713 0.785214 -0.106732
C73   C     C_R   0.483281 0.821551 0.794475 -0.141903
C74   C     C_R   0.466289 0.731687 0.773318 -0.151240
H28   H     H_    0.657565 0.706728 0.710032 0.131145
H29   H     H_    0.686566 0.865565 0.747482 0.125486
H30   H     H_    0.575608 0.939397 0.801526 0.120711
H31   H     H_    0.434672 0.854113 0.817851 0.127703
H32   H     H_    0.403806 0.696196 0.780153 0.157860
H33   H     H_    0.301531 0.394598 0.122094 0.183779
H34   H     H_    0.719103 0.518331 0.877578 0.187172
C75   C     C_R   0.449107 0.323822 0.650287 0.144984
C76   C     C_R   0.506838 0.244476 0.652339 -0.129208
C77   C     C_R   0.482419 0.156208 0.631676 -0.137299
C78   C     C_R   0.400659 0.146812 0.608604 -0.088702
C79   C     C_R   0.343080 0.225619 0.606217 -0.137145
C80   C     C_R   0.366911 0.313837 0.627156 -0.119882
H35   H     H_    0.570360 0.251008 0.670112 0.121056
H36   H     H_    0.527020 0.095171 0.633355 0.123495
H37   H     H_    0.382068 0.078540 0.592432 0.130852
H38   H     H_    0.279858 0.218191 0.588286 0.113518
H39   H     H_    0.321561 0.374276 0.625416 0.111889
C81   C     C_R   0.585512 0.342108 0.351853 0.144461
C82   C     C_R   0.540851 0.253435 0.356117 -0.109155
C83   C     C_R   0.581377 0.175391 0.379332 -0.119716
C84   C     C_R   0.666844 0.185203 0.397928 -0.105929
C85   C     C_R   0.711924 0.273053 0.393302 -0.139511
C86   C     C_R   0.671238 0.351677 0.370654 -0.134950
H40   H     H_    0.474633 0.245175 0.341777 0.115303
H41   H     H_    0.546559 0.107325 0.382919 0.128982
H42   H     H_    0.698201 0.124679 0.415819 0.122239
H43   H     H_    0.778506 0.280105 0.407152 0.121588
H44   H     H_    0.706490 0.419616 0.367485 0.117017
C87   C     C_R   0.456764 0.334834 0.754030 0.117598
C88   C     C_R   0.371483 0.294791 0.755645 -0.071321
C89   C     C_R   0.354917 0.212737 0.783655 -0.135500
C90   C     C_R   0.423246 0.170237 0.810178 -0.114871
C91   C     C_R   0.508267 0.209737 0.808725 -0.144186
C92   C     C_R   0.525116 0.291742 0.780734 -0.167573
H45   H     H_    0.317993 0.327371 0.735382 0.138278
H46   H     H_    0.289092 0.182135 0.784830 0.126550
H47   H     H_    0.410336 0.106676 0.831823 0.117607
H48   H     H_    0.561154 0.176694 0.829220 0.127346
H49   H     H_    0.591350 0.321386 0.779655 0.152314
C93   C     C_R   0.583482 0.352150 0.248077 0.113628
C94   C     C_R   0.675716 0.349832 0.243270 -0.090532
C95   C     C_R   0.715599 0.277881 0.215568 -0.139144
C96   C     C_R   0.663662 0.207953 0.192630 -0.111458
C97   C     C_R   0.571766 0.209732 0.197469 -0.140410
C98   C     C_R   0.531667 0.281523 0.225176 -0.155471
H50   H     H_    0.716447 0.403936 0.260761 0.141442
H51   H     H_    0.786738 0.276412 0.211820 0.128121
H52   H     H_    0.694624 0.152350 0.171152 0.122869
H53   H     H_    0.531625 0.155458 0.179771 0.129374
H54   H     H_    0.460473 0.282055 0.228858 0.156615
C99   C     C_R   0.289270 0.357343 0.029217 0.104579
C100  C     C_R   0.317958 0.284606 0.997566 -0.119569
C101  C     C_R   0.257037 0.221488 0.976371 -0.137220
C102  C     C_R   0.167206 0.229523 0.986983 -0.105263
C103  C     C_R   0.138128 0.300665 0.018834 -0.132005
C104  C     C_R   0.198722 0.364417 0.039919 -0.180890
H55   H     H_    0.387474 0.276825 0.989316 0.127329
H56   H     H_    0.279541 0.166089 0.951841 0.124780
H57   H     H_    0.120143 0.180405 0.970651 0.122003
H58   H     H_    0.068577 0.306236 0.027208 0.122374
H59   H     H_    0.175026 0.419691 0.064216 0.127917
C105  C     C_R   0.749442 0.498314 0.970015 0.100135
C106  C     C_R   0.763005 0.418997 0.000878 -0.118651
C107  C     C_R   0.845758 0.403752 0.022078 -0.140175
C108  C     C_R   0.915665 0.466902 0.012351 -0.111922
C109  C     C_R   0.903199 0.544939 0.981110 -0.125484
C110  C     C_R   0.820587 0.560563 0.959860 -0.176442
H60   H     H_    0.709389 0.369507 0.008723 0.127523
H61   H     H_    0.855648 0.343088 0.046130 0.124081
H62   H     H_    0.979492 0.455531 0.029039 0.117505
H63   H     H_    0.957481 0.593628 0.973531 0.128889
H64   H     H_    0.811646 0.621982 0.936131 0.132283

loop_
_geom_bond_atom_site_label_1
_geom_bond_atom_site_label_2
_geom_bond_distance
_ccdc_geom_bond_type
C100  H55   1.083152 S    
C55   H11   1.081539 S    
C65   H24   1.082323 S    
C59   H15   1.080881 S    
C54   H10   1.081782 S    
C13   C15   1.395751 A    
C67   H26   1.082406 S    
C65   C66   1.397689 A    
C61   C62   1.510777 S    
C51   C52   1.470913 S    
O3    C2    1.291118 A    
N1    C17   1.436322 S    
C76   C77   1.398042 A    
C55   C59   1.405002 A    
C69   C70   1.405402 A    
C108  H62   1.081766 S    
C74   H32   1.081943 S    
C41   C51   1.404473 A    
O5    C3    1.294674 A    
C15   C63   1.478369 S    
C19   C25   1.408315 A    
C40   C105  1.485884 S    
O1    C1    1.289378 A    
C44   H8    1.082686 S    
C97   C98   1.397924 A    
N1    C7    1.367493 A    
C10   C12   1.414323 A    
C77   C78   1.397632 A    
C81   C86   1.403070 A    
C16   C69   1.482339 S    
C64   H23   1.083290 S    
C102  C103  1.397046 A    
C66   C67   1.397589 A    
C41   C45   1.389443 A    
C70   C71   1.398515 A    
C91   H48   1.082315 S    
C107  C108  1.397542 A    
C42   C46   1.389029 A    
C5    C21   1.403625 A    
C109  H63   1.082358 S    
O7    Cu1   1.949888 S    
C105  C106  1.406534 A    
C4    C28   1.484010 S    
C58   N4    1.363605 A    
C75   C80   1.404979 A    
C57   N3    1.363625 A    
C60   H16   1.081437 S    
C31   C40   1.429973 A    
C54   C62   1.409775 A    
C105  C110  1.406500 A    
C35   C37   1.389417 A    
C32   C39   1.428023 A    
C46   C50   1.401695 A    
C36   C38   1.389919 A    
C89   C90   1.397837 A    
C45   C49   1.400277 A    
C63   C68   1.404425 A    
C37   H1    1.083255 S    
O6    C4    1.293823 A    
C56   C62   1.410012 A    
Cu2   N3    2.003075 S    
C23   H33   1.084034 S    
C94   H50   1.083135 S    
O3    Cu1   1.956712 S    
C56   H12   1.081868 S    
C73   H31   1.082404 S    
C54   C58   1.405531 A    
C44   C48   1.389681 A    
C25   C38   1.398065 A    
C47   H21   1.083217 S    
O8    C3    1.291569 A    
C53   C57   1.405001 A    
C87   C92   1.404194 A    
Cu1   Cu2   2.666438 S    
C73   C74   1.398339 A    
O4    Cu2   1.956712 S    
C42   C52   1.403692 A    
C97   H53   1.082329 S    
O2    C2    1.290192 A    
C76   H35   1.083021 S    
C39   C99   1.488019 S    
C64   C65   1.398262 A    
C24   H34   1.084255 S    
C46   H20   1.082340 S    
C2    C50   1.461379 S    
C8    O11   1.349660 S    
C60   N4    1.363679 A    
C66   H25   1.082393 S    
C31   C33   1.418667 A    
C86   H44   1.083109 S    
C43   H7    1.082722 S    
C71   H29   1.082337 S    
C42   H6    1.082681 S    
C83   C84   1.397679 A    
C48   C49   1.400314 A    
C79   H38   1.082085 S    
O8    Cu2   1.949891 S    
C11   C27   1.417315 A    
C57   H13   1.080852 S    
C29   C35   1.410538 A    
C80   H39   1.083173 S    
C101  C102  1.396839 A    
C53   C61   1.409346 A    
C95   H51   1.082268 S    
C9    C17   1.409635 A    
C68   H27   1.081694 S    
C104  H59   1.083017 S    
C5    N1    1.367524 A    
C72   H30   1.082596 S    
C10   C18   1.412042 A    
C106  C107  1.398428 A    
C55   C61   1.409543 A    
C82   H40   1.083113 S    
C13   C27   1.402034 A    
C78   C79   1.397693 A    
C103  C104  1.398623 A    
C7    C25   1.401499 A    
C53   H9    1.081576 S    
C6    N2    1.368365 A    
C8    C26   1.401301 A    
C9    C93   1.480777 S    
C89   H46   1.082257 S    
C99   C100  1.407337 A    
C110  H64   1.083091 S    
C38   H2    1.083302 S    
C84   H42   1.082377 S    
C45   H19   1.083512 S    
C6    O10   1.349620 S    
C78   H37   1.082365 S    
C43   C47   1.389792 A    
C88   H45   1.083039 S    
C84   C85   1.398103 A    
C58   H14   1.081449 S    
C20   C26   1.408827 A    
O1    Cu1   1.956012 S    
C67   C68   1.398108 A    
C75   C76   1.404563 A    
C92   H49   1.082806 S    
C100  C101  1.397657 A    
C12   C28   1.421751 A    
C95   C96   1.398042 A    
N2    C18   1.438597 S    
C14   H18   1.084094 S    
C98   H54   1.082720 S    
C5    O9    1.349596 S    
C90   H47   1.082434 S    
C13   H17   1.084601 S    
O6    Cu2   1.950376 S    
C14   C28   1.404296 A    
C21   C23   1.398509 A    
O7    C4    1.297132 A    
C85   H43   1.081713 S    
C30   C31   1.423258 A    
C69   C74   1.405529 A    
N2    C8    1.368242 A    
O4    C1    1.289284 A    
C83   H41   1.082439 S    
C47   C50   1.401898 A    
C82   C83   1.398156 A    
C103  H58   1.081762 S    
C26   C37   1.398328 A    
C99   C104  1.406932 A    
C72   C73   1.397290 A    
C35   H3    1.079639 S    
Cu1   N4    2.003075 S    
C36   H4    1.078499 S    
C93   C94   1.403170 A    
C93   C98   1.403251 A    
C11   C81   1.481719 S    
C109  C110  1.397907 A    
C10   C87   1.484948 S    
C56   C60   1.405796 A    
C30   C34   1.419360 A    
C94   C95   1.397987 A    
C87   C88   1.404365 A    
C6    C22   1.403934 A    
C22   C24   1.397859 A    
C16   C18   1.407741 A    
C108  C109  1.396939 A    
C7    O12   1.349664 S    
C48   H22   1.083081 S    
C101  H56   1.082408 S    
C59   N3    1.363497 A    
C14   C16   1.395396 A    
C19   C21   1.406016 A    
C44   C51   1.404684 A    
C71   C72   1.397508 A    
C96   H52   1.082375 S    
C20   C22   1.404892 A    
C12   C75   1.484920 S    
C9    C11   1.410362 A    
C1    C49   1.456160 S    
O2    Cu2   1.956012 S    
C29   C32   1.419663 A    
C96   C97   1.397999 A    
C81   C82   1.404031 A    
C77   H36   1.082385 S    
C23   C39   1.401119 A    
C32   C34   1.416550 A    
C41   H5    1.082699 S    
O5    Cu1   1.950379 S    
C24   C40   1.401177 A    
C90   C91   1.397667 A    
C30   C36   1.410955 A    
C15   C17   1.407186 A    
C70   H28   1.083206 S    
C43   C52   1.404143 A    
C3    C27   1.475149 S    
C63   C64   1.404258 A    
C19   C34   1.415059 A    
C85   C86   1.398297 A    
C20   C33   1.415111 A    
C91   C92   1.398048 A    
C106  H60   1.083154 S    
C29   C33   1.418123 A    
C102  H57   1.082339 S    
C107  H61   1.082351 S    
C79   C80   1.398329 A    
C88   C89   1.398117 A    
