data_mof_unit_67518.cif
_audit_creation_date              2012-12-10T16:47:26-0500
_audit_creation_method            fapswitch 2.2
_symmetry_space_group_name_H-M    P1
_symmetry_Int_Tables_number       1
_space_group_crystal_system       triclinic
_cell_length_a                    10.735401
_cell_length_b                    8.860415
_cell_length_c                    7.448795
_cell_angle_alpha                 101.594337
_cell_angle_beta                  93.903046
_cell_angle_gamma                 89.534325
_cell_volume                      692.451744063

loop_
_atom_site_label
_atom_site_type_symbol
_atom_type_description
_atom_site_fract_x
_atom_site_fract_y
_atom_site_fract_z
_atom_type_partial_charge
C1    C     C_R   0.501927 0.200634 0.454684 0.872633
C2    C     C_R   0.508161 0.799192 0.544714 0.876951
C3    C     C_R   0.259282 0.501205 0.503639 0.778642
C4    C     C_R   0.739756 0.504775 0.497011 0.775946
C5    C     C_3   0.039598 0.430556 0.630406 0.097041
C6    C     C_3   0.954303 0.583125 0.368916 0.117757
C7    C     C_3   0.955091 0.362950 0.457200 0.134067
C8    C     C_3   0.041229 0.652962 0.538110 0.103451
C9    C     C_3   0.875242 0.507643 0.490131 -0.051477
C10   C     C_3   0.122103 0.506894 0.510937 -0.066018
C11   C     C_3   0.959447 0.579118 0.661920 -0.282507
C12   C     C_3   0.037692 0.439371 0.338028 -0.249785
C13   C     C_2   0.508786 0.034327 0.428093 -0.388171
C14   C     C_2   0.518332 0.965079 0.570425 -0.383072
Cu1   Cu    Cu3+1 0.514140 0.517380 0.684380 0.920858
Cu2   Cu    Cu3+1 0.485860 0.482620 0.315620 0.921887
H1    H     H_    0.926644 0.639505 0.794740 0.150995
H2    H     H_    0.074563 0.394392 0.203645 0.165277
H3    H     H_    0.443240 0.351670 0.955141 0.237432
H4    H     H_    0.555896 0.647464 0.046931 0.238862
H5    H     H_    0.499032 0.967540 0.288394 0.179001
H6    H     H_    0.527752 0.031851 0.710186 0.173629
N1    N     N_2   0.464560 0.456420 0.038510 -0.238629
N2    N     N_2   0.535440 0.543580 0.961490 -0.236541
O1    O     O_R   0.509190 0.286130 0.619780 -0.590711
O2    O     O_R   0.490810 0.713870 0.380220 -0.601455
O3    O     O_R   0.485310 0.256770 0.308360 -0.593807
O4    O     O_R   0.514690 0.743230 0.691640 -0.594796
O5    O     O_R   0.328790 0.514640 0.655680 -0.594256
O6    O     O_R   0.671210 0.485360 0.344320 -0.587206
O7    O     O_R   0.304910 0.485280 0.344260 -0.593182
O8    O     O_R   0.695090 0.514720 0.655740 -0.594112
C15   C     C_3   0.900946 0.199406 0.391057 -0.392568
C16   C     C_3   0.946535 0.123040 0.203515 -0.341116
C17   C     C_3   0.864136 0.162867 0.044079 -0.793981
H7    H     H_    0.764333 0.139617 0.058229 0.258011
H8    H     H_    0.873580 0.285696 0.040145 0.248387
H9    H     H_    0.892092 0.093057 0.912256 0.211032
H10   H     H_    0.045000 0.150662 0.192348 0.213579
H11   H     H_    0.951295 0.998743 0.191938 0.217763
H12   H     H_    0.927626 0.126469 0.491188 0.143965
H13   H     H_    0.797344 0.202373 0.384409 0.199171
C18   C     C_3   0.091627 0.817714 0.583518 -0.427312
C19   C     C_3   0.161048 0.853701 0.423504 -0.336605
C20   C     C_3   0.211496 0.016495 0.464940 -0.885477
H14   H     H_    0.135453 0.099755 0.495591 0.267312
H15   H     H_    0.279705 0.030476 0.584911 0.275676
H16   H     H_    0.256604 0.040261 0.343805 0.244682
H17   H     H_    0.240021 0.773744 0.393110 0.242772
H18   H     H_    0.098058 0.841746 0.298681 0.214697
H19   H     H_    0.012285 0.898203 0.612316 0.184134
H20   H     H_    0.156103 0.831131 0.708893 0.201764
C21   C     C_3   0.062707 0.345108 0.790607 -0.447078
C22   C     C_3   0.199732 0.314805 0.837487 -0.307451
C23   C     C_3   0.220820 0.185318 0.945099 -0.881883
H21   H     H_    0.148582 0.093717 0.905195 0.254948
H22   H     H_    0.312842 0.130836 0.916988 0.234056
H23   H     H_    0.223526 0.231633 0.094612 0.260716
H24   H     H_    0.248439 0.281683 0.710105 0.235748
H25   H     H_    0.240009 0.423716 0.919565 0.246346
H26   H     H_    0.023312 0.414947 0.913442 0.186245
H27   H     H_    0.010639 0.235285 0.758015 0.201159
C24   C     C_3   0.901913 0.637795 0.196252 -0.428103
C25   C     C_3   0.806324 0.767014 0.231868 -0.352439
C26   C     C_3   0.761710 0.811847 0.050021 -0.855025
H28   H     H_    0.838692 0.854279 0.982564 0.246623
H29   H     H_    0.727096 0.710099 0.949166 0.278320
H30   H     H_    0.686279 0.898524 0.072369 0.243359
H31   H     H_    0.723985 0.730122 0.292347 0.241531
H32   H     H_    0.845362 0.866023 0.334231 0.211173
H33   H     H_    0.979668 0.671353 0.121835 0.176471
H34   H     H_    0.854522 0.538732 0.103036 0.210698

loop_
_geom_bond_atom_site_label_1
_geom_bond_atom_site_label_2
_ccdc_geom_bond_type
C6    C24   S    
C19   H17   S    
H3    N1    S    
N1    N2    D    
C21   C22   S    
C16   C17   S    
C25   H32   S    
C7    C15   S    
C21   H27   S    
C17   H7    S    
C8    C18   S    
C18   C19   S    
C26   H30   S    
C15   H12   S    
C25   C26   S    
C14   H6    S    
Cu2   O3    S    
C20   H15   S    
C15   C16   S    
C13   H5    S    
Cu1   O8    S    
C2    O2    A    
C3    C10   S    
C22   H25   S    
C20   H14   S    
C24   H34   S    
Cu2   O7    S    
C1    O1    A    
C9    C11   S    
C18   H19   S    
Cu1   O4    S    
C4    O8    A    
C10   C12   S    
C6    C9    S    
C8    C11   S    
C16   H11   S    
C15   H13   S    
C5    C21   S    
Cu1   N2    S    
C17   H8    S    
C24   H33   S    
Cu1   O5    S    
Cu2   N1    S    
C5    C7    S    
C22   H24   S    
C23   H22   S    
C5    C11   S    
C6    C12   S    
C7    C12   S    
C2    C14   S    
C3    O7    A    
C18   H20   S    
Cu1   O1    S    
C1    O3    A    
C1    C13   S    
C2    O4    A    
C23   H21   S    
Cu2   O6    S    
Cu1   Cu2   S    
C7    C9    S    
C5    C10   S    
C17   H9    S    
C19   C20   S    
C8    C10   S    
C26   H28   S    
C20   H16   S    
C19   H18   S    
C3    O5    A    
C23   H23   S    
C22   C23   S    
C11   H1    S    
C6    C8    S    
C13   C14   D    
C4    C9    S    
C25   H31   S    
C21   H26   S    
C16   H10   S    
H4    N2    S    
C4    O6    A    
C24   C25   S    
C26   H29   S    
Cu2   O2    S    
C12   H2    S    
