data_mof_unit_27240.cif
_audit_creation_date              2013-03-05T15:50:34-0500
_audit_creation_method            fapswitch 2.2
_symmetry_space_group_name_H-M    P1
_symmetry_Int_Tables_number       1
_space_group_crystal_system       triclinic
_cell_length_a                    9.597144
_cell_length_b                    10.852896
_cell_length_c                    13.478752
_cell_angle_alpha                 92.401057
_cell_angle_beta                  73.407573
_cell_angle_gamma                 89.023347
_cell_volume                      1343.64740731

loop_
_atom_site_label
_atom_site_type_symbol
_atom_site_description
_atom_site_fract_x
_atom_site_fract_y
_atom_site_fract_z
_atom_type_partial_charge
O1    O     O_R   0.381190 0.680360 0.500010 -0.596138
O2    O     O_R   0.618760 0.680340 0.500000 -0.548996
C1    C     C_R   0.499249 0.737857 0.495365 0.811958
O3    O     O_R   0.323240 0.499990 0.650990 -0.585929
O4    O     O_R   0.560820 0.499960 0.650980 -0.586000
C2    C     C_R   0.422781 0.504741 0.699728 0.778247
Cu1   Cu    Cu3+1 0.359340 0.500010 0.500010 0.977128
Cu2   Cu    Cu3+1 0.640660 0.499990 0.499990 1.001658
O5    O     O_R   0.381240 0.319660 0.500000 -0.617501
O6    O     O_R   0.618810 0.319640 0.499990 -0.609227
O7    O     O_R   0.439180 0.500040 0.349020 -0.560717
O8    O     O_R   0.676760 0.500010 0.349010 -0.558834
C3    C     C_R   0.497433 0.263346 0.507937 0.772067
C4    C     C_R   0.576580 0.511874 0.301511 0.829138
C5    C     C_R   0.791961 0.590779 0.029164 -0.239797
H1    H     H_    0.809918 0.661358 0.838398 0.145647
H2    H     H_    0.899502 0.620338 0.987856 0.177931
C6    C     C_R   0.617177 0.538387 0.190389 -0.270205
C7    C     C_R   0.254557 0.437482 0.861344 -0.210696
C8    C     C_R   0.228984 0.402940 0.962796 -0.085614
C9    C     C_R   0.325381 0.434810 0.018786 -0.068177
C10   C     C_R   0.445023 0.509011 0.976406 0.089601
C11   C     C_R   0.474388 0.541154 0.871911 0.086527
C12   C     C_R   0.544392 0.541670 0.032419 -0.029558
C13   C     C_R   0.683772 0.581153 0.978654 0.069944
C14   C     C_R   0.708756 0.619126 0.877722 -0.153689
C15   C     C_R   0.600052 0.608755 0.828509 -0.166372
C16   C     C_R   0.505888 0.544589 0.140952 0.196626
C17   C     C_R   0.761502 0.565044 0.133899 0.292210
C18   C     C_R   0.380172 0.501082 0.813286 -0.103206
H3    H     H_    0.181879 0.405549 0.817888 0.176422
H4    H     H_    0.310104 0.394672 0.092901 0.168285
H5    H     H_    0.137406 0.346257 0.996697 0.166625
H6    H     H_    0.617546 0.651977 0.755583 0.161294
H7    H     H_    0.726003 0.883876 0.451056 0.245768
C19   C     C_R   0.227053 0.894260 0.505649 -0.206939
H8    H     H_    0.223872 0.808276 0.463893 0.235975
C20   C     C_R   0.094278 0.959706 0.544534 0.289965
C21   C     C_R   0.091759 0.078449 0.591512 -0.061143
C22   C     C_R   0.224323 0.130294 0.592260 -0.198314
H9    H     H_    0.221585 0.220028 0.630901 0.206425
C23   C     C_R   0.358920 0.068701 0.542536 0.053772
C24   C     C_R   0.359312 0.942874 0.513622 0.035678
C25   C     C_R   0.492971 0.872972 0.491352 -0.104549
C26   C     C_R   0.623571 0.934505 0.474771 -0.103887
H10   H     H_    0.727974 0.106378 0.464031 0.162896
C27   C     C_R   0.624250 0.061615 0.484150 -0.198490
C28   C     C_R   0.493052 0.129876 0.517088 -0.089671
H11   H     H_    0.823154 0.643847 0.613719 0.152154
C29   C     C_R   0.912475 0.332732 0.365090 -0.115678
H12   H     H_    0.805961 0.328091 0.356937 0.189469
C30   C     C_R   0.011633 0.248712 0.300554 -0.181368
H13   H     H_    0.976998 0.185008 0.248907 0.163847
C31   C     C_R   0.155063 0.247528 0.300973 -0.197080
H14   H     H_    0.232761 0.183217 0.249328 0.162093
C32   C     C_R   0.200289 0.330565 0.365738 -0.084198
H15   H     H_    0.313936 0.325486 0.356044 0.189385
C33   C     C_R   0.102421 0.416484 0.434406 0.263630
C34   C     C_R   0.952951 0.417120 0.434106 0.236450
N1    N     N_R   0.852480 0.498790 0.499000 -0.205774
C35   C     C_R   0.899529 0.578500 0.562961 0.072022
H16   H     H_    0.080672 0.643295 0.614398 0.132367
C36   C     C_R   0.047310 0.578511 0.563004 0.001808
N2    N     N_R   0.148360 0.498710 0.498970 -0.205761
N3    N     N_R   0.873256 0.582762 0.183952 0.149151
O9    O     O_R   0.859312 0.672296 0.253729 -0.293877
O10   O     O_R   0.999717 0.527956 0.145108 -0.341979
N4    N     N_R   0.964126 0.902108 0.536678 0.063053
O11   O     O_R   0.969226 0.829575 0.456261 -0.356800
O12   O     O_R   0.851303 0.899932 0.617696 -0.436373
C37   C     C_2   0.954781 0.153975 0.630816 0.388939
H17   H     H_    0.855303 0.124809 0.615421 0.128727
O13   O     O_2   0.951782 0.251865 0.679642 -0.568408
N5    N     N_R   0.369282 0.604728 0.196373 0.164205
O14   O     O_R   0.252442 0.542778 0.232206 -0.320912
O15   O     O_R   0.365556 0.722740 0.218939 -0.327233

loop_
_geom_bond_atom_site_label_1
_geom_bond_atom_site_label_2
_geom_bond_distance
_ccdc_geom_bond_type
C4    C6    1.478042 S    
C7    C8    1.387472 A    
C7    H3    1.083629 S    
Cu1   Cu2   2.699787 S    
C30   H13   1.082941 S    
Cu1   O7    1.959191 S    
C14   C15   1.390691 A    
N5    O15   1.301444 A    
C29   C34   1.414973 A    
C19   H8    1.074848 S    
C20   C21   1.408595 A    
O7    C4    1.302226 A    
C5    C13   1.397837 A    
C32   H15   1.060980 S    
C5    H2    1.084517 S    
C35   C36   1.418443 A    
O5    C3    1.295698 A    
H10   C27   1.083435 S    
N4    O11   1.301475 A    
N3    O10   1.298960 A    
C29   C30   1.387420 A    
C11   C15   1.413559 A    
C22   C23   1.415352 A    
C16   N5    1.439946 S    
C34   N1    1.380106 A    
C9    C10   1.410213 A    
C33   N2    1.384025 A    
O3    Cu1   1.964363 S    
C30   C31   1.377980 A    
C5    C17   1.398742 A    
C26   C27   1.380299 A    
C15   H6    1.077719 S    
H1    C14   1.084083 S    
C9    H4    1.078983 S    
C31   C32   1.387949 A    
C1    C25   1.470493 S    
H11   C35   1.078668 S    
N5    O14   1.298571 A    
C11   C18   1.422605 A    
C6    C16   1.413186 A    
C12   C13   1.410678 A    
O3    C2    1.305412 A    
C21   C22   1.402330 A    
C37   O13   1.221539 D    
C13   C14   1.393614 A    
N1    C35   1.366986 A    
O1    C1    1.289931 A    
C24   C25   1.427902 A    
H16   C36   1.081788 S    
C3    C28   1.459219 S    
C27   C28   1.397400 A    
Cu2   O8    1.964363 S    
C29   H12   1.060674 S    
C6    C17   1.418368 A    
C23   C28   1.418313 A    
C17   N3    1.432430 S    
C8    H5    1.082729 S    
Cu2   O6    1.972071 S    
C22   H9    1.081299 S    
C2    C18   1.469612 S    
C20   N4    1.434852 S    
C10   C12   1.416117 A    
C23   C24   1.403966 A    
H7    C26   1.076053 S    
C25   C26   1.395692 A    
Cu1   O5    1.964997 S    
C31   H14   1.082983 S    
O1    Cu1   1.972072 S    
O2    Cu2   1.964998 S    
C12   C16   1.401631 A    
O8    C4    1.305781 A    
O6    C3    1.303898 A    
O4    Cu2   1.959191 S    
C19   C20   1.399803 A    
O2    C1    1.314866 A    
C33   C34   1.435538 A    
C37   H17   1.082889 S    
Cu2   N1    2.028912 S    
O4    C2    1.298889 A    
C32   C33   1.417634 A    
Cu1   N2    2.029139 S    
C36   N2    1.366088 A    
C8    C9    1.390266 A    
N4    O12   1.301234 A    
N3    O9    1.301447 A    
C21   C37   1.486550 S    
C10   C11   1.415172 A    
C19   C24   1.413165 A    
C7    C18   1.403292 A    
