data_mof_unit_42336.cif
_audit_creation_date              2012-12-10T18:32:54-0500
_audit_creation_method            fapswitch 2.2
_symmetry_space_group_name_H-M    P1
_symmetry_Int_Tables_number       1
_space_group_crystal_system       triclinic
_cell_length_a                    14.968092
_cell_length_b                    15.36169
_cell_length_c                    15.752092
_cell_angle_alpha                 89.801891
_cell_angle_beta                  105.097069
_cell_angle_gamma                 81.417983
_cell_volume                      3454.39757615

loop_
_atom_site_label
_atom_site_type_symbol
_atom_type_description
_atom_site_fract_x
_atom_site_fract_y
_atom_site_fract_z
_atom_type_partial_charge
C1    C     C_R   0.440179 0.663259 0.484989 0.873785
C2    C     C_R   0.597679 0.242335 0.513408 -0.105603
C3    C     C_R   0.283006 0.878881 0.378616 0.144655
C4    C     C_R   0.501414 0.500109 0.661791 0.898540
C5    C     C_R   0.306187 0.790674 0.415977 0.124823
C6    C     C_R   0.468304 0.813426 0.471705 -0.308518
C7    C     C_R   0.448700 0.898000 0.433400 0.072483
C8    C     C_R   0.355002 0.932516 0.388622 0.100909
C9    C     C_R   0.520741 0.950830 0.444531 0.059382
C10   C     C_R   0.495967 0.042289 0.427491 0.084089
C11   C     C_R   0.404128 0.075196 0.377744 -0.228441
C12   C     C_3   0.401858 0.475322 0.021749 0.013148
C13   C     C_R   0.335903 0.020957 0.357042 -0.234853
C14   C     C_R   0.616659 0.914924 0.472742 -0.291112
C15   C     C_R   0.685837 0.968306 0.499910 0.162739
C16   C     C_R   0.559486 0.336877 0.513101 0.853276
C17   C     C_R   0.657962 0.060325 0.501748 0.099557
C18   C     C_R   0.563023 0.097456 0.463541 0.049367
C19   C     C_R   0.721499 0.115554 0.543818 -0.235497
C20   C     C_R   0.692474 0.205355 0.552427 0.165095
C21   C     C_R   0.535396 0.187850 0.469560 -0.285419
C22   C     C_R   0.841671 0.639083 0.628693 -0.335387
C23   C     C_3   0.498270 0.493293 0.082302 0.269139
C24   C     C_R   0.754187 0.612916 0.610505 0.011397
C25   C     C_R   0.791006 0.516822 0.502746 -0.058112
C26   C     C_R   0.881863 0.538719 0.519505 -0.007845
C27   C     C_R   0.906161 0.601642 0.583789 0.187040
C28   C     C_R   0.498651 0.499717 0.338272 0.907294
C29   C     C_R   0.949191 0.499331 0.476373 0.078033
C30   C     C_R   0.041330 0.521444 0.500601 0.102160
C31   C     C_R   0.060948 0.587488 0.562242 -0.240430
C32   C     C_R   0.994461 0.626573 0.602883 -0.219630
C33   C     C_R   0.927602 0.438009 0.410594 -0.235007
C34   C     C_3   0.579561 0.422482 0.069566 -0.111253
C35   C     C_R   0.994783 0.396194 0.372484 -0.201269
C36   C     C_R   0.087278 0.412359 0.398789 0.133381
C37   C     C_R   0.110930 0.476311 0.462875 -0.043876
C38   C     C_R   0.157008 0.366475 0.362245 0.081047
C39   C     C_R   0.247610 0.386445 0.390038 -0.038165
C40   C     C_3   0.405313 0.478005 0.923833 -0.382159
C41   C     C_R   0.204423 0.491563 0.487628 -0.079295
C42   C     C_3   0.519713 0.586293 0.957407 -0.415275
C43   C     C_3   0.514405 0.585591 0.053820 -0.442233
C44   C     C_1   0.496438 0.497458 0.248904 -0.188385
C45   C     C_3   0.579589 0.423001 0.970950 -0.428887
C46   C     C_3   0.502548 0.496404 0.917869 0.300702
C47   C     C_3   0.362269 0.394358 0.050379 -0.390883
C48   C     C_3   0.385982 0.305691 0.010413 -0.877172
C49   C     C_1   0.672066 0.436252 0.125457 0.150890
C50   C     C_3   0.764740 0.256430 0.606851 -0.399422
C51   C     C_3   0.825348 0.286362 0.551496 -0.819493
C52   C     C_3   0.787309 0.923892 0.529988 -0.421986
C53   C     C_3   0.841789 0.942683 0.464125 -0.854286
C54   C     C_3   0.182258 0.916147 0.328887 -0.424744
C55   C     C_3   0.131949 0.971697 0.387881 -0.889488
C56   C     C_1   0.496391 0.495383 0.173621 -0.127797
C57   C     C_3   0.228847 0.735715 0.414562 -0.381775
C58   C     C_3   0.210253 0.679512 0.333511 -0.818591
C59   C     C_3   0.138595 0.296477 0.294960 -0.434732
C60   C     C_3   0.131946 0.209492 0.338322 -0.882245
C61   C     C_1   0.504886 0.498352 0.826940 -0.103915
C62   C     C_1   0.504554 0.499581 0.751513 -0.193613
C63   C     C_R   0.401716 0.757424 0.459499 -0.150303
H1    H     H_    0.349665 0.533154 0.028205 0.113616
H2    H     H_    0.012847 0.675986 0.650627 0.139484
H3    H     H_    0.229486 0.538109 0.535314 0.134482
H4    H     H_    0.302613 0.353845 0.362955 0.130857
H5    H     H_    0.972659 0.350166 0.322521 0.163603
H6    H     H_    0.858957 0.687593 0.677660 0.139622
H7    H     H_    0.703393 0.641224 0.644557 0.132043
H8    H     H_    0.764683 0.471825 0.453969 0.131244
H9    H     H_    0.589864 0.599989 0.954521 0.182729
H10   H     H_    0.127157 0.611110 0.581001 0.131792
H11   H     H_    0.858837 0.420449 0.386230 0.148434
H12   H     H_    0.390532 0.416392 0.890514 0.190963
H13   H     H_    0.466491 0.640242 0.918699 0.170170
H14   H     H_    0.456279 0.637128 0.060729 0.166929
H15   H     H_    0.580053 0.603667 0.096913 0.196772
H16   H     H_    0.566770 0.357749 0.944150 0.155331
H17   H     H_    0.648962 0.433166 0.962315 0.174830
H18   H     H_    0.569149 0.356645 0.090543 0.134492
H19   H     H_    0.338963 0.303203 0.943392 0.248848
H20   H     H_    0.459409 0.292420 0.006848 0.254702
H21   H     H_    0.374069 0.251742 0.051288 0.246025
H22   H     H_    0.383882 0.384240 0.123056 0.210057
H23   H     H_    0.267409 0.051512 0.319530 0.163431
H24   H     H_    0.284543 0.410605 0.032622 0.197478
H25   H     H_    0.780761 0.321707 0.490018 0.259576
H26   H     H_    0.871529 0.330919 0.589483 0.246729
H27   H     H_    0.869834 0.228489 0.533744 0.244905
H28   H     H_    0.732567 0.313070 0.637771 0.220661
H29   H     H_    0.810940 0.213867 0.663301 0.186254
H30   H     H_    0.809509 0.917725 0.398949 0.264849
H31   H     H_    0.842719 0.014338 0.456477 0.256185
H32   H     H_    0.915219 0.908670 0.487555 0.245453
H33   H     H_    0.821619 0.944487 0.596474 0.189896
H34   H     H_    0.463190 0.216812 0.443631 0.166605
H35   H     H_    0.791830 0.851150 0.536705 0.210142
H36   H     H_    0.125339 0.930155 0.443049 0.254848
H37   H     H_    0.170701 0.025626 0.415803 0.268579
H38   H     H_    0.060656 0.001134 0.348911 0.253918
H39   H     H_    0.180356 0.955181 0.268949 0.190359
H40   H     H_    0.140530 0.864372 0.301428 0.216028
H41   H     H_    0.275095 0.637224 0.327942 0.279405
H42   H     H_    0.158114 0.636595 0.338272 0.244168
H43   H     H_    0.182053 0.721674 0.272322 0.229096
H44   H     H_    0.244708 0.694296 0.475906 0.207238
H45   H     H_    0.536980 0.790172 0.514234 0.175361
H46   H     H_    0.162627 0.777472 0.417004 0.197996
H47   H     H_    0.198738 0.185416 0.388317 0.262524
H48   H     H_    0.074085 0.216991 0.370946 0.263983
H49   H     H_    0.118755 0.159610 0.287562 0.249590
H50   H     H_    0.074260 0.319099 0.241549 0.205914
H51   H     H_    0.196411 0.283891 0.262138 0.196678
H52   H     H_    0.349845 0.531083 0.886455 0.141832
H53   H     H_    0.383337 0.142597 0.352333 0.141334
H54   H     H_    0.639155 0.844787 0.472109 0.155531
H55   H     H_    0.793997 0.089052 0.573997 0.152371
N1    N     N_R   0.731690 0.552720 0.548990 -0.096105
N2    N     N_R   0.268300 0.447240 0.450950 -0.108023
N3    N     N_1   0.744364 0.446986 0.169264 -0.223828
O1    O     O_R   0.383120 0.605620 0.475300 -0.612224
O2    O     O_R   0.531890 0.639510 0.506740 -0.614430
O3    O     O_R   0.425580 0.483050 0.607130 -0.608078
O4    O     O_R   0.574360 0.516930 0.638570 -0.618523
O5    O     O_R   0.468110 0.360490 0.493260 -0.613132
O6    O     O_R   0.616880 0.394380 0.524700 -0.607070
O7    O     O_R   0.425640 0.483070 0.361430 -0.626174
O8    O     O_R   0.574420 0.516950 0.392870 -0.605783
Zn1   Zn    Zn3+2 0.400660 0.477370 0.479010 0.925871
Zn2   Zn    Zn3+2 0.599340 0.522630 0.520990 0.935723

loop_
_geom_bond_atom_site_label_1
_geom_bond_atom_site_label_2
_ccdc_geom_bond_type
C8    C13   A    
C29   C33   A    
C53   H32   S    
C18   C21   A    
C19   C20   A    
C24   H7    S    
C23   C56   S    
C45   C46   S    
C43   H15   S    
C40   C46   S    
C12   C23   S    
C4    O3    A    
C26   C27   A    
C4    O4    A    
N2    Zn1   S    
C47   H22   S    
C36   C37   A    
C51   H27   S    
C30   C31   A    
C12   H1    S    
C3    C54   S    
C31   H10   S    
C40   H52   S    
O5    Zn1   S    
C39   N2    A    
C4    C62   S    
C23   C43   S    
C5    C63   A    
C15   C17   A    
C28   O8    A    
C42   C46   S    
O4    Zn2   S    
C1    O1    A    
C20   C50   S    
C17   C19   A    
C57   H46   S    
C25   N1    A    
C19   H55   S    
C24   N1    A    
C13   H23   S    
N1    Zn2   S    
C25   H8    S    
C34   H18   S    
C2    C16   S    
C9    C10   A    
C22   H6    S    
C14   H54   S    
C53   H31   S    
C59   C60   S    
C12   C47   S    
C1    C63   S    
C50   C51   S    
C46   C61   S    
C53   H30   S    
C54   H40   S    
C7    C8    A    
C3    C8    A    
C25   C26   A    
C2    C20   A    
C28   C44   S    
C48   H21   S    
C30   C37   A    
C58   H43   S    
C35   C36   A    
C47   H24   S    
C6    C63   A    
C12   C40   S    
C9    C14   A    
C1    O2    A    
C29   C30   A    
C60   H49   S    
C21   H34   S    
C44   C56   T    
C47   C48   S    
C59   H50   S    
C23   C34   S    
C49   N3    T    
C2    C21   A    
C42   H9    S    
C17   C18   A    
O3    Zn1   S    
C45   H16   S    
C34   C45   S    
C15   C52   S    
C11   H53   S    
C41   H3    S    
C50   H29   S    
C57   H44   S    
C22   C27   A    
C22   C24   A    
C58   H41   S    
C42   C43   S    
C52   C53   S    
C7    C9    A    
C54   C55   S    
C34   C49   S    
O2    Zn2   S    
C27   C32   A    
C39   H4    S    
C54   H39   S    
C31   C32   A    
C3    C5    A    
O7    Zn1   S    
C51   H25   S    
C48   H20   S    
C6    C7    A    
C55   H37   S    
C43   H14   S    
C55   H38   S    
C42   H13   S    
C40   H12   S    
C5    C57   S    
C58   H42   S    
C36   C38   A    
C60   H48   S    
C51   H26   S    
C11   C13   A    
C57   C58   S    
C38   C39   A    
C35   H5    S    
C10   C18   A    
C59   H51   S    
C52   H35   S    
C33   C35   A    
C48   H19   S    
C52   H33   S    
C45   H17   S    
C41   N2    A    
C37   C41   A    
C61   C62   T    
C16   O6    A    
O6    Zn2   S    
C60   H47   S    
C10   C11   A    
C38   C59   S    
C33   H11   S    
C26   C29   A    
C55   H36   S    
C6    H45   S    
C14   C15   A    
C16   O5    A    
C50   H28   S    
O1    Zn1   S    
C28   O7    A    
C32   H2    S    
O8    Zn2   S    
