data_mof_unit_61420.cif
_audit_creation_date              2013-03-05T16:13:09-0500
_audit_creation_method            fapswitch 2.2
_symmetry_space_group_name_H-M    P1
_symmetry_Int_Tables_number       1
_space_group_crystal_system       triclinic
_cell_length_a                    15.937105
_cell_length_b                    15.944929
_cell_length_c                    14.699764
_cell_angle_alpha                 90.260993
_cell_angle_beta                  90.41747
_cell_angle_gamma                 90.032488
_cell_volume                      3735.30675989

loop_
_atom_site_label
_atom_site_type_symbol
_atom_site_description
_atom_site_fract_x
_atom_site_fract_y
_atom_site_fract_z
_atom_type_partial_charge
O1    O     O_R   0.499910 0.379360 0.575970 -0.549069
O2    O     O_R   0.500090 0.379510 0.424100 -0.570712
C1    C     C_R   0.499896 0.340061 0.499829 0.809427
O3    O     O_R   0.378990 0.499920 0.575920 -0.551110
O4    O     O_R   0.379170 0.500070 0.424050 -0.558207
C2    C     C_R   0.339699 0.499976 0.499648 0.822096
Cu1   Cu    Cu3+1 0.499890 0.499910 0.589920 1.110656
Cu2   Cu    Cu3+1 0.500110 0.500090 0.410080 1.077376
O5    O     O_R   0.499910 0.620490 0.575900 -0.545450
O6    O     O_R   0.500090 0.620640 0.424030 -0.548309
O7    O     O_R   0.620830 0.499930 0.575950 -0.558582
O8    O     O_R   0.621010 0.500080 0.424080 -0.578216
C3    C     C_R   0.500055 0.659934 0.500196 0.817684
C4    C     C_R   0.660297 0.500039 0.500347 0.805823
C5    C     C_3   0.973113 0.433055 0.542504 0.229285
C6    C     C_3   0.028516 0.431058 0.456001 -0.310165
H1    H     H_    0.050520 0.373987 0.419844 0.226726
C7    C     C_1   0.250569 0.500163 0.498997 -0.059771
C8    C     C_1   0.749418 0.500296 0.501008 -0.054691
C9    C     C_3   0.029106 0.501137 0.585388 0.205532
C10   C     C_3   0.084336 0.500952 0.499696 -0.147342
C11   C     C_3   0.972725 0.569145 0.543458 0.132941
C12   C     C_3   0.915713 0.500980 0.500869 -0.191218
C13   C     C_3   0.027572 0.569128 0.457884 0.197818
C14   C     C_3   0.971575 0.500787 0.415484 0.238642
C15   C     C_1   0.175462 0.500462 0.499034 0.196737
C16   C     C_1   0.824523 0.500584 0.501123 0.222307
C17   C     C_3   0.516453 0.052750 0.604690 0.292676
C18   C     C_3   0.568127 0.050115 0.437309 -0.197128
C19   C     C_3   0.568467 0.950637 0.433392 0.255285
H2    H     H_    0.628771 0.071919 0.465683 0.201795
C20   C     C_1   0.500117 0.749018 0.500798 -0.004930
C21   C     C_3   0.495433 0.083368 0.501921 -0.120154
C22   C     C_3   0.515380 0.949741 0.606324 0.262889
C23   C     C_3   0.500027 0.916538 0.502706 -0.146907
C24   C     C_3   0.409298 0.949184 0.471609 -0.049185
C25   C     C_3   0.407819 0.049002 0.462391 0.304036
C26   C     C_1   0.500101 0.824210 0.501551 0.261562
C27   C     C_1   0.497048 0.175793 0.500240 0.205356
C28   C     C_1   0.498598 0.250978 0.499570 -0.038336
H3    H     H_    0.367864 0.932999 0.527991 0.168465
C29   C     C_3   0.504234 0.593214 0.056363 0.281276
C30   C     C_3   0.412550 0.456247 0.052227 0.293524
C31   C     C_3   0.411207 0.474851 0.944877 -0.135751
H4    H     H_    0.372202 0.531841 0.937166 0.256959
N1    N     N_1   0.501700 0.501390 0.724970 -0.134075
C32   C     C_3   0.498091 0.497702 0.092204 -0.074445
C33   C     C_3   0.518379 0.591431 0.948271 -0.038664
C34   C     C_3   0.500171 0.500846 0.907648 -0.095139
C35   C     C_3   0.570706 0.438370 0.944507 0.244006
C36   C     C_3   0.576951 0.444489 0.054659 0.153687
C37   C     C_1   0.501262 0.501371 0.804525 0.427561
C38   C     C_1   0.498090 0.498224 0.195470 0.312078
N2    N     N_1   0.498280 0.498620 0.275030 -0.135442
H5    H     H_    0.584903 0.604128 0.934582 0.129096
N3    N     N_3   0.652747 0.917998 0.456271 -0.492927
H6    H     H_    0.694559 0.931661 0.403862 0.233616
H7    H     H_    0.678940 0.948316 0.511974 0.291453
N4    N     N_3   0.548576 0.918297 0.341195 -0.457972
H8    H     H_    0.501229 0.952327 0.310007 0.317926
H9    H     H_    0.600014 0.922938 0.297772 0.234195
N5    N     N_3   0.336788 0.083282 0.514554 -0.495062
H10   H     H_    0.328712 0.053478 0.576583 0.273672
H11   H     H_    0.281129 0.071868 0.478363 0.281707
N6    N     N_R   0.395724 0.080590 0.367604 0.191673
O9    O     O_R   0.385888 0.160799 0.355093 -0.288086
O10   O     O_R   0.380615 0.032158 0.298066 -0.237158
N7    N     N_R   0.457130 0.086446 0.673356 0.168291
O11   O     O_R   0.414865 0.154999 0.658912 -0.310224
O12   O     O_R   0.469681 0.066013 0.758136 -0.175387
N8    N     N_R   0.447987 0.912908 0.664718 0.143449
O13   O     O_R   0.376886 0.949608 0.681850 -0.298454
O14   O     O_R   0.457493 0.837009 0.695627 -0.216403
N9    N     N_R   0.365992 0.903738 0.396820 0.191608
O15   O     O_R   0.400007 0.841587 0.352898 -0.275039
O16   O     O_R   0.285906 0.916389 0.385229 -0.225877
N10   N     N_R   0.476049 0.661065 0.900715 0.186433
O17   O     O_R   0.500730 0.737568 0.916786 -0.218478
O18   O     O_R   0.416587 0.648736 0.840915 -0.275173
N11   N     N_R   0.946038 0.358116 0.590480 0.185191
O19   O     O_R   0.001657 0.306013 0.622118 -0.246058
O20   O     O_R   0.866691 0.342748 0.601905 -0.296984
N12   N     N_R   0.427119 0.639285 0.084140 0.169979
O21   O     O_R   0.417419 0.659421 0.169397 -0.271091
O22   O     O_R   0.367658 0.660075 0.027475 -0.227188
N13   N     N_R   0.406250 0.365849 0.076062 0.140819
O23   O     O_R   0.421154 0.343700 0.159790 -0.309030
O24   O     O_R   0.357443 0.316059 0.029525 -0.308302
N14   N     N_3   0.338708 0.497327 0.092463 -0.498259
H12   H     H_    0.335518 0.484150 0.161970 0.264970
H13   H     H_    0.284253 0.472170 0.062970 0.268023
N15   N     N_3   0.366376 0.414835 0.885741 -0.517108
H14   H     H_    0.396108 0.357177 0.879135 0.299981
H15   H     H_    0.304945 0.406554 0.908553 0.295164
N16   N     N_3   0.656111 0.485398 0.083098 -0.604791
H16   H     H_    0.707253 0.446850 0.067965 0.249079
H17   H     H_    0.657739 0.492736 0.153813 0.254371
N17   N     N_3   0.577737 0.359628 0.094626 -0.520570
H18   H     H_    0.628949 0.325852 0.069643 0.231233
H19   H     H_    0.587333 0.363398 0.164978 0.246552
N18   N     N_3   0.651822 0.459048 0.900817 -0.549415
H20   H     H_    0.696477 0.412902 0.915406 0.249599
H21   H     H_    0.678175 0.515268 0.923273 0.244568
N19   N     N_3   0.575295 0.637750 0.100861 -0.539731
H22   H     H_    0.631868 0.630818 0.066480 0.243518
H23   H     H_    0.564183 0.702410 0.099146 0.287284
N20   N     N_R   0.942777 0.501682 0.321186 0.182744
O25   O     O_R   0.997227 0.501382 0.255746 -0.255256
O26   O     O_R   0.863056 0.502638 0.301779 -0.325926
N21   N     N_3   0.548829 0.352606 0.913267 -0.524108
H24   H     H_    0.506148 0.323498 0.955883 0.282638
H25   H     H_    0.601498 0.313544 0.913094 0.258972
N22   N     N_R   0.054463 0.644472 0.410514 0.197542
O27   O     O_R   0.998739 0.696281 0.378519 -0.227835
O28   O     O_R   0.133804 0.660537 0.400156 -0.263400
N23   N     N_R   0.945971 0.644665 0.591260 0.198500
O29   O     O_R   0.001780 0.696531 0.623610 -0.215154
O30   O     O_R   0.866657 0.660734 0.601821 -0.276813
N24   N     N_R   0.057668 0.500893 0.679783 0.194848
O31   O     O_R   0.003084 0.500804 0.745093 -0.236624
O32   O     O_R   0.137358 0.500918 0.699361 -0.281351
N25   N     N_R   0.594340 0.918082 0.648140 0.176148
O33   O     O_R   0.612680 0.943025 0.730471 -0.171303
O34   O     O_R   0.627394 0.847375 0.622084 -0.300805
N26   N     N_R   0.599169 0.090526 0.631937 0.147167
O35   O     O_R   0.600553 0.165145 0.668499 -0.259484
O36   O     O_R   0.671407 0.056159 0.615372 -0.326416
N27   N     N_3   0.565166 0.087459 0.345775 -0.500229
H26   H     H_    0.572882 0.152403 0.350679 0.251151
H27   H     H_    0.617877 0.067208 0.309859 0.235100

loop_
_geom_bond_atom_site_label_1
_geom_bond_atom_site_label_2
_geom_bond_distance
_ccdc_geom_bond_type
C31   C34   1.579318 S    
C33   H5    1.099425 S    
C10   C15   1.452410 S    
C6    C10   1.558849 S    
C18   C21   1.592965 S    
C3    C20   1.420435 S    
N16   H16   1.045738 S    
C7    C15   1.196997 T    
N27   H26   1.044834 S    
N19   H23   1.046583 S    
C25   N5    1.475715 S    
Cu1   Cu2   2.643650 S    
C38   N2    1.169488 T    
N3    H6    1.045881 S    
Cu1   O7    1.939830 S    
C21   C27   1.474241 S    
N9    O16   1.302384 A    
C19   C23   1.594997 S    
C24   C25   1.598136 S    
C17   N7    1.486900 S    
O4    C2    1.280951 A    
O7    C4    1.280979 A    
N13   O24   1.299956 A    
C5    C6    1.553559 S    
N1    C37   1.169520 T    
C35   N21   1.481191 S    
N23   O29   1.300227 A    
C22   C23   1.627035 S    
O5    C3    1.280764 A    
N21   H24   1.038761 S    
N5    H11   1.046445 S    
N12   O21   1.302630 A    
N23   O30   1.300155 A    
N7    O11   1.301720 A    
N6    O10   1.299320 A    
C25   N6    1.494944 S    
N20   O25   1.300214 A    
C20   C26   1.198929 T    
N14   H13   1.046219 S    
C8    C16   1.196953 T    
C31   N15   1.471224 S    
C32   C38   1.517968 S    
C36   N17   1.477619 S    
C5    C12   1.543830 S    
C17   C22   1.642840 S    
N4    H8    1.035211 S    
C22   N25   1.486105 S    
N20   O26   1.300235 A    
C24   H3    1.095118 S    
O3    Cu1   1.936262 S    
N19   H22   1.042499 S    
N18   H20   1.045795 S    
N24   O32   1.300183 A    
C5    C9    1.535123 S    
C2    C7    1.420453 S    
N4    H9    1.045444 S    
N9    O15   1.301020 A    
C29   N12   1.490764 S    
Cu1   N1    1.985234 S    
C23   C26   1.472184 S    
C13   C14   1.535232 S    
N11   O20   1.300196 A    
Cu2   N2    1.985236 S    
C27   C28   1.199150 T    
N8    O14   1.303145 A    
N13   O23   1.302205 A    
C6    H1    1.110058 S    
C32   C36   1.615880 S    
N10   O17   1.301535 A    
C19   N3    1.477799 S    
C21   C25   1.603740 S    
C29   N19   1.482818 S    
O1    C1    1.280230 A    
C23   C24   1.601285 S    
C33   N10   1.475675 S    
C29   C33   1.606591 S    
C30   C31   1.606973 S    
C18   C19   1.586970 S    
C5    N11   1.456998 S    
Cu2   O8    1.936265 S    
C34   C37   1.516170 S    
C19   N4    1.479988 S    
N5    H10   1.038927 S    
N15   H15   1.045670 S    
C35   C36   1.624035 S    
N10   O18   1.302098 A    
C30   N14   1.473525 S    
C24   N9    1.480271 S    
O3    C2    1.280201 A    
C33   C34   1.586236 S    
N12   O22   1.301188 A    
C9    C11   1.536970 S    
C1    C28   1.420555 S    
N17   H18   1.045997 S    
C12   C16   1.453356 S    
N26   O35   1.303420 A    
C11   C13   1.537016 S    
C18   N27   1.474321 S    
N6    O9    1.302313 A    
N25   O34   1.301921 A    
C17   N26   1.500075 S    
C14   N20   1.457119 S    
N22   O27   1.300228 A    
N18   H21   1.041052 S    
C6    C14   1.553604 S    
Cu1   O5    1.934585 S    
O1    Cu1   1.932140 S    
C30   N13   1.488416 S    
C4    C8    1.420292 S    
O2    Cu2   1.934587 S    
C31   H4    1.107047 S    
O8    C4    1.280119 A    
N11   O19   1.300211 A    
O6    C3    1.280516 A    
N27   H27   1.045910 S    
C17   C21   1.622423 S    
O4    Cu2   1.939830 S    
N24   O31   1.300233 A    
N16   H17   1.045650 S    
N17   H19   1.045754 S    
O2    C1    1.281129 A    
N25   O33   1.303306 A    
N8    O13   1.301324 A    
C18   H2    1.105152 S    
C11   N23   1.456993 S    
N15   H14   1.038987 S    
N3    H7    1.034217 S    
C29   C32   1.616909 S    
C12   C14   1.544091 S    
N21   H25   1.045525 S    
C13   N22   1.457116 S    
C9    C10   1.541958 S    
C35   N18   1.485231 S    
Cu2   O6    1.932138 S    
C34   C35   1.595894 S    
C10   C13   1.541743 S    
N26   O36   1.299458 A    
N7    O12   1.303621 A    
C11   C12   1.543757 S    
N14   H12   1.045639 S    
C30   C32   1.620040 S    
C22   N8    1.500877 S    
C9    N24   1.457212 S    
C36   N16   1.476737 S    
N22   O28   1.300170 A    
