data_mof_unit_44744.cif
_audit_creation_date              2012-12-10T18:44:29-0500
_audit_creation_method            fapswitch 2.2
_symmetry_space_group_name_H-M    P1
_symmetry_Int_Tables_number       1
_space_group_crystal_system       triclinic
_cell_length_a                    12.825883
_cell_length_b                    10.600926
_cell_length_c                    9.884461
_cell_angle_alpha                 90.579963
_cell_angle_beta                  98.28983
_cell_angle_gamma                 90.267061
_cell_volume                      1329.81696062

loop_
_atom_site_label
_atom_site_type_symbol
_atom_type_description
_atom_site_fract_x
_atom_site_fract_y
_atom_site_fract_z
_atom_type_partial_charge
C1    C     C_R   0.501948 0.260474 0.499559 0.920763
C2    C     C_R   0.701948 0.501632 0.527888 0.936671
C3    C     C_R   0.814583 0.507407 0.545629 -0.175874
C4    C     C_R   0.185417 0.492593 0.454370 -0.175874
C5    C     C_R   0.021852 0.396180 0.353949 -0.266909
C6    C     C_R   0.978148 0.603820 0.646051 -0.266908
C7    C     C_R   0.129317 0.412166 0.356188 0.599538
C8    C     C_R   0.870683 0.587834 0.643812 0.599537
C9    C     C_R   0.135020 0.557656 0.549165 -0.323966
C10   C     C_R   0.864980 0.442344 0.450835 -0.323966
C11   C     C_R   0.028470 0.540822 0.549104 0.090917
C12   C     C_R   0.498052 0.739525 0.500441 0.920763
C13   C     C_R   0.971530 0.459178 0.450896 0.090917
C14   C     C_R   0.589014 0.062645 0.463453 0.199491
C15   C     C_R   0.410987 0.937355 0.536547 0.199491
C16   C     C_R   0.586627 0.932656 0.466701 -0.286143
C17   C     C_R   0.413373 0.067344 0.533299 -0.286143
C18   C     C_3   0.689137 0.133835 0.290195 -0.774093
C19   C     C_3   0.310864 0.866164 0.709806 -0.774093
C20   C     C_3   0.635810 0.777350 0.895947 -0.688271
C21   C     C_3   0.364191 0.222650 0.104055 -0.688269
C22   C     C_R   0.498198 0.871831 0.502238 -0.075029
C23   C     C_R   0.501802 0.128169 0.497762 -0.075030
C24   C     C_R   0.572217 0.569354 0.086695 -0.186824
C25   C     C_R   0.427783 0.430646 0.913305 -0.186824
C26   C     C_R   0.571942 0.570648 0.942803 0.244519
C27   C     C_R   0.428058 0.429352 0.057197 0.244519
C28   C     C_R   0.298052 0.498368 0.472112 0.936670
F1    F     F_    0.820888 0.657312 0.730418 -0.694697
F2    F     F_    0.179112 0.342689 0.269581 -0.694696
H1    H     H_    0.820385 0.381431 0.374529 0.181755
H2    H     H_    0.688400 0.037755 0.243891 0.234192
H3    H     H_    0.764207 0.181059 0.276402 0.227309
H4    H     H_    0.623426 0.189769 0.236305 0.259362
H5    H     H_    0.251001 0.907681 0.510454 0.231011
H6    H     H_    0.376576 0.810231 0.763695 0.259363
H7    H     H_    0.235794 0.818940 0.723599 0.227310
H8    H     H_    0.311601 0.962245 0.756109 0.234192
H9    H     H_    0.724355 0.616085 0.928894 0.256576
H10   H     H_    0.555347 0.804493 0.849486 0.235952
H11   H     H_    0.693061 0.825093 0.839116 0.273146
H12   H     H_    0.179615 0.618569 0.625471 0.181754
H13   H     H_    0.649922 0.810447 0.004130 0.192912
H14   H     H_    0.275645 0.383912 0.071103 0.256575
H15   H     H_    0.350082 0.189551 0.995873 0.192912
H16   H     H_    0.306940 0.174907 0.160887 0.273145
H17   H     H_    0.444655 0.195509 0.150518 0.235953
H18   H     H_    0.978680 0.332671 0.279110 0.162329
H19   H     H_    0.021319 0.667330 0.720890 0.162329
H20   H     H_    0.653449 0.879111 0.442102 0.156328
H21   H     H_    0.346551 0.120889 0.557898 0.156328
H22   H     H_    0.630149 0.624299 0.153205 0.154814
H23   H     H_    0.369851 0.375701 0.846794 0.154814
H24   H     H_    0.748999 0.092319 0.489547 0.231011
N1    N     N_R   0.499970 0.499970 0.857200 -0.100167
N2    N     N_R   0.500030 0.500030 0.142800 -0.100167
N3    N     N_2   0.680854 0.126771 0.434342 -0.317036
N4    N     N_2   0.319146 0.873229 0.565659 -0.317036
N5    N     N_2   0.649140 0.642118 0.887859 -0.222830
N6    N     N_2   0.350860 0.357882 0.112141 -0.222830
O1    O     O_R   0.499990 0.316750 0.614620 -0.632199
O2    O     O_R   0.500010 0.683250 0.385380 -0.632199
O3    O     O_R   0.499990 0.316780 0.385290 -0.593811
O4    O     O_R   0.500010 0.683220 0.614710 -0.593809
O5    O     O_R   0.346360 0.499970 0.595710 -0.635804
O6    O     O_R   0.653640 0.500030 0.404290 -0.635804
O7    O     O_R   0.346360 0.499990 0.366380 -0.564796
O8    O     O_R   0.653640 0.500010 0.633620 -0.564798
Zn1   Zn    Zn3+2 0.500000 0.499980 0.653120 0.980864
Zn2   Zn    Zn3+2 0.500000 0.500020 0.346880 0.980863

loop_
_geom_bond_atom_site_label_1
_geom_bond_atom_site_label_2
_ccdc_geom_bond_type
C14   C23   A    
C24   H22   S    
C6    C8    A    
C5    C7    A    
C19   H8    S    
C15   N4    S    
C25   C27   A    
C11   C13   A    
C26   N5    S    
C18   N3    S    
C5    C13   A    
O3    Zn2   S    
C24   N2    A    
C19   H6    S    
O7    Zn2   S    
H9    N5    S    
C26   N1    A    
C17   H21   S    
C2    C3    S    
C19   N4    S    
C7    F2    S    
O6    Zn2   S    
O4    Zn1   S    
C25   H23   S    
C20   N5    S    
N1    Zn1   S    
C9    C11   A    
C24   C26   A    
C9    H12   S    
C17   C23   A    
H14   N6    S    
C4    C7    A    
O5    Zn1   S    
C8    F1    S    
C1    O3    A    
C4    C28   S    
C16   H20   S    
C1    C23   S    
C21   H15   S    
C27   N6    S    
C18   H4    S    
C6    H19   S    
C12   O4    A    
C5    H18   S    
C14   C16   A    
C20   H13   S    
C18   H2    S    
C18   H3    S    
C28   O5    A    
C21   H16   S    
N2    Zn2   S    
C12   C22   S    
H5    N4    S    
C28   O7    A    
C12   O2    A    
O2    Zn2   S    
C21   N6    S    
C15   C17   A    
C3    C8    A    
O1    Zn1   S    
C6    C11   A    
C3    C10   A    
C14   N3    S    
C27   N2    A    
C16   C22   A    
C19   H7    S    
C2    O6    A    
C4    C9    A    
C2    O8    A    
C20   H10   S    
C10   H1    S    
C10   C13   A    
C15   C22   A    
C25   N1    A    
C20   H11   S    
O8    Zn1   S    
C21   H17   S    
H24   N3    S    
C1    O1    A    
