data_mof_unit_42350.cif
_audit_creation_date              2012-12-11T15:09:46-0500
_audit_creation_method            fapswitch 2.2
_symmetry_space_group_name_H-M    P1
_symmetry_Int_Tables_number       1
_space_group_crystal_system       triclinic
_cell_length_a                    21.010875
_cell_length_b                    7.128542
_cell_length_c                    13.995003
_cell_angle_alpha                 90.07279
_cell_angle_beta                  98.359781
_cell_angle_gamma                 89.90936
_cell_volume                      2073.85235939

loop_
_atom_site_label
_atom_site_type_symbol
_atom_type_description
_atom_site_fract_x
_atom_site_fract_y
_atom_site_fract_z
_atom_type_partial_charge
O1    O     O_R   0.447130 0.507140 0.597350 -0.538671
O2    O     O_R   0.552870 0.007140 0.402650 -0.539679
O3    O     O_R   0.578910 0.181280 0.586990 -0.540625
O4    O     O_R   0.421090 0.681280 0.413010 -0.540532
C1    C     C_R   0.604482 0.344409 0.607423 0.729724
C2    C     C_R   0.395521 0.844498 0.392566 0.730837
O5    O     O_R   0.449230 0.177860 0.608640 -0.537977
O6    O     O_R   0.550770 0.677860 0.391360 -0.538242
O7    O     O_R   0.422260 0.000770 0.424450 -0.534482
O8    O     O_R   0.577740 0.500770 0.575550 -0.534290
C3    C     C_R   0.432493 0.346244 0.634050 0.703944
C4    C     C_R   0.567754 0.845795 0.366143 0.703391
O9    O     O_3   0.491310 0.336980 0.439550 -0.374394
O10   O     O_3   0.508690 0.836980 0.560450 -0.373605
V1    V     V_3+5 0.501610 0.064760 0.511210 1.465396
V2    V     V_3+5 0.498390 0.564760 0.488790 1.465548
C5    C     C_R   0.618116 0.789176 0.122603 0.440553
C6    C     C_R   0.382555 0.314127 0.878833 0.445035
H1    H     H_    0.530251 0.768862 0.182161 0.160443
H2    H     H_    0.470535 0.287824 0.819876 0.158847
C7    C     C_R   0.608702 0.850618 0.290186 -0.194390
C8    C     C_R   0.391377 0.353219 0.709588 -0.194158
C9    C     C_R   0.918800 0.830814 0.302333 -0.294655
C10   C     C_R   0.081352 0.324027 0.698281 -0.294457
C11   C     C_R   0.881756 0.796680 0.375583 0.395594
C12   C     C_R   0.118566 0.288979 0.625389 0.395151
C13   C     C_R   0.815004 0.797486 0.353573 -0.051690
C14   C     C_R   0.185253 0.294390 0.647259 -0.053028
C15   C     C_R   0.783426 0.840074 0.259640 -0.021567
C16   C     C_R   0.216651 0.343498 0.740518 -0.021317
C17   C     C_R   0.821125 0.860802 0.183811 -0.018766
C18   C     C_R   0.178873 0.364224 0.816465 -0.016978
C19   C     C_R   0.715084 0.849537 0.238622 -0.042806
C20   C     C_R   0.284983 0.355439 0.761057 -0.039966
C21   C     C_R   0.685252 0.826881 0.141344 -0.105658
C22   C     C_R   0.315135 0.346746 0.858694 -0.107340
C23   C     C_R   0.722536 0.848228 0.065790 0.272275
C24   C     C_R   0.278285 0.382003 0.933256 0.263671
C25   C     C_R   0.789528 0.881602 0.087558 0.224324
C26   C     C_R   0.210291 0.385400 0.913061 0.223678
C27   C     C_R   0.675675 0.882315 0.311443 0.314469
C28   C     C_R   0.324245 0.381332 0.687459 0.313983
C29   C     C_R   0.581198 0.800630 0.197115 -0.217034
C30   C     C_R   0.419328 0.315686 0.803988 -0.213344
C31   C     C_R   0.889465 0.859004 0.207258 -0.091066
C32   C     C_R   0.110516 0.357047 0.792995 -0.091463
H3    H     H_    0.970860 0.827785 0.318602 0.111508
H4    H     H_    0.029324 0.317626 0.682126 0.111373
H5    H     H_    0.788689 0.754267 0.410541 0.177865
H6    H     H_    0.211632 0.248579 0.590801 0.179548
C33   C     C_1   0.166677 0.857049 0.168106 -0.161305
C34   C     C_1   0.833333 0.357330 0.831839 -0.169179
C35   C     C_1   0.219091 0.854756 0.219157 0.015531
C36   C     C_1   0.780930 0.354957 0.780785 0.017693
C37   C     C_1   0.280820 0.853346 0.279222 0.028861
C38   C     C_1   0.719195 0.353318 0.720734 0.031942
C39   C     C_1   0.333149 0.851086 0.330516 -0.167344
C40   C     C_1   0.666860 0.350904 0.669458 -0.167040
O11   O     O_R   0.922300 0.202240 0.924350 -0.524100
O12   O     O_R   0.077700 0.702240 0.075650 -0.520722
O13   O     O_R   0.050780 0.535130 0.891350 -0.534150
O14   O     O_R   0.949220 0.035130 0.108650 -0.533561
C41   C     C_R   0.067710 0.367839 0.866038 0.815180
C42   C     C_R   0.932038 0.868240 0.133729 0.815334
O15   O     O_R   0.921100 0.531560 0.912990 -0.535137
O16   O     O_R   0.078900 0.031560 0.087010 -0.539930
O17   O     O_R   0.947120 0.708470 0.097370 -0.542582
O18   O     O_R   0.052880 0.208470 0.902630 -0.541499
C43   C     C_R   0.895851 0.363641 0.893506 0.710350
C44   C     C_R   0.104157 0.863540 0.106473 0.712163
O19   O     O_3   0.008710 0.375800 0.060400 -0.375688
O20   O     O_3   0.991290 0.875800 0.939600 -0.374861
V3    V     V_3+5 0.998380 0.648080 0.988790 1.510883
V4    V     V_3+5 0.001620 0.148080 0.011210 1.499654
O21   O     O_3   0.692426 0.848468 0.971196 -0.631087
H7    H     H_    0.722665 0.797765 0.929436 0.298178
O22   O     O_3   0.309792 0.428046 0.024008 -0.633884
H8    H     H_    0.282592 0.515162 0.055766 0.306318
O23   O     O_3   0.587185 0.731921 0.033871 -0.599205
H9    H     H_    0.614568 0.634678 0.009534 0.323104
O24   O     O_3   0.413867 0.269822 0.969498 -0.602456
H10   H     H_    0.384863 0.189113 0.001374 0.326555
O25   O     O_3   0.703306 0.957320 0.399137 -0.652387
H11   H     H_    0.671103 0.975120 0.443149 0.289257
O26   O     O_3   0.296451 0.448823 0.598193 -0.652457
H12   H     H_    0.328484 0.461305 0.553530 0.288417
O27   O     O_3   0.909278 0.757445 0.469052 -0.639917
H13   H     H_    0.956769 0.761462 0.472886 0.296246
O28   O     O_3   0.091324 0.243956 0.532479 -0.640013
H14   H     H_    0.043816 0.244985 0.528716 0.296151
O29   O     O_3   0.824331 0.933666 0.015417 -0.649308
H15   H     H_    0.796361 0.008844 0.966629 0.298033
O30   O     O_3   0.174359 0.403081 0.987789 -0.649188
H16   H     H_    0.197553 0.341074 0.046068 0.292172

loop_
_geom_bond_atom_site_label_1
_geom_bond_atom_site_label_2
_ccdc_geom_bond_type
C24   C26   A    
O27   H13   S    
O30   H16   S    
C9    C31   A    
C13   C15   A    
O1    C3    A    
C5    O23   S    
C26   O30   S    
O2    C4    A    
C2    O7    A    
O24   H10   S    
O16   C44   A    
O22   H8    S    
C12   O28   S    
O5    C3    A    
C1    C40   S    
C21   C23   A    
C10   C12   A    
O18   V4    S    
C27   O25   S    
C15   C19   A    
O12   V3    S    
C11   O27   S    
C6    O24   S    
O15   V3    S    
O13   C41   A    
O14   C42   A    
C34   C43   S    
C7    C29   A    
C14   H6    S    
C8    C30   A    
H1    C29   S    
C20   C28   A    
O17   V3    S    
C33   C44   S    
C38   C40   T    
O5    V1    S    
C23   O21   S    
O6    V2    S    
C2    C39   S    
C25   O29   S    
H2    C30   S    
C34   C36   T    
C35   C37   S    
C36   C38   S    
C9    H3    S    
C16   C20   A    
C10   H4    S    
C42   O17   A    
O4    C2    A    
O29   H15   S    
C28   O26   S    
O13   V3    S    
O26   H12   S    
C4    C7    S    
C33   C35   T    
O4    V2    S    
O21   H7    S    
C5    C29   A    
C6    C30   A    
O25   H11   S    
O12   C44   A    
O6    C4    A    
O1    V2    S    
O2    V1    S    
O11   V4    S    
O11   C43   A    
C7    C27   A    
O20   V4    S    
C37   C39   T    
O3    V1    S    
O19   V3    S    
C41   O18   A    
C3    C8    S    
C18   C32   A    
O20   V3    S    
O3    C1    A    
O19   V4    S    
C24   O22   S    
C11   C13   A    
C31   C42   S    
C12   C14   A    
C32   C41   S    
C19   C27   A    
C14   C16   A    
O7    V1    S    
C10   C32   A    
C1    O8    A    
C23   C25   A    
O8    V2    S    
C16   C18   A    
C8    C28   A    
O15   C43   A    
C22   C24   A    
C19   C21   A    
C17   C25   A    
C20   C22   A    
C18   C26   A    
O23   H9    S    
C9    C11   A    
C15   C17   A    
C17   C31   A    
O9    V2    S    
O10   V1    S    
O14   V4    S    
C5    C21   A    
O28   H14   S    
C6    C22   A    
C13   H5    S    
O16   V4    S    
