data_mof_unit_62648.cif
_audit_creation_date              2012-12-10T18:19:59-0500
_audit_creation_method            fapswitch 2.2
_symmetry_space_group_name_H-M    P1
_symmetry_Int_Tables_number       1
_space_group_crystal_system       triclinic
_cell_length_a                    41.705993
_cell_length_b                    35.645231
_cell_length_c                    21.90546
_cell_angle_alpha                 89.48381
_cell_angle_beta                  121.265583
_cell_angle_gamma                 90.48116
_cell_volume                      27834.2923557

loop_
_atom_site_label
_atom_site_type_symbol
_atom_type_description
_atom_site_fract_x
_atom_site_fract_y
_atom_site_fract_z
_atom_type_partial_charge
C1    C     C_R   0.427608 0.499887 0.928411 0.825414
C2    C     C_R   0.572379 0.500040 0.071479 0.826084
C3    C     C_R   0.927608 0.999887 0.928412 0.825503
C4    C     C_R   0.072379 0.000040 0.071479 0.826008
C5    C     C_2   0.504011 0.502011 0.820170 -0.314798
C6    C     C_2   0.496061 0.497943 0.179888 -0.294819
C7    C     C_2   0.004014 0.002010 0.820172 -0.314701
C8    C     C_2   0.996063 0.997939 0.179889 -0.295702
C9    C     C_R   0.173989 0.484340 0.719366 -0.175899
C10   C     C_R   0.825824 0.484710 0.280770 -0.175632
C11   C     C_R   0.673988 0.984339 0.719366 -0.175688
C12   C     C_R   0.325824 0.984710 0.280770 -0.175713
C13   C     C_R   0.134771 0.483116 0.682167 0.371927
C14   C     C_R   0.865030 0.483351 0.318045 0.372042
C15   C     C_R   0.634771 0.983116 0.682167 0.371967
C16   C     C_R   0.365030 0.983351 0.318045 0.372002
C17   C     C_R   0.113806 0.499385 0.613163 -0.117033
C18   C     C_R   0.886172 0.499491 0.386824 -0.117288
C19   C     C_R   0.613806 0.999385 0.613163 -0.117137
C20   C     C_R   0.386172 0.999491 0.386824 -0.117230
C21   C     C_R   0.133105 0.515996 0.582807 -0.243457
C22   C     C_R   0.867044 0.516109 0.416887 -0.243142
C23   C     C_R   0.633105 0.015996 0.582807 -0.243289
C24   C     C_R   0.367044 0.016109 0.416887 -0.243299
C25   C     C_R   0.172284 0.517051 0.620475 -0.149124
C26   C     C_R   0.827874 0.517300 0.379144 -0.148734
C27   C     C_R   0.672285 0.017051 0.620475 -0.148872
C28   C     C_R   0.327874 0.017300 0.379144 -0.148972
C29   C     C_R   0.192749 0.501346 0.688877 0.070699
C30   C     C_R   0.807239 0.501728 0.310953 0.070606
C31   C     C_R   0.692749 0.001346 0.688877 0.070564
C32   C     C_R   0.307239 0.001728 0.310953 0.070670
C33   C     C_1   0.233065 0.502139 0.727955 -0.025614
C34   C     C_1   0.766923 0.502644 0.271790 -0.025087
C35   C     C_1   0.733065 0.002139 0.727956 -0.025294
C36   C     C_1   0.266923 0.002644 0.271790 -0.025283
C37   C     C_1   0.266853 0.502197 0.761907 -0.025721
C38   C     C_1   0.733131 0.502765 0.237745 -0.025178
C39   C     C_1   0.766853 0.002196 0.761908 -0.025375
C40   C     C_1   0.233131 0.002765 0.237744 -0.025373
C41   C     C_R   0.325419 0.470680 0.847861 -0.176634
C42   C     C_R   0.674371 0.472047 0.149835 -0.175123
C43   C     C_R   0.825419 0.970681 0.847867 -0.176223
C44   C     C_R   0.174370 0.972047 0.149835 -0.175206
C45   C     C_R   0.501259 0.500282 0.883610 0.850501
C46   C     C_R   0.498769 0.499703 0.116414 0.847452
C47   C     C_R   0.001260 0.000282 0.883611 0.850658
C48   C     C_R   0.998770 0.999703 0.116415 0.847745
C49   C     C_R   0.364613 0.469589 0.889425 0.370988
C50   C     C_R   0.635170 0.470909 0.108303 0.370499
C51   C     C_R   0.864613 0.969590 0.889431 0.371075
C52   C     C_R   0.135170 0.970909 0.108302 0.370413
C53   C     C_R   0.386059 0.499841 0.886568 -0.116099
C54   C     C_R   0.613908 0.500276 0.113050 -0.114189
C55   C     C_R   0.886059 0.999841 0.886569 -0.116145
C56   C     C_R   0.113908 0.000276 0.113050 -0.114164
C57   C     C_R   0.367217 0.530839 0.842342 -0.245518
C58   C     C_R   0.632903 0.530546 0.158952 -0.243295
C59   C     C_R   0.867217 0.030838 0.842338 -0.245295
C60   C     C_R   0.132903 0.030546 0.158952 -0.243441
C61   C     C_R   0.328075 0.531608 0.801098 -0.151348
C62   C     C_R   0.672062 0.531376 0.200174 -0.149954
C63   C     C_R   0.828075 0.031606 0.801094 -0.151118
C64   C     C_R   0.172062 0.031376 0.200174 -0.150189
C65   C     C_R   0.307150 0.501486 0.803655 0.071361
C66   C     C_R   0.692821 0.502063 0.195854 0.070718
C67   C     C_R   0.807150 0.001486 0.803656 0.071273
C68   C     C_R   0.192821 0.002063 0.195854 0.070791
C69   C     C_R   0.500403 0.692813 0.501638 0.140779
C70   C     C_R   0.000403 0.192813 0.501638 0.140766
C71   C     C_R   0.466255 0.633876 0.466660 -0.188408
C72   C     C_R   0.534262 0.633982 0.534967 -0.184340
C73   C     C_R   0.966255 0.133876 0.466660 -0.188238
C74   C     C_R   0.034262 0.133982 0.534967 -0.184298
C75   C     C_1   0.000458 0.266968 0.502045 -0.050310
C76   C     C_1   0.500458 0.766968 0.502046 -0.050238
C77   C     C_R   0.000377 0.307318 0.501742 0.136878
C78   C     C_R   0.500377 0.807318 0.501742 0.136829
C79   C     C_R   0.499928 0.427670 0.500029 0.833935
C80   C     C_R   0.999929 0.927681 0.499938 0.815159
C81   C     C_R   0.466395 0.673087 0.467241 -0.152267
C82   C     C_R   0.534320 0.673202 0.535467 -0.151302
C83   C     C_R   0.966395 0.173087 0.467241 -0.152118
C84   C     C_R   0.034320 0.173202 0.535466 -0.151390
C85   C     C_R   0.499719 0.498731 0.617358 0.845253
C86   C     C_R   0.500281 0.501181 0.382638 0.856134
C87   C     C_R   0.999719 0.998729 0.617358 0.847242
C88   C     C_R   0.000280 0.001169 0.382637 0.845723
C89   C     C_R   0.500069 0.572363 0.500115 0.784563
C90   C     C_R   0.000069 0.072363 0.500114 0.785311
C91   C     C_R   0.000016 0.427780 0.500251 0.805171
C92   C     C_R   0.500016 0.927779 0.500251 0.805193
C93   C     C_R   0.072283 0.499535 0.572152 0.829175
C94   C     C_R   0.927707 0.499544 0.427853 0.829357
C95   C     C_R   0.572283 0.999535 0.572152 0.829212
C96   C     C_R   0.427707 0.999544 0.427853 0.829260
C97   C     C_R   0.999999 0.572379 0.499767 0.772659
C98   C     C_R   0.499999 0.072376 0.499766 0.772659
C99   C     C_R   0.999884 0.673276 0.443487 -0.150773
C100  C     C_R   0.999890 0.672971 0.554053 -0.151503
C101  C     C_R   0.499897 0.173260 0.443488 -0.150705
C102  C     C_R   0.499896 0.172956 0.554051 -0.152071
C103  C     C_R   0.999937 0.634058 0.443758 -0.183446
C104  C     C_R   0.999940 0.633776 0.554459 -0.182831
C105  C     C_R   0.499945 0.134044 0.443757 -0.183669
C106  C     C_R   0.499940 0.133765 0.554455 -0.182908
C107  C     C_R   0.999964 0.613878 0.499290 -0.034971
C108  C     C_R   0.499966 0.113868 0.499288 -0.034871
C109  C     C_R   0.999860 0.692773 0.498612 0.139598
C110  C     C_R   0.499873 0.192752 0.498613 0.139771
C111  C     C_1   0.999815 0.733089 0.498408 -0.058298
C112  C     C_1   0.499839 0.233061 0.498427 -0.059104
C113  C     C_R   0.000110 0.386258 0.500813 -0.038812
C114  C     C_R   0.500109 0.886258 0.500813 -0.038856
C115  C     C_1   0.499824 0.266843 0.498596 -0.025594
C116  C     C_1   0.999789 0.766876 0.498523 -0.024574
C117  C     C_R   0.472915 0.326937 0.439176 -0.205505
C118  C     C_R   0.526681 0.326492 0.559617 -0.184510
C119  C     C_R   0.973453 0.826947 0.438251 -0.185891
C120  C     C_R   0.026060 0.826541 0.559948 -0.186285
C121  C     C_R   0.472671 0.366261 0.439077 0.102730
C122  C     C_R   0.526901 0.365911 0.560941 0.111492
C123  C     C_R   0.973225 0.866358 0.437793 0.115640
C124  C     C_R   0.026284 0.865941 0.561173 0.119520
C125  C     C_R   0.499786 0.386126 0.500056 -0.046302
C126  C     C_R   0.999783 0.886147 0.499647 -0.062775
C127  C     C_R   0.499828 0.307158 0.499087 0.084254
C128  C     C_R   0.999778 0.807202 0.498888 0.076737
C129  C     C_R   0.000996 0.326863 0.557461 -0.147084
C130  C     C_R   0.999621 0.327112 0.445578 -0.147805
C131  C     C_R   0.500996 0.826863 0.557461 -0.147012
C132  C     C_R   0.499621 0.827112 0.445578 -0.147726
C133  C     C_R   0.000862 0.366091 0.557064 -0.162884
C134  C     C_R   0.999492 0.366320 0.445050 -0.162763
C135  C     C_R   0.500862 0.866091 0.557064 -0.162831
C136  C     C_R   0.499492 0.866320 0.445050 -0.162668
C137  C     C_1   0.500472 0.733160 0.501995 -0.054813
C138  C     C_1   0.000472 0.233160 0.501995 -0.054874
C139  C     C_R   0.500206 0.613881 0.500545 -0.036599
C140  C     C_R   0.000206 0.113881 0.500545 -0.037008
C141  C     C_2   0.524639 0.478936 0.741267 -0.156276
C142  C     C_2   0.475297 0.520841 0.258660 -0.145927
C143  C     C_2   0.024634 0.978928 0.741261 -0.156022
C144  C     C_2   0.975299 0.020829 0.258664 -0.144733
C145  C     C_2   0.498035 0.496047 0.681871 -0.316799
C146  C     C_2   0.501964 0.503840 0.318126 -0.311997
C147  C     C_2   0.998035 0.996045 0.681871 -0.316897
C148  C     C_2   0.001961 0.003819 0.318124 -0.317352
C149  C     C_2   0.521011 0.475332 0.804492 -0.128043
C150  C     C_2   0.478951 0.524527 0.195487 -0.147152
C151  C     C_2   0.021006 0.975326 0.804487 -0.127643
C152  C     C_2   0.978953 0.024520 0.195493 -0.146831
Cu1   Cu    Cu3+1 0.500000 0.537250 0.000000 0.959742
Cu2   Cu    Cu3+1 0.000000 0.037250 0.000000 0.959649
Cu3   Cu    Cu3+1 0.500000 0.462730 0.000000 1.074444
Cu4   Cu    Cu3+1 0.000000 0.962730 0.000000 1.074326
Cu5   Cu    Cu3+1 0.537260 0.499990 0.537250 0.978981
Cu6   Cu    Cu3+1 0.462740 0.499990 0.462750 0.973408
Cu7   Cu    Cu3+1 0.037260 0.999990 0.537250 0.977357
Cu8   Cu    Cu3+1 0.962740 0.999990 0.462750 0.976797
Cu9   Cu    Cu3+1 0.000000 0.500090 0.438970 1.012841
Cu10  Cu    Cu3+1 0.000000 0.500090 0.561030 1.012892
Cu11  Cu    Cu3+1 0.500000 0.000090 0.438970 1.012971
Cu12  Cu    Cu3+1 0.500000 0.000090 0.561030 1.012899
H1    H     H_    0.439980 0.688011 0.440850 0.138463
H2    H     H_    0.560807 0.688219 0.562214 0.139137
H3    H     H_    0.939980 0.188011 0.440850 0.138544
H4    H     H_    0.060807 0.188219 0.562213 0.139011
H5    H     H_    0.309144 0.447537 0.850512 0.172615
H6    H     H_    0.690504 0.449567 0.145778 0.172518
H7    H     H_    0.809145 0.947540 0.850522 0.172770
H8    H     H_    0.190504 0.949567 0.145777 0.172501
H9    H     H_    0.382814 0.554402 0.838987 0.169750
H10   H     H_    0.617408 0.553424 0.163684 0.169937
H11   H     H_    0.882813 0.054400 0.838979 0.169786
H12   H     H_    0.117408 0.053424 0.163684 0.169872
H13   H     H_    0.314151 0.555679 0.767209 0.146327
H14   H     H_    0.686122 0.554842 0.235461 0.146837
H15   H     H_    0.814151 0.055676 0.767201 0.146410
H16   H     H_    0.186123 0.054841 0.235462 0.146675
H17   H     H_    0.439570 0.619257 0.439700 0.156939
H18   H     H_    0.560867 0.619440 0.561540 0.158141
H19   H     H_    0.939570 0.119257 0.439700 0.157106
H20   H     H_    0.060867 0.119440 0.561539 0.158083
H21   H     H_    0.999863 0.688378 0.400316 0.138498
H22   H     H_    0.999875 0.687825 0.596979 0.138362
H23   H     H_    0.499881 0.188362 0.400323 0.138687
H24   H     H_    0.499880 0.187812 0.596975 0.138147
H25   H     H_    0.999954 0.619588 0.400523 0.159366
H26   H     H_    0.999957 0.619101 0.597973 0.159799
H27   H     H_    0.499963 0.119572 0.400525 0.159417
H28   H     H_    0.499953 0.119091 0.597966 0.159780
H29   H     H_    0.452153 0.311869 0.392161 0.146225
H30   H     H_    0.547292 0.310826 0.606029 0.140250
H31   H     H_    0.953281 0.811611 0.391053 0.141567
H32   H     H_    0.046216 0.810885 0.606866 0.140752
H33   H     H_    0.001578 0.311790 0.601198 0.140435
H34   H     H_    0.999123 0.312241 0.402167 0.140282
H35   H     H_    0.501578 0.811790 0.601198 0.140486
H36   H     H_    0.499123 0.812241 0.402168 0.140334
H37   H     H_    0.548287 0.465671 0.742347 0.169967
H38   H     H_    0.451572 0.533978 0.257481 0.165916
H39   H     H_    0.048278 0.965655 0.742337 0.170338
H40   H     H_    0.951578 0.033973 0.257493 0.166623
H41   H     H_    0.001373 0.380584 0.600795 0.167350
H42   H     H_    0.998889 0.380977 0.400956 0.167515
H43   H     H_    0.501373 0.880584 0.600795 0.167387
H44   H     H_    0.498890 0.880977 0.400956 0.167565
H45   H     H_    0.472376 0.505598 0.678024 0.156434
H46   H     H_    0.527669 0.494395 0.322036 0.155061
H47   H     H_    0.972379 0.005604 0.678026 0.156678
H48   H     H_    0.027663 0.994366 0.322031 0.155600
H49   H     H_    0.534138 0.451600 0.840280 0.188060
H50   H     H_    0.465742 0.548224 0.159657 0.165203
H51   H     H_    0.034126 0.951590 0.840269 0.188119
H52   H     H_    0.965745 0.048220 0.159669 0.165202
H53   H     H_    0.494583 0.527726 0.788851 0.154577
H54   H     H_    0.505574 0.472247 0.211252 0.159457
H55   H     H_    0.994592 0.027727 0.788859 0.154511
H56   H     H_    0.005575 0.972241 0.211246 0.158034
H57   H     H_    0.189891 0.471721 0.772050 0.172524
H58   H     H_    0.809789 0.472189 0.228262 0.172507
H59   H     H_    0.689891 0.971720 0.772050 0.172681
H60   H     H_    0.309789 0.972189 0.228262 0.172488
H61   H     H_    0.117841 0.528646 0.530122 0.169054
H62   H     H_    0.882441 0.528668 0.469389 0.169303
H63   H     H_    0.617841 0.028646 0.530123 0.169135
H64   H     H_    0.382441 0.028668 0.469389 0.169223
H65   H     H_    0.186592 0.530163 0.596296 0.146584
H66   H     H_    0.813707 0.530416 0.403099 0.146804
H67   H     H_    0.686592 0.030162 0.596297 0.146754
H68   H     H_    0.313707 0.030416 0.403099 0.146669
O1    O     O_R   0.445630 0.531460 0.945630 -0.602256
O2    O     O_R   0.554370 0.531460 0.054370 -0.597844
O3    O     O_R   0.945630 0.031460 0.945630 -0.602261
O4    O     O_R   0.054370 0.031460 0.054370 -0.597882
O5    O     O_R   0.054370 0.500090 0.502830 -0.596883
O6    O     O_R   0.945630 0.500090 0.497170 -0.596745
O7    O     O_R   0.554370 0.000090 0.502830 -0.596806
O8    O     O_R   0.445630 0.000090 0.497170 -0.596769
O9    O     O_R   0.054360 0.500110 0.605880 -0.524069
O10   O     O_R   0.945640 0.500110 0.394120 -0.523909
O11   O     O_R   0.554360 0.000110 0.605880 -0.524074
O12   O     O_R   0.445640 0.000110 0.394120 -0.523933
O13   O     O_R   0.000010 0.554450 0.448450 -0.589623
O14   O     O_R   0.999990 0.554450 0.551550 -0.589438
O15   O     O_R   0.500010 0.054450 0.448450 -0.589645
O16   O     O_R   0.499990 0.054450 0.551550 -0.589487
O17   O     O_R   0.445610 0.468530 0.945600 -0.525617
O18   O     O_R   0.554390 0.468530 0.054400 -0.529933
O19   O     O_R   0.945610 0.968530 0.945600 -0.525541
O20   O     O_R   0.054390 0.968530 0.054400 -0.530003
O21   O     O_R   0.500010 0.531460 0.910980 -0.592113
O22   O     O_R   0.499990 0.531460 0.089020 -0.588983
O23   O     O_R   0.000010 0.031460 0.910980 -0.592159
O24   O     O_R   0.999990 0.031460 0.089020 -0.588938
O25   O     O_R   0.499990 0.468530 0.910950 -0.563820
O26   O     O_R   0.500010 0.468530 0.089050 -0.566795
O27   O     O_R   0.999990 0.968530 0.910950 -0.563639
O28   O     O_R   0.000010 0.968530 0.089050 -0.567153
O29   O     O_R   0.531450 0.445630 0.531430 -0.562427
O30   O     O_R   0.468550 0.445630 0.468570 -0.560995
O31   O     O_R   0.031450 0.945630 0.531430 -0.560964
O32   O     O_R   0.968550 0.945630 0.468570 -0.557913
O33   O     O_R   0.531450 0.499990 0.620480 -0.575105
O34   O     O_R   0.468550 0.499990 0.379520 -0.572140
O35   O     O_R   0.031450 0.999990 0.620480 -0.574687
O36   O     O_R   0.968550 0.999990 0.379520 -0.575210
O37   O     O_R   0.468510 0.499990 0.557540 -0.587667
O38   O     O_R   0.531490 0.499990 0.442460 -0.586529
O39   O     O_R   0.968510 0.999990 0.557540 -0.585546
O40   O     O_R   0.031490 0.999990 0.442460 -0.585781
O41   O     O_R   0.531470 0.554350 0.531480 -0.587769
O42   O     O_R   0.468530 0.554350 0.468520 -0.592402
O43   O     O_R   0.031470 0.054350 0.531480 -0.587486
O44   O     O_R   0.968530 0.054350 0.468520 -0.591587
O45   O     O_R   0.999980 0.445730 0.448470 -0.574025
O46   O     O_R   0.000020 0.445730 0.551530 -0.574131
O47   O     O_R   0.499980 0.945730 0.448470 -0.573983
O48   O     O_R   0.500020 0.945730 0.551530 -0.574125
Cl1   Cl    Cl    0.385061 0.430575 0.946503 -0.590373
Cl2   Cl    Cl    0.614415 0.433097 0.048774 -0.606062
Cl3   Cl    Cl    0.885062 0.930578 0.946516 -0.590137
Cl4   Cl    Cl    0.114415 0.933097 0.048773 -0.606130
N1    N     N_3   0.445433 0.385950 0.376169 -0.565656
H69   H     H_    0.448568 0.377798 0.333824 0.223800
H70   H     H_    0.418759 0.377468 0.364384 0.228363
N2    N     N_3   0.554025 0.385464 0.624350 -0.557892
H71   H     H_    0.572966 0.366617 0.662830 0.220885
H72   H     H_    0.539560 0.397955 0.646035 0.205517
N3    N     N_3   0.946687 0.886383 0.374258 -0.551514
H73   H     H_    0.927989 0.867770 0.334994 0.221834
H74   H     H_    0.961703 0.899573 0.353895 0.213548
N4    N     N_3   0.052785 0.885517 0.625119 -0.557671
H75   H     H_    0.071375 0.866680 0.664156 0.220160
H76   H     H_    0.037724 0.898062 0.645510 0.206650
Cl5   Cl    Cl    0.113604 0.459178 0.723103 -0.596690
Cl6   Cl    Cl    0.885934 0.459419 0.277495 -0.596356
Cl7   Cl    Cl    0.613603 0.959177 0.723102 -0.596169
Cl8   Cl    Cl    0.385934 0.959419 0.277495 -0.596420

loop_
_geom_bond_atom_site_label_1
_geom_bond_atom_site_label_2
_ccdc_geom_bond_type
Cu5   O29   S    
C61   H13   S    
Cu5   Cu6   S    
Cu6   O34   S    
C55   C59   A    
C142  C146  D    
Cu11  O15   S    
N3    H73   S    
C83   H3    S    
C26   H66   S    
C120  H32   S    
C148  H48   S    
C97   O13   A    
Cu10  O6    S    
C29   C33   S    
C100  C104  A    
C5    C149  D    
C9    C13   A    
C96   O12   A    
C42   H6    S    
C3    O3    A    
C144  H40   S    
C11   C15   A    
C72   C139  A    
C5    H53   S    
C12   C16   A    
C1    O1    A    
C70   C84   A    
C141  C145  D    
C119  C128  A    
C143  C151  S    
C15   Cl7   S    
C100  C109  A    
C113  C133  A    
C4    C56   S    
C89   O41   A    
C130  C134  A    
C80   O31   A    
C41   C49   A    
Cu2   O23   S    
C25   C29   A    
C27   C31   A    
C28   C32   A    
C4    O20   A    
C11   H59   S    
Cu3   O26   S    
C30   C34   S    
C88   O36   A    
C123  C126  A    
C101  C110  A    
C41   H5    S    
C17   C21   A    
C91   O46   A    
C19   C23   A    
C44   H8    S    
C84   H4    S    
C85   O33   A    
C52   Cl4   S    
C10   C30   A    
C90   C140  S    
C16   C20   A    
C13   Cl5   S    
C88   C148  S    
C77   C129  A    
Cu10  O9    S    
C57   H9    S    
C70   C138  S    
C60   H12   S    
C86   O34   A    
C99   H21   S    
Cu11  O7    S    
Cu1   O21   S    
C48   O28   A    
C75   C138  T    
C71   C139  A    
C57   C61   A    
C119  C123  A    
C59   C63   A    
C60   C64   A    
N1    H70   S    
C80   C126  S    
C49   C53   A    
Cu1   O2    S    
C51   C55   A    
C149  H49   S    
C117  H29   S    
C10   H58   S    
C97   C107  S    
C61   C65   A    
C79   O30   A    
C114  C136  A    
C103  C107  A    
Cu12  O11   S    
C73   C83   A    
C104  C107  A    
C129  H33   S    
C46   O26   A    
C143  H39   S    
C105  H27   S    
C100  H22   S    
C106  H28   S    
Cu3   O17   S    
Cu4   O19   S    
C98   C108  S    
C76   C137  T    
C121  C125  A    
C152  H52   S    
Cu6   O37   S    
Cu11  O47   S    
C64   C68   A    
N3    H74   S    
C3    O19   A    
C109  C111  S    
C73   H19   S    
C1    O17   A    
C74   H20   S    
C132  H36   S    
C118  C122  A    
C78   C132  A    
C69   C82   A    
C3    C55   S    
C93   O5    A    
Cu6   O30   S    
C37   C65   S    
C28   H68   S    
C119  H31   S    
C44   C52   A    
C20   C96   S    
C4    O4    A    
C124  N4    S    
C145  H45   S    
C58   H10   S    
C101  C105  A    
C62   C66   A    
C99   C103  A    
C10   C14   A    
C43   H7    S    
C74   C140  A    
N2    H72   S    
C92   O48   A    
Cu9   O13   S    
C132  C136  A    
C75   C77   S    
C98   O16   A    
C42   C50   A    
C103  H25   S    
Cu8   O36   S    
C40   C68   S    
C17   C93   S    
C118  C127  A    
C19   C95   S    
C124  C126  A    
C21   C25   A    
C18   C22   A    
C24   C28   A    
C74   C84   A    
C90   O44   A    
C26   C30   A    
C22   H62   S    
C117  C121  A    
C16   Cl8   S    
C13   C17   A    
C14   Cl6   S    
C122  C125  A    
C144  C152  S    
Cu9   O45   S    
C106  C108  A    
C49   Cl1   S    
C110  C112  S    
C43   C67   A    
C63   H15   S    
Cu8   O32   S    
C151  H51   S    
C101  H23   S    
C87   O35   A    
C71   C81   A    
C58   C62   A    
C80   O32   A    
Cu9   Cu10  S    
Cu2   O24   S    
C15   C19   A    
C25   H65   S    
C50   C54   A    
C87   C147  S    
C50   Cl2   S    
C142  H38   S    
C135  H43   S    
Cu5   O41   S    
N4    H75   S    
Cu3   O25   S    
C134  H42   S    
Cu9   O5    S    
C99   C109  A    
C85   O37   A    
C91   O45   A    
C71   H17   S    
C12   H60   S    
C6    H54   S    
C2    O2    A    
C47   O27   A    
Cu2   O3    S    
C111  C116  T    
Cu8   O44   S    
Cu1   Cu3   S    
C123  N3    S    
Cu2   Cu4   S    
Cu4   O27   S    
C96   O8    A    
C147  H47   S    
C86   C146  S    
C2    C54   S    
C97   O14   A    
C136  H44   S    
C53   C57   A    
C5    C45   S    
C33   C37   T    
C56   C60   A    
C7    C47   S    
C35   C39   T    
C8    C48   S    
C47   O23   A    
N1    H69   S    
Cu7   Cu8   S    
Cu1   O1    S    
C121  N1    S    
C70   C83   A    
C117  C127  A    
Cu9   O10   S    
C7    C151  D    
C113  C134  A    
C89   O42   A    
C79   O29   A    
C31   C35   S    
C102  C110  A    
C32   C36   S    
C82   H2    S    
Cu7   O40   S    
Cu8   O39   S    
C8    C152  D    
C76   C78   S    
C120  C128  A    
Cu7   O31   S    
C45   O25   A    
Cu5   O33   S    
C131  C135  A    
C142  C150  S    
C43   C51   A    
C85   C145  S    
C77   C130  A    
C41   C65   A    
C118  H30   S    
C69   C81   A    
C6    C150  D    
C9    H57   S    
C22   C26   A    
C93   O9    A    
Cu7   O35   S    
C46   O22   A    
Cu1   O22   S    
C14   C18   A    
Cu11  Cu12  S    
C144  C148  D    
Cu10  O46   S    
C141  C149  S    
C143  C147  D    
C95   O11   A    
C141  H37   S    
C59   H11   S    
C2    O18   A    
C64   H16   S    
C133  H41   S    
C115  C127  S    
C122  N2    S    
C1    C53   S    
C87   O39   A    
C94   O6    A    
C20   C24   A    
C89   C139  S    
Cu12  O8    S    
C114  C135  A    
C90   O43   A    
C23   C27   A    
C48   O24   A    
C9    C29   A    
C7    H55   S    
C11   C31   A    
C12   C32   A    
C51   Cl3   S    
C146  H46   S    
Cu3   O18   S    
C88   O40   A    
Cu6   O42   S    
C69   C137  S    
C105  C108  A    
C63   C67   A    
C38   C66   S    
C36   C40   T    
C86   O38   A    
C95   O7    A    
C102  H24   S    
C91   C113  S    
Cu10  O14   S    
C131  H35   S    
C78   C131  A    
C8    H56   S    
C104  H26   S    
Cu11  O12   S    
C27   H67   S    
Cu4   O20   S    
C18   C94   S    
C129  C133  A    
C44   C68   A    
C54   C58   A    
C6    C46   S    
C34   C38   T    
C39   C67   S    
C62   H14   S    
C23   H63   S    
C73   C140  A    
C21   H61   S    
Cu7   O43   S    
N2    H71   S    
C92   O47   A    
C94   O10   A    
C72   H18   S    
C98   O15   A    
C24   H64   S    
N4    H76   S    
Cu5   O38   S    
C102  C106  A    
C150  H50   S    
C79   C125  S    
Cu12  O16   S    
C52   C56   A    
C116  C128  S    
Cu2   O4    S    
C42   C66   A    
C81   H1    S    
Cu12  O48   S    
C130  H34   S    
C92   C114  S    
C112  C115  T    
C72   C82   A    
C120  C124  A    
C45   O21   A    
Cu4   O28   S    
