data_mof_unit_37227.cif
_audit_creation_date              2012-12-10T17:48:54-0500
_audit_creation_method            fapswitch 2.2
_symmetry_space_group_name_H-M    P1
_symmetry_Int_Tables_number       1
_space_group_crystal_system       triclinic
_cell_length_a                    10.71853
_cell_length_b                    14.68911
_cell_length_c                    14.732312
_cell_angle_alpha                 64.811996
_cell_angle_beta                  103.5306
_cell_angle_gamma                 102.952445
_cell_volume                      2020.17185391

loop_
_atom_site_label
_atom_site_type_symbol
_atom_type_description
_atom_site_fract_x
_atom_site_fract_y
_atom_site_fract_z
_atom_type_partial_charge
C1    C     C_R   0.477463 0.119933 0.312165 0.792687
C2    C     C_R   0.455244 0.360834 0.075819 0.089983
C3    C     C_R   0.444814 0.323072 0.999926 0.162011
C4    C     C_R   0.259967 0.999888 0.500401 0.750751
C5    C     C_R   0.458619 0.466536 0.047701 0.062519
C6    C     C_R   0.473559 0.534339 0.946646 0.076525
C7    C     C_R   0.455984 0.494194 0.872215 -0.170297
C8    C     C_R   0.441326 0.390114 0.898459 -0.227873
C9    C     C_R   0.441688 0.506306 0.115566 -0.215021
C10   C     C_R   0.440596 0.609695 0.084582 -0.209960
C11   C     C_R   0.465288 0.677215 0.987766 0.138636
C12   C     C_3   0.877856 0.998763 0.500598 0.143792
C13   C     C_R   0.492860 0.640588 0.920798 0.054011
C14   C     C_R   0.461812 0.781060 0.956642 -0.197521
C15   C     C_R   0.482114 0.848068 0.858843 -0.232634
C16   C     C_R   0.521397 0.880298 0.687735 0.831892
C17   C     C_R   0.537857 0.712075 0.830347 0.065465
C18   C     C_R   0.734618 0.294754 0.651800 -0.291860
C19   C     C_R   0.690884 0.207565 0.631782 0.080509
C20   C     C_R   0.517073 0.284707 0.509687 0.029024
C21   C     C_R   0.556319 0.376010 0.526762 -0.027637
C22   C     C_R   0.669105 0.379672 0.598446 0.061591
C23   C     C_3   0.958614 0.989503 0.605608 -0.375955
C24   C     C_R   0.489324 0.463224 0.475388 0.036112
C25   C     C_R   0.538111 0.553009 0.496162 -0.050256
C26   C     C_R   0.662443 0.557276 0.556904 0.378559
C27   C     C_R   0.720451 0.469653 0.612249 -0.173057
C28   C     C_R   0.740017 0.999355 0.500429 0.772097
C29   C     C_R   0.376281 0.464245 0.403006 -0.210099
C30   C     C_R   0.310536 0.548156 0.354962 -0.206421
C31   C     C_R   0.349979 0.632160 0.381036 0.174536
C32   C     C_R   0.461440 0.634825 0.454224 -0.023070
C33   C     C_R   0.276936 0.713002 0.335743 -0.323985
C34   C     C_3   0.931680 0.098704 0.417576 -0.372098
C35   C     C_R   0.312185 0.794905 0.364996 0.075015
C36   C     C_R   0.486785 0.717489 0.485219 0.001104
C37   C     C_3   0.036119 0.908596 0.477937 -0.357754
C38   C     C_3   0.893473 0.907690 0.479026 -0.372211
C39   C     C_3   0.102623 0.989193 0.605832 -0.378771
C40   C     C_3   0.076066 0.099438 0.418197 -0.384372
C41   C     C_3   0.121840 0.999394 0.500660 0.152954
C42   C     C_R   0.462141 0.188042 0.204215 -0.056429
C43   C     C_R   0.518561 0.813620 0.794822 -0.083757
C44   C     C_R   0.437526 0.218485 0.026470 -0.195022
C45   C     C_R   0.445414 0.151227 0.128046 -0.200524
C46   C     C_R   0.466272 0.291994 0.177666 -0.254139
Cu1   Cu    Cu3+1 0.465900 0.918260 0.475680 0.940668
Cu2   Cu    Cu3+1 0.534100 0.081740 0.524320 0.925835
H1    H     H_    0.067235 0.835408 0.535716 0.187961
H2    H     H_    0.483268 0.318460 0.238007 0.150589
H3    H     H_    0.046788 0.914292 0.402214 0.164938
H4    H     H_    0.447657 0.542802 0.792295 0.177297
H5    H     H_    0.420176 0.458620 0.190984 0.140205
H6    H     H_    0.437568 0.809600 0.006210 0.137876
H7    H     H_    0.812438 0.474310 0.661249 0.172527
H8    H     H_    0.561703 0.720520 0.547106 0.202156
H9    H     H_    0.257038 0.858005 0.329056 0.122168
H10   H     H_    0.225084 0.545775 0.299057 0.140381
H11   H     H_    0.821099 0.296675 0.706901 0.138264
H12   H     H_    0.921297 0.165513 0.431000 0.175823
H13   H     H_    0.743189 0.142904 0.671051 0.121270
H14   H     H_    0.434405 0.275785 0.454931 0.114276
H15   H     H_    0.835624 0.911158 0.404512 0.166603
H16   H     H_    0.336033 0.401262 0.380949 0.121302
H17   H     H_    0.192761 0.712684 0.278291 0.139367
H18   H     H_    0.857295 0.835177 0.538869 0.220361
H19   H     H_    0.134556 0.917386 0.665978 0.161054
H20   H     H_    0.921077 0.918271 0.666293 0.177308
H21   H     H_    0.134812 0.165905 0.433055 0.166997
H22   H     H_    0.089938 0.108324 0.342147 0.150860
H23   H     H_    0.162782 0.053160 0.624452 0.172030
H24   H     H_    0.875430 0.106187 0.341545 0.154037
H25   H     H_    0.723161 0.698318 0.485359 0.306221
H26   H     H_    0.950076 0.054160 0.623294 0.167793
H27   H     H_    0.429044 0.362152 0.839206 0.148451
H28   H     H_    0.468576 0.926640 0.833055 0.160533
H29   H     H_    0.421061 0.636967 0.136955 0.148569
H30   H     H_    0.427484 0.188913 0.968727 0.132351
H31   H     H_    0.441369 0.070935 0.147053 0.152600
I1    I     I_    0.679939 0.680897 0.769820 -0.409757
N1    N     N_R   0.585360 0.204570 0.560800 -0.179637
N2    N     N_R   0.414550 0.795430 0.439160 -0.183076
O1    O     O_R   0.455060 0.022100 0.338110 -0.588155
O2    O     O_R   0.512640 0.160150 0.379180 -0.586246
O3    O     O_R   0.288900 0.930980 0.479450 -0.592064
O4    O     O_R   0.346480 0.069030 0.520520 -0.592835
O5    O     O_R   0.487360 0.839850 0.620820 -0.558574
O6    O     O_R   0.544940 0.977900 0.661890 -0.590507
O7    O     O_R   0.653520 0.930970 0.479480 -0.583633
O8    O     O_R   0.711100 0.069020 0.520550 -0.590602
O9    O     O_3   0.737652 0.646783 0.555846 -0.742637

loop_
_geom_bond_atom_site_label_1
_geom_bond_atom_site_label_2
_ccdc_geom_bond_type
C34   H24   S    
C33   H17   S    
C7    C8    A    
C39   C41   S    
C2    C46   A    
C1    O2    A    
C12   C23   S    
C26   C27   A    
C29   C30   A    
C40   H22   S    
C12   C28   S    
C37   C41   S    
C34   C40   S    
Cu1   O3    S    
C7    H4    S    
C30   C31   A    
C37   H3    S    
C11   C14   A    
C27   H7    S    
C4    O4    A    
C4    C41   S    
Cu2   N1    S    
C18   C19   A    
C42   C46   A    
Cu1   N2    S    
C24   C29   A    
C35   N2    A    
C31   C32   A    
C36   N2    A    
C16   O5    A    
Cu2   O6    S    
C28   O7    A    
Cu1   O1    S    
C9    C10   A    
C25   C32   A    
C15   H28   S    
C29   H16   S    
Cu2   O8    S    
C20   N1    A    
C34   H12   S    
Cu1   O7    S    
C10   H29   S    
C3    C44   A    
C40   H21   S    
C38   H18   S    
C24   C25   A    
H25   O9    S    
C3    C8    A    
C4    O3    A    
C25   C26   A    
C17   I1    S    
Cu2   O2    S    
C42   C45   A    
Cu1   O5    S    
C23   H20   S    
C17   C43   A    
C5    C9    A    
C37   C38   S    
C36   H8    S    
C37   H1    S    
C1    C42   S    
Cu1   Cu2   S    
C31   C33   A    
C45   H31   S    
C16   C43   S    
C40   C41   S    
C14   H6    S    
C22   C27   A    
Cu2   O4    S    
C2    C5    A    
C9    H5    S    
C23   H26   S    
C12   C34   S    
C12   C38   S    
C32   C36   A    
C44   C45   A    
C38   H15   S    
C18   C22   A    
C39   H19   S    
C6    C7    A    
C1    O1    A    
C46   H2    S    
C13   C17   A    
C35   H9    S    
C44   H30   S    
C2    C3    A    
C26   O9    S    
C15   C43   A    
C19   N1    A    
C6    C13   A    
C11   C13   A    
C5    C6    A    
C19   H13   S    
C23   C39   S    
C30   H10   S    
C33   C35   A    
C8    H27   S    
C20   H14   S    
C10   C11   A    
C18   H11   S    
C20   C21   A    
C21   C24   A    
C16   O6    A    
C39   H23   S    
C14   C15   A    
C28   O8    A    
C21   C22   A    
