data_mof_unit_10206.cif
_audit_creation_date              2012-12-10T16:57:47-0500
_audit_creation_method            fapswitch 2.2
_symmetry_space_group_name_H-M    P1
_symmetry_Int_Tables_number       1
_space_group_crystal_system       triclinic
_cell_length_a                    7.762819
_cell_length_b                    8.577762
_cell_length_c                    19.053447
_cell_angle_alpha                 91.116025
_cell_angle_beta                  85.100897
_cell_angle_gamma                 93.745183
_cell_volume                      1261.26563319

loop_
_atom_site_label
_atom_site_type_symbol
_atom_type_description
_atom_site_fract_x
_atom_site_fract_y
_atom_site_fract_z
_atom_type_partial_charge
C1    C     C_R   0.545909 0.794829 0.498181 0.969488
C2    C     C_R   0.671564 0.623632 0.183478 0.018298
C3    C     C_R   0.506405 0.574952 0.855180 0.042057
C4    C     C_R   0.519171 0.608021 0.147971 0.040859
C5    C     C_R   0.661585 0.586797 0.811587 -0.162305
C6    C     C_R   0.360406 0.561763 0.184932 -0.157043
C7    C     C_R   0.660944 0.557607 0.739862 -0.195691
C8    C     C_R   0.353494 0.526073 0.255855 -0.196213
C9    C     C_R   0.504623 0.517347 0.710643 -0.044417
C10   C     C_R   0.505674 0.535046 0.290392 -0.043880
C11   C     C_R   0.524788 0.621178 0.071676 0.281286
C12   C     C_R   0.454092 0.205171 0.501801 0.973187
C13   C     C_R   0.515532 0.600183 0.930744 0.278629
C14   C     C_1   0.186517 0.505267 0.868607 0.166956
C15   C     C_1   0.836001 0.682000 0.149356 0.164865
C16   C     C_2   0.570082 0.958304 0.497111 -0.377657
C17   C     C_2   0.429921 0.041685 0.502831 -0.379162
C18   C     C_R   0.501144 0.501456 0.634689 0.868018
C19   C     C_R   0.500101 0.504753 0.365392 0.867271
C20   C     C_R   0.349277 0.503006 0.753867 -0.230463
C21   C     C_R   0.663865 0.585582 0.254229 -0.227765
C22   C     C_R   0.348814 0.530449 0.826037 0.019046
H1    H     H_    0.228133 0.469941 0.731408 0.157386
H2    H     H_    0.986022 0.618080 0.552734 0.188099
H3    H     H_    0.781343 0.598392 0.281388 0.159554
H4    H     H_    0.783740 0.620259 0.832970 0.164696
H5    H     H_    0.242377 0.547538 0.158369 0.168674
H6    H     H_    0.782054 0.570507 0.707141 0.153893
H7    H     H_    0.229984 0.489340 0.283330 0.154173
H8    H     H_    0.702394 0.009512 0.491647 0.180221
H9    H     H_    0.297610 0.990473 0.508290 0.180317
H10   H     H_    0.013975 0.381911 0.447272 0.189995
N1    N     N_R   0.656034 0.557867 0.961426 -0.149432
N2    N     N_R   0.385827 0.667231 0.040911 -0.151818
N3    N     N_R   0.660188 0.567522 0.030757 -0.145125
N4    N     N_R   0.381806 0.657754 0.971444 -0.148665
N5    N     N_2   0.950330 0.457950 0.481240 -0.174650
N6    N     N_2   0.049670 0.542050 0.518760 -0.174657
N7    N     N_1   0.056539 0.484728 0.902652 -0.168251
N8    N     N_1   0.967536 0.729025 0.122064 -0.175942
O1    O     O_R   0.389250 0.738570 0.504600 -0.609983
O2    O     O_R   0.610750 0.261430 0.495400 -0.608770
O3    O     O_R   0.678400 0.711620 0.492580 -0.630619
O4    O     O_R   0.321600 0.288380 0.507420 -0.628153
O5    O     O_R   0.355380 0.513500 0.607880 -0.619445
O6    O     O_R   0.644620 0.486500 0.392120 -0.620427
O7    O     O_R   0.644530 0.486550 0.595850 -0.626620
O8    O     O_R   0.355470 0.513450 0.404150 -0.625628
Zn1   Zn    Zn3+2 0.306930 0.517990 0.508030 0.943442
Zn2   Zn    Zn3+2 0.693070 0.482010 0.491970 0.942372

loop_
_geom_bond_atom_site_label_1
_geom_bond_atom_site_label_2
_ccdc_geom_bond_type
C12   C17   S    
O4    Zn1   S    
C2    C4    A    
O3    Zn2   S    
C13   N1    A    
N5    N6    D    
N5    Zn2   S    
C5    C7    A    
O6    Zn2   S    
C9    C20   A    
H2    N6    S    
C6    H5    S    
C3    C13   S    
C20   H1    S    
O5    Zn1   S    
C10   C19   S    
C18   O7    A    
C14   C22   S    
C2    C21   A    
C11   N3    A    
C19   O6    A    
C12   O4    A    
C1    C16   S    
H10   N5    S    
C4    C11   S    
C2    C15   S    
O2    Zn2   S    
C6    C8    A    
C8    H7    S    
O1    Zn1   S    
O8    Zn1   S    
N1    N3    A    
C20   C22   A    
O7    Zn2   S    
N2    N4    A    
C11   N2    A    
C10   C21   A    
C17   H9    S    
C15   N8    T    
C16   H8    S    
C5    H4    S    
C18   O5    A    
C9    C18   S    
N6    Zn1   S    
C13   N4    A    
C4    C6    A    
C1    O1    A    
C7    C9    A    
C21   H3    S    
C19   O8    A    
C3    C22   A    
C12   O2    A    
C14   N7    T    
C1    O3    A    
C8    C10   A    
C7    H6    S    
C16   C17   D    
C3    C5    A    
