data_mof_unit_17914.cif
_audit_creation_date              2012-12-10T17:48:49-0500
_audit_creation_method            fapswitch 2.2
_symmetry_space_group_name_H-M    P1
_symmetry_Int_Tables_number       1
_space_group_crystal_system       triclinic
_cell_length_a                    10.731131
_cell_length_b                    14.686316
_cell_length_c                    14.709333
_cell_angle_alpha                 64.714534
_cell_angle_beta                  103.473773
_cell_angle_gamma                 103.283463
_cell_volume                      2015.91932244

loop_
_atom_site_label
_atom_site_type_symbol
_atom_type_description
_atom_site_fract_x
_atom_site_fract_y
_atom_site_fract_z
_atom_type_partial_charge
C1    C     C_R   0.476324 0.120095 0.311997 0.862542
C2    C     C_3   0.877939 0.998639 0.500505 -0.001215
C3    C     C_3   0.959657 0.001277 0.601937 -0.412245
C4    C     C_3   0.931193 0.094437 0.410314 -0.154217
C5    C     C_R   0.475036 0.187921 0.204102 -0.089343
C6    C     C_R   0.542933 0.812150 0.796480 -0.052413
C7    C     C_R   0.504687 0.216209 0.035611 -0.125720
C8    C     C_R   0.486928 0.149987 0.134431 -0.252693
C9    C     C_R   0.477002 0.292909 0.172455 0.344668
C10   C     C_R   0.522265 0.361222 0.080599 0.014314
C11   C     C_R   0.522787 0.322151 0.007501 0.027579
C12   C     C_R   0.260262 0.998926 0.501762 0.838178
C13   C     C_R   0.559962 0.467559 0.057174 0.023822
C14   C     C_R   0.556562 0.534739 0.953620 -0.002110
C15   C     C_R   0.551226 0.494112 0.880897 -0.228342
C16   C     C_R   0.539203 0.389829 0.907852 0.385398
C17   C     C_R   0.608875 0.508218 0.133339 -0.039256
C18   C     C_R   0.619862 0.614260 0.106184 -0.104626
C19   C     C_R   0.592222 0.680038 0.002923 0.060498
C20   C     C_R   0.562415 0.640490 0.926276 0.113475
C21   C     C_R   0.596733 0.785593 0.974073 -0.108660
C22   C     C_R   0.574028 0.850793 0.872118 -0.134971
C23   C     C_R   0.522481 0.879925 0.688078 0.837230
C24   C     C_R   0.534382 0.707640 0.824067 -0.207094
C25   C     C_R   0.744783 0.298186 0.644732 -0.101610
C26   C     C_R   0.696736 0.210247 0.625409 0.026245
C27   C     C_R   0.514315 0.282513 0.514488 0.085429
C28   C     C_R   0.554284 0.373776 0.531695 0.017099
C29   C     C_R   0.672012 0.380513 0.598716 0.110033
C30   C     C_R   0.481857 0.457913 0.484700 0.124239
C31   C     C_R   0.525501 0.546122 0.508522 0.104921
C32   C     C_R   0.641362 0.548205 0.576918 -0.202358
C33   C     C_R   0.712279 0.467771 0.620618 -0.064642
C34   C     C_R   0.740059 0.999368 0.500496 0.769732
C35   C     C_R   0.367548 0.457034 0.414227 -0.160046
C36   C     C_R   0.298506 0.538685 0.368476 -0.074157
C37   C     C_R   0.338484 0.625021 0.391519 0.059938
C38   C     C_R   0.452079 0.629552 0.462793 -0.071405
C39   C     C_R   0.266630 0.707212 0.344762 0.277243
C40   C     C_R   0.307454 0.791803 0.369892 0.034305
C41   C     C_R   0.486607 0.717957 0.485284 -0.003624
C42   C     C_3   0.036927 0.902455 0.488391 -0.311121
C43   C     C_3   0.895530 0.899009 0.494810 -0.347281
C44   C     C_3   0.104070 0.999406 0.604264 0.233030
C45   C     C_3   0.076462 0.094153 0.413456 -0.485515
C46   C     C_3   0.122463 0.997996 0.502857 0.018585
Cu1   Cu    Cu3+1 0.465900 0.918260 0.475680 0.962989
Cu2   Cu    Cu3+1 0.534100 0.081740 0.524320 0.988652
H1    H     H_    0.072061 0.831322 0.547171 0.215130
H2    H     H_    0.924195 0.163266 0.421776 0.142112
H3    H     H_    0.162123 0.069436 0.612681 0.136606
H4    H     H_    0.951367 0.071607 0.609948 0.161244
H5    H     H_    0.502348 0.679801 0.764304 0.153387
H6    H     H_    0.580248 0.931477 0.852659 0.174204
H7    H     H_    0.508723 0.183666 0.983010 0.215335
H8    H     H_    0.483448 0.069133 0.156409 0.194374
H9    H     H_    0.042564 0.904542 0.412845 0.202765
H10   H     H_    0.563025 0.541990 0.802947 0.164884
H11   H     H_    0.618251 0.819042 0.029811 0.163329
H12   H     H_    0.797742 0.474155 0.674681 0.185855
H13   H     H_    0.569306 0.727144 0.539835 0.131502
H14   H     H_    0.252835 0.854992 0.334651 0.164036
H15   H     H_    0.212258 0.532880 0.314640 0.207539
H16   H     H_    0.751206 0.146971 0.658945 0.150262
H17   H     H_    0.427577 0.271103 0.464301 0.150155
H18   H     H_    0.831877 0.886289 0.428711 0.220817
H19   H     H_    0.681021 0.611488 0.598788 0.123744
H20   H     H_    0.328404 0.394319 0.391494 0.167049
H21   H     H_    0.867430 0.832225 0.563888 0.174937
H22   H     H_    0.920986 0.935793 0.667567 0.210945
H23   H     H_    0.134303 0.163917 0.422714 0.176997
H24   H     H_    0.095094 0.097036 0.340763 0.207095
N1    N     N_R   0.585360 0.204570 0.560800 -0.198649
N2    N     N_R   0.414550 0.795430 0.439160 -0.208045
O1    O     O_R   0.455060 0.022100 0.338110 -0.592053
O2    O     O_R   0.512640 0.160150 0.379180 -0.534856
O3    O     O_R   0.288900 0.930980 0.479450 -0.588766
O4    O     O_R   0.346480 0.069030 0.520520 -0.588501
O5    O     O_R   0.487360 0.839850 0.620820 -0.584511
O6    O     O_R   0.544940 0.977900 0.661890 -0.576838
O7    O     O_R   0.653520 0.930970 0.479480 -0.588819
O8    O     O_R   0.711100 0.069020 0.520550 -0.597254
Cl1   Cl    Cl    0.536152 0.347403 0.811729 -0.657270
C47   C     C_2   0.665464 0.656881 0.185312 0.888233
O9    O     O_2   0.773020 0.707223 0.188956 -0.528898
O10   O     O_R   0.584392 0.640327 0.254391 -0.712619
H25   H     H_    0.625925 0.673450 0.304322 0.334860
Cl2   Cl    Cl    0.391728 0.334810 0.233828 -0.642851
C48   C     C_2   0.671693 0.443559 0.236097 0.910381
O11   O     O_2   0.655318 0.449488 0.312800 -0.554561
O12   O     O_R   0.750541 0.375939 0.244480 -0.721339
H26   H     H_    0.787503 0.336218 0.317715 0.350420
C49   C     C_2   0.872905 0.301752 0.709704 0.834697
O13   O     O_2   0.898216 0.227337 0.787239 -0.558462
O14   O     O_R   0.966979 0.387834 0.679939 -0.757167
H27   H     H_    0.050705 0.380131 0.729892 0.354580
Cl3   Cl    Cl    0.124884 0.707958 0.255146 -0.542092
Cl4   Cl    Cl    0.161635 0.893527 0.713571 -0.610731
C50   C     C_2   0.855157 0.105373 0.306354 0.860681
O15   O     O_2   0.850118 0.041628 0.272281 -0.581492
O16   O     O_R   0.795468 0.191732 0.247299 -0.740553
H28   H     H_    0.755887 0.194685 0.176671 0.352691

loop_
_geom_bond_atom_site_label_1
_geom_bond_atom_site_label_2
_ccdc_geom_bond_type
C25   C49   S    
C49   O13   D    
C45   H23   S    
Cu2   O2    S    
O14   H27   S    
C7    H7    S    
C8    H8    S    
C7    C8    A    
C22   H6    S    
C45   C46   S    
C7    C11   A    
O16   H28   S    
C30   C35   A    
C1    C5    S    
C36   C37   A    
C19   C21   A    
C47   O10   S    
C21   H11   S    
C9    Cl2   S    
C30   C31   A    
C39   Cl3   S    
C15   C16   A    
C6    C22   A    
C29   C33   A    
C26   N1    A    
C40   H14   S    
C18   C19   A    
C42   C46   S    
Cu2   O4    S    
C26   H16   S    
C13   C14   A    
C41   N2    A    
C44   Cl4   S    
Cu1   Cu2   S    
Cu2   O8    S    
C12   O4    A    
C18   C47   S    
C34   O7    A    
C41   H13   S    
C23   O6    A    
C48   O12   S    
C36   H15   S    
C9    C10   A    
C2    C34   S    
C43   H21   S    
C21   C22   A    
C45   H24   S    
C42   H9    S    
C44   C46   S    
C4    C45   S    
C25   C29   A    
C3    C44   S    
C1    O1    A    
C14   C20   A    
C3    H22   S    
C17   C48   S    
C47   O9    D    
C38   C41   A    
C12   C46   S    
O12   H26   S    
O10   H25   S    
C24   H5    S    
C16   Cl1   S    
C4    H2    S    
C35   C36   A    
C2    C4    S    
C5    C9    A    
C37   C38   A    
C27   H17   S    
C11   C16   A    
C50   O15   D    
C2    C43   S    
C6    C24   A    
C12   O3    A    
C17   C18   A    
C32   H19   S    
C44   H3    S    
C50   O16   S    
C33   H12   S    
C15   H10   S    
C42   C43   S    
Cu1   O3    S    
C39   C40   A    
C28   C29   A    
C1    O2    A    
Cu2   N1    S    
C31   C32   A    
Cu1   N2    S    
C10   C13   A    
C5    C8    A    
C3    H4    S    
C31   C38   A    
C13   C17   A    
C32   C33   A    
Cu2   O6    S    
C19   C20   A    
C28   C30   A    
C2    C3    S    
C25   C26   A    
Cu1   O1    S    
C37   C39   A    
Cu1   O5    S    
C35   H20   S    
C43   H18   S    
C6    C23   S    
C40   N2    A    
Cu1   O7    S    
C10   C11   A    
C42   H1    S    
C49   O14   S    
C4    C50   S    
C27   C28   A    
C14   C15   A    
C34   O8    A    
C23   O5    A    
C48   O11   D    
C27   N1    A    
C20   C24   A    
