data_mof_unit_56775.cif
_audit_creation_date              2012-12-10T17:51:22-0500
_audit_creation_method            fapswitch 2.2
_symmetry_space_group_name_H-M    P1
_symmetry_Int_Tables_number       1
_space_group_crystal_system       triclinic
_cell_length_a                    9.921444
_cell_length_b                    10.625781
_cell_length_c                    16.968412
_cell_angle_alpha                 92.017695
_cell_angle_beta                  85.301598
_cell_angle_gamma                 90.067142
_cell_volume                      1781.74328186

loop_
_atom_site_label
_atom_site_type_symbol
_atom_type_description
_atom_site_fract_x
_atom_site_fract_y
_atom_site_fract_z
_atom_type_partial_charge
Br1   Br    Br    0.670213 0.357495 0.947809 -0.520951
C1    C     C_R   0.499814 0.739131 0.501435 0.876521
C2    C     C_R   0.528891 0.482861 0.261781 0.005704
C3    C     C_R   0.512069 0.879032 0.649159 -0.192511
C4    C     C_R   0.481280 0.504950 0.652405 0.803702
C5    C     C_R   0.518887 0.949790 0.719477 -0.142130
C6    C     C_R   0.519351 0.080745 0.718507 -0.107814
C7    C     C_R   0.513020 0.141181 0.647211 -0.137893
C8    C     C_R   0.506643 0.070727 0.575226 0.035263
C9    C     C_R   0.506387 0.939076 0.576445 0.105250
C10   C     C_R   0.499438 0.871265 0.504407 -0.157182
C11   C     C_R   0.492793 0.928724 0.432767 -0.269153
C12   C     C_R   0.350847 0.493656 0.782435 -0.205416
C13   C     C_R   0.493930 0.057769 0.430336 0.442102
C14   C     C_R   0.500000 0.127941 0.501714 -0.258088
C15   C     C_R   0.846308 0.667570 0.602729 -0.153009
C16   C     C_R   0.500127 0.260570 0.499171 0.992072
C17   C     C_R   0.909483 0.749488 0.653754 -0.191769
C18   C     C_R   0.048935 0.748315 0.654450 -0.174702
C19   C     C_R   0.126008 0.665600 0.603879 -0.146685
C20   C     C_R   0.065403 0.581843 0.551055 0.162530
C21   C     C_R   0.920922 0.582287 0.550762 0.175746
C22   C     C_R   0.935228 0.421551 0.451219 -0.108738
C23   C     C_R   0.419168 0.443419 0.142024 -0.182409
C24   C     C_R   0.078282 0.421742 0.451147 -0.103802
C25   C     C_R   0.518582 0.497440 0.347389 0.938016
C26   C     C_R   0.469929 0.525487 0.737370 -0.025757
C27   C     C_R   0.577949 0.581460 0.773730 -0.209630
C28   C     C_R   0.570326 0.598657 0.854975 -0.092867
C29   C     C_R   0.456159 0.556937 0.900076 0.218884
C30   C     C_R   0.344227 0.509078 0.864216 -0.140035
C31   C     C_R   0.411458 0.458282 0.223310 -0.158574
C32   C     C_R   0.655037 0.488177 0.218131 -0.158126
C33   C     C_R   0.662363 0.474883 0.136172 -0.113130
C34   C     C_R   0.543801 0.455989 0.098230 0.148230
C35   C     C_2   0.461586 0.546288 0.984160 -0.336134
C36   C     C_2   0.546761 0.464926 0.013116 0.247854
H1    H     H_    0.669077 0.610021 0.739746 0.153425
H2    H     H_    0.849601 0.813954 0.693160 0.159220
H3    H     H_    0.313237 0.451337 0.255770 0.162682
H4    H     H_    0.097894 0.811866 0.694405 0.159874
H5    H     H_    0.232424 0.669950 0.607942 0.200602
H6    H     H_    0.137394 0.357817 0.411175 0.188366
H7    H     H_    0.747036 0.505318 0.247009 0.157622
H8    H     H_    0.255609 0.477294 0.899568 0.146910
H9    H     H_    0.327197 0.426956 0.112909 0.143018
H10   H     H_    0.265685 0.452546 0.754837 0.167025
H11   H     H_    0.390080 0.601692 0.023051 0.149984
H12   H     H_    0.758991 0.485062 0.102385 0.159585
H13   H     H_    0.656343 0.637115 0.883071 0.154846
H14   H     H_    0.323639 0.211399 0.282369 0.376376
H15   H     H_    0.487934 0.871817 0.378746 0.186428
H16   H     H_    0.510907 0.777593 0.652172 0.108968
H17   H     H_    0.523504 0.902881 0.774808 0.148593
H18   H     H_    0.524361 0.135728 0.773129 0.169495
H19   H     H_    0.513143 0.242885 0.649069 0.130794
H20   H     H_    0.887046 0.357430 0.411338 0.173278
H21   H     H_    0.739076 0.673512 0.605938 0.194372
N1    N     N_R   0.857140 0.501200 0.500750 -0.124761
N2    N     N_R   0.142740 0.501280 0.500770 -0.125643
O1    O     O_R   0.385310 0.683220 0.500000 -0.633563
O2    O     O_2   0.492453 0.029700 0.271670 -0.305463
O3    O     O_3   0.347805 0.214633 0.337877 -0.586971
O4    O     O_R   0.614640 0.683250 0.500010 -0.633863
O5    O     O_R   0.371780 0.500010 0.615800 -0.647037
O6    O     O_R   0.601110 0.500030 0.615800 -0.639247
O7    O     O_R   0.385360 0.316750 0.499990 -0.581251
O8    O     O_R   0.614690 0.316780 0.500000 -0.603280
O9    O     O_R   0.398890 0.499970 0.384200 -0.608180
O10   O     O_R   0.628220 0.499990 0.384200 -0.611773
O11   O     O_2   0.610756 0.212759 0.323996 -0.308636
S1    S     S_3+6 0.489944 0.128551 0.337454 0.015090
Zn1   Zn    Zn3+2 0.346870 0.499980 0.499990 0.970425
Zn2   Zn    Zn3+2 0.653130 0.500020 0.500010 0.967320

loop_
_geom_bond_atom_site_label_1
_geom_bond_atom_site_label_2
_ccdc_geom_bond_type
O10   Zn2   S    
C19   H5    S    
C10   C11   A    
C23   C31   A    
O9    Zn1   S    
C5    C6    A    
O7    Zn1   S    
C24   N2    A    
Br1   C36   S    
C3    H16   S    
C8    C9    A    
C18   C19   A    
C1    O1    A    
C27   H1    S    
C29   C30   A    
C17   H2    S    
C23   H9    S    
C12   H10   S    
C7    H19   S    
C22   C24   A    
C32   C33   A    
C8    C14   A    
O2    S1    D    
O11   S1    D    
C21   N1    A    
C4    O6    A    
C15   H21   S    
C20   C21   A    
O3    S1    S    
C22   N1    A    
C32   H7    S    
N1    Zn2   S    
C24   H6    S    
C28   C29   A    
C13   S1    S    
C5    H17   S    
C22   H20   S    
C1    C10   S    
C4    O5    A    
C27   C28   A    
C11   H15   S    
C11   C13   A    
C35   H11   S    
O1    Zn1   S    
C28   H13   S    
C31   H3    S    
C6    H18   S    
C2    C31   A    
C25   O10   A    
C16   O7    A    
C23   C34   A    
C9    C10   A    
C2    C32   A    
O8    Zn2   S    
O6    Zn2   S    
N2    Zn1   S    
C6    C7    A    
H14   O3    S    
C19   C20   A    
C20   N2    A    
C15   C17   A    
C33   C34   A    
C30   H8    S    
O5    Zn1   S    
C26   C27   A    
C14   C16   S    
C17   C18   A    
O4    Zn2   S    
C13   C14   A    
C35   C36   D    
C33   H12   S    
C15   C21   A    
C25   O9    A    
C34   C36   S    
C4    C26   S    
C3    C5    A    
C3    C9    A    
C12   C30   A    
C2    C25   S    
C12   C26   A    
C18   H4    S    
C1    O4    A    
C7    C8    A    
C16   O8    A    
C29   C35   S    
