data_mof_unit_63922.cif
_audit_creation_date              2012-12-10T18:21:52-0500
_audit_creation_method            fapswitch 2.2
_symmetry_space_group_name_H-M    P1
_symmetry_Int_Tables_number       1
_space_group_crystal_system       triclinic
_cell_length_a                    18.758499
_cell_length_b                    18.660997
_cell_length_c                    18.583675
_cell_angle_alpha                 109.11763
_cell_angle_beta                  109.818064
_cell_angle_gamma                 109.48869
_cell_volume                      5006.94678499

loop_
_atom_site_label
_atom_site_type_symbol
_atom_type_description
_atom_site_fract_x
_atom_site_fract_y
_atom_site_fract_z
_atom_type_partial_charge
C1    C     C_R   0.616590 0.621104 0.495289 0.862095
C2    C     C_3   0.179035 0.418928 0.201117 0.210149
C3    C     C_3   0.221506 0.475998 0.301797 -0.266339
C4    C     C_3   0.311522 0.497915 0.310245 -0.081726
C5    C     C_3   0.674377 0.663513 0.400538 0.009571
C6    C     C_3   0.758067 0.729521 0.410861 -0.490298
C7    C     C_3   0.680148 0.777083 0.525156 -0.040412
C8    C     C_3   0.777672 0.709290 0.562930 0.032524
C9    C     C_3   0.685672 0.689457 0.495757 0.083027
C10   C     C_3   0.811452 0.813128 0.502992 0.065453
C11   C     C_3   0.748831 0.844801 0.518531 -0.417280
C12   C     C_R   0.378901 0.499493 0.378520 0.881688
C13   C     C_3   0.851738 0.789273 0.574613 0.062836
C14   C     C_3   0.675759 0.405159 0.656322 -0.524379
C15   C     C_3   0.737156 0.399969 0.731774 0.049563
C16   C     C_3   0.777616 0.563528 0.709744 0.021602
C17   C     C_3   0.681040 0.520212 0.779102 0.041059
C18   C     C_3   0.686370 0.498861 0.691851 0.079991
C19   C     C_3   0.811110 0.495837 0.807051 0.084970
C20   C     C_3   0.850354 0.553687 0.769890 0.044364
C21   C     C_3   0.766725 0.537877 0.850473 -0.560639
C22   C     C_3   0.226115 0.236636 0.393057 0.389371
C23   C     C_R   0.373741 0.379038 0.494435 0.874828
C24   C     C_3   0.156727 0.167830 0.399108 -0.373778
C25   C     C_3   0.347670 0.266809 0.538439 -0.069245
C26   C     C_3   0.265337 0.351830 0.547909 0.036956
C27   C     C_3   0.303553 0.310365 0.492274 0.043171
C28   C     C_3   0.187286 0.187697 0.496027 0.002607
C29   C     C_3   0.277853 0.191642 0.536851 -0.009075
C30   C     C_3   0.198736 0.278877 0.552755 -0.042528
C31   C     C_R   0.001617 0.621417 0.122537 0.895737
C32   C     C_R   0.122107 0.500953 0.123682 0.888168
C33   C     C_R   0.002065 0.378932 0.880848 0.863902
C34   C     C_R   0.617306 0.496618 0.621997 0.871077
C35   C     C_R   0.879883 0.497370 0.876820 0.869977
C36   C     C_R   0.002376 0.880446 0.379487 0.878487
C37   C     C_R   0.879153 0.880336 0.501892 0.854932
C38   C     C_R   0.995462 0.116077 0.621784 0.852367
C39   C     C_R   0.120903 0.118837 0.497314 0.897946
C40   C     C_3   0.928340 0.647981 0.208394 -0.423281
C41   C     C_3   0.928253 0.716909 0.282781 0.416958
C42   C     C_3   0.092559 0.740413 0.279475 -0.061183
C43   C     C_3   0.991128 0.758295 0.162609 0.042244
C44   C     C_3   0.003282 0.690924 0.191225 0.042193
C45   C     C_3   0.320949 0.578083 0.300177 0.219334
C46   C     C_3   0.003188 0.811014 0.313520 0.065551
C47   C     C_3   0.097774 0.819629 0.347661 0.005543
C48   C     C_3   0.985653 0.825482 0.232365 -0.508242
C49   C     C_3   0.018085 0.246881 0.850806 0.048968
C50   C     C_3   0.005365 0.164212 0.775223 0.421853
C51   C     C_3   0.913894 0.258545 0.730445 -0.504639
C52   C     C_3   0.076044 0.347330 0.794570 -0.395512
C53   C     C_3   0.003709 0.309601 0.815862 0.076957
C54   C     C_3   0.995851 0.181871 0.693685 0.108661
C55   C     C_3   0.912840 0.191531 0.654730 0.037556
C56   C     C_3   0.230817 0.556612 0.290949 0.226008
C57   C     C_3   0.076642 0.271837 0.729487 -0.531861
C58   C     C_3   0.188432 0.499574 0.191003 -0.090199
C59   C     C_3   0.278840 0.521043 0.199440 -0.270383
C60   C     C_3   0.269265 0.440277 0.210399 0.199384
H1    H     H_    0.690696 0.390120 0.601860 0.216931
H2    H     H_    0.607038 0.354268 0.628647 0.164141
H3    H     H_    0.697916 0.371348 0.758846 0.170862
H4    H     H_    0.627354 0.459727 0.765991 0.151745
H5    H     H_    0.035249 0.892713 0.253641 0.135335
H6    H     H_    0.062940 0.387685 0.764674 0.182524
H7    H     H_    0.141635 0.391250 0.855059 0.195347
H8    H     H_    0.075470 0.284203 0.674895 0.168614
H9    H     H_    0.901552 0.305139 0.710649 0.165490
H10   H     H_    0.799589 0.700181 0.402853 0.189328
O1    O     O_R   0.592740 0.540340 0.447840 -0.616169
O2    O     O_R   0.053270 0.644880 0.093500 -0.623342
O3    O     O_R   0.041720 0.447740 0.093910 -0.616969
O4    O     O_R   0.146290 0.552270 0.093890 -0.630255
O5    O     O_R   0.949110 0.355140 0.908700 -0.642279
O6    O     O_R   0.053680 0.459670 0.908680 -0.629050
O7    O     O_R   0.856090 0.447760 0.908300 -0.631371
O8    O     O_R   0.960660 0.552280 0.908280 -0.635324
O9    O     O_R   0.052690 0.907450 0.460090 -0.625806
O10   O     O_R   0.947900 0.907390 0.355230 -0.632012
O11   O     O_R   0.959780 0.907430 0.552420 -0.638620
O12   O     O_R   0.592480 0.644870 0.552180 -0.628396
O13   O     O_R   0.854990 0.907370 0.447560 -0.632635
O14   O     O_R   0.052100 0.092610 0.644770 -0.628480
O15   O     O_R   0.947310 0.092550 0.539920 -0.625820
O16   O     O_R   0.145010 0.092640 0.552440 -0.638053
O17   O     O_R   0.040220 0.092570 0.447580 -0.626646
O18   O     O_R   0.407320 0.447740 0.355030 -0.629431
O19   O     O_R   0.407060 0.552270 0.459360 -0.629361
O20   O     O_R   0.407520 0.355130 0.447820 -0.632117
O21   O     O_R   0.407260 0.459660 0.552160 -0.631230
O22   O     O_R   0.592940 0.447730 0.540640 -0.636454
O23   O     O_R   0.592680 0.552260 0.644970 -0.614066
O24   O     O_R   0.948700 0.540360 0.093520 -0.639981
Zn1   Zn    Zn3+2 0.500170 0.430200 0.430330 0.909457
Zn2   Zn    Zn3+2 0.499830 0.569800 0.569670 0.909872
Zn3   Zn    Zn3+2 0.931370 0.430220 0.001110 0.917496
Zn4   Zn    Zn3+2 0.071010 0.569800 0.001080 0.920375
Zn5   Zn    Zn3+2 0.069970 0.000040 0.570020 0.900291
Zn6   Zn    Zn3+2 0.930030 0.999960 0.429990 0.914553
C61   C     C_3   0.209605 0.621050 0.340579 -0.956755
H11   H     H_    0.237458 0.635887 0.410145 0.251266
H12   H     H_    0.239673 0.682701 0.340168 0.252096
H13   H     H_    0.137600 0.592027 0.309597 0.234228
H14   H     H_    0.738410 0.745483 0.357159 0.181757
H15   H     H_    0.614763 0.761060 0.476209 0.141459
H16   H     H_    0.714249 0.853080 0.462558 0.166250
H17   H     H_    0.779745 0.724793 0.626656 0.170408
C62   C     C_3   0.795788 0.632183 0.541543 -0.989068
H18   H     H_    0.855146 0.649294 0.599849 0.239956
H19   H     H_    0.741564 0.571569 0.526281 0.274145
H20   H     H_    0.809742 0.619343 0.486697 0.251827
H21   H     H_    0.899571 0.771554 0.562999 0.176200
C63   C     C_3   0.905015 0.864840 0.671341 -0.978209
H22   H     H_    0.864948 0.889984 0.690485 0.263749
H23   H     H_    0.930169 0.840865 0.716142 0.238782
H24   H     H_    0.962831 0.920353 0.684151 0.269271
C64   C     C_3   0.685509 0.819426 0.615601 -0.850695
H25   H     H_    0.708750 0.890525 0.642232 0.228116
H26   H     H_    0.619398 0.791272 0.608019 0.251960
H27   H     H_    0.728413 0.810978 0.666032 0.240629
H28   H     H_    0.786327 0.910375 0.577320 0.175779
C65   C     C_3   0.402790 0.668186 0.356600 -0.931015
H29   H     H_    0.458079 0.662932 0.350937 0.217207
H30   H     H_    0.391003 0.713175 0.333604 0.244956
H31   H     H_    0.419500 0.694671 0.426538 0.256112
C66   C     C_3   0.765553 0.334043 0.697981 -0.957361
H32   H     H_    0.803278 0.352025 0.666280 0.253499
H33   H     H_    0.804253 0.327393 0.752887 0.252151
H34   H     H_    0.706712 0.268578 0.648220 0.247461
H35   H     H_    0.774165 0.544330 0.644813 0.167728
C67   C     C_3   0.896082 0.522033 0.721962 -0.950888
H36   H     H_    0.936334 0.499020 0.756186 0.264748
H37   H     H_    0.848422 0.468912 0.652812 0.238622
H38   H     H_    0.940136 0.577214 0.719490 0.238256
C68   C     C_3   0.658865 0.591863 0.815651 -0.859182
H39   H     H_    0.694721 0.652117 0.815376 0.265117
H40   H     H_    0.587490 0.566505 0.777371 0.247386
H41   H     H_    0.674632 0.609945 0.884575 0.226327
H42   H     H_    0.752220 0.512201 0.893163 0.183280
H43   H     H_    0.811301 0.609440 0.892412 0.203328
C69   C     C_3   0.801612 0.660549 0.748188 -0.984301
H44   H     H_    0.747034 0.668229 0.711379 0.268183
H45   H     H_    0.821224 0.691465 0.818846 0.251033
H46   H     H_    0.858700 0.697662 0.743860 0.239515
H47   H     H_    0.301615 0.539446 0.156936 0.163504
H48   H     H_    0.902836 0.619591 0.827566 0.179757
C70   C     C_3   0.255763 0.187600 0.333870 -0.882298
H49   H     H_    0.295690 0.162570 0.363916 0.219282
H50   H     H_    0.197611 0.129650 0.271529 0.218988
H51   H     H_    0.291898 0.228797 0.312891 0.265988
C71   C     C_3   0.181596 0.274511 0.341102 -0.906191
H52   H     H_    0.140413 0.226104 0.269414 0.237298
H53   H     H_    0.135624 0.288404 0.359186 0.233290
H54   H     H_    0.230875 0.334356 0.349215 0.228007
H55   H     H_    0.092918 0.165347 0.370329 0.185312
H56   H     H_    0.140974 0.100034 0.357918 0.151484
H57   H     H_    0.377281 0.240323 0.502037 0.207851
C72   C     C_3   0.276186 0.104395 0.492105 -0.970428
H58   H     H_    0.253386 0.079761 0.421205 0.240667
H59   H     H_    0.343051 0.114094 0.524620 0.248023
H60   H     H_    0.233529 0.052193 0.498485 0.262211
H61   H     H_    0.320860 0.397189 0.616602 0.163820
C73   C     C_3   0.235275 0.414719 0.526215 -0.868004
H62   H     H_    0.250508 0.468418 0.587944 0.225729
H63   H     H_    0.267902 0.445713 0.496334 0.251369
H64   H     H_    0.164639 0.383936 0.480953 0.240933
C74   C     C_3   0.111856 0.279437 0.533807 -0.879144
H65   H     H_    0.071389 0.259475 0.463895 0.249847
H66   H     H_    0.072265 0.234275 0.548833 0.246100
H67   H     H_    0.125199 0.345279 0.577332 0.236312
C75   C     C_3   0.292268 0.374749 0.165009 -0.889376
H68   H     H_    0.254357 0.346174 0.092762 0.239277
H69   H     H_    0.363027 0.408396 0.186952 0.244144
H70   H     H_    0.276762 0.321619 0.181620 0.248260
H71   H     H_    0.228978 0.293635 0.622592 0.121469
C76   C     C_3   0.426842 0.330724 0.633440 -1.032044
H72   H     H_    0.459688 0.295784 0.654861 0.251412
H73   H     H_    0.476237 0.386765 0.636861 0.255178
H74   H     H_    0.407010 0.355893 0.681675 0.242880
H75   H     H_    0.297178 0.206227 0.605915 0.192729
H76   H     H_    0.935422 0.597685 0.225151 0.170185
H77   H     H_    0.864337 0.609903 0.146034 0.188059
C77   C     C_3   0.835624 0.707457 0.246465 -0.906796
H78   H     H_    0.832175 0.755637 0.297117 0.252130
H79   H     H_    0.815330 0.714538 0.187058 0.229637
H80   H     H_    0.785304 0.641279 0.226347 0.229248
C78   C     C_3   0.941987 0.694971 0.358467 -0.932255
H81   H     H_    0.996225 0.680606 0.375647 0.230230
H82   H     H_    0.953588 0.748245 0.417954 0.246995
H83   H     H_    0.883249 0.634418 0.337769 0.234479
H84   H     H_    0.092572 0.693667 0.304249 0.176064
C79   C     C_3   0.151223 0.837035 0.442578 -0.880568
H85   H     H_    0.110971 0.806445 0.466872 0.262426
H86   H     H_    0.199135 0.813866 0.447423 0.234080
H87   H     H_    0.190827 0.908528 0.490031 0.244904
H88   H     H_    0.049661 0.794977 0.159973 0.178929
C80   C     C_3   0.097561 0.328748 0.148514 -0.895733
H89   H     H_    0.114541 0.281910 0.163570 0.235174
H90   H     H_    0.047725 0.332512 0.166521 0.247536
H91   H     H_    0.069604 0.305158 0.077129 0.249093
C81   C     C_3   0.913667 0.716651 0.070038 -0.979730
H92   H     H_    0.925502 0.676703 0.021535 0.245755
H93   H     H_    0.850644 0.675415 0.062964 0.251417
H94   H     H_    0.909096 0.768433 0.055030 0.247672
H95   H     H_    0.922094 0.823349 0.203640 0.225788
C82   C     C_3   0.176055 0.771516 0.271729 -0.939605
H96   H     H_    0.235687 0.811825 0.338010 0.243929
H97   H     H_    0.181365 0.715324 0.234695 0.270261
H98   H     H_    0.178098 0.812302 0.239731 0.244799
H99   H     H_    0.139778 0.879452 0.349133 0.167150
H100  H     H_    0.967166 0.224038 0.868736 0.165091
C83   C     C_3   0.105843 0.297702 0.939308 -0.974496
H101  H     H_    0.107424 0.257285 0.971519 0.244137
H102  H     H_    0.163304 0.316861 0.930032 0.255629
H103  H     H_    0.113494 0.358262 0.986692 0.242031
C84   C     C_3   0.080851 0.143994 0.810425 -0.813598
H104  H     H_    0.090807 0.141465 0.871636 0.222644
H105  H     H_    0.064415 0.077464 0.765288 0.248643
H106  H     H_    0.144133 0.192163 0.823587 0.223622
C85   C     C_3   0.922041 0.082285 0.747655 -1.005146
H107  H     H_    0.865189 0.092331 0.735274 0.244957
H108  H     H_    0.906572 0.026368 0.688347 0.239819
H109  H     H_    0.932200 0.064813 0.800644 0.250468
H110  H     H_    0.861668 0.226856 0.743490 0.191556
H111  H     H_    0.199221 0.457726 0.344644 0.151063
C86   C     C_3   0.821869 0.106362 0.592482 -0.892816
H112  H     H_    0.779112 0.099144 0.621767 0.233825
H113  H     H_    0.786112 0.107119 0.531537 0.237437
H114  H     H_    0.826888 0.046344 0.572021 0.247234
H115  H     H_    0.139272 0.273169 0.761188 0.195538
H116  H     H_    0.921373 0.221091 0.612720 0.174949
H117  H     H_    0.620588 0.672927 0.363883 0.136916
C87   C     C_3   0.646015 0.568780 0.336417 -0.864166
H118  H     H_    0.574767 0.525154 0.306876 0.245821
H119  H     H_    0.656230 0.566561 0.280385 0.224770
H120  H     H_    0.681960 0.541147 0.367425 0.266751

loop_
_geom_bond_atom_site_label_1
_geom_bond_atom_site_label_2
_ccdc_geom_bond_type
C50   C85   S    
C40   C41   S    
C8    C13   S    
C47   H99   S    
C14   C18   S    
C11   H16   S    
C16   C69   S    
C19   C20   S    
C69   H46   S    
C70   H51   S    
C39   O17   A    
C63   H22   S    
C65   H29   S    
O4    Zn4   S    
O2    Zn4   S    
C83   H101  S    
C45   C65   S    
C84   H106  S    
C15   C19   S    
C26   C27   S    
C1    O1    A    
C81   H93   S    
C78   H83   S    
O9    Zn5   S    
C28   C29   S    
C19   C21   S    
C70   H50   S    
C56   C61   S    
C85   H109  S    
C62   H19   S    
C17   H4    S    
C32   O4    A    
C5    C6    S    
C57   H115  S    
C2    C60   S    
C65   H30   S    
O1    Zn1   S    
C46   C48   S    
O6    Zn4   S    
C14   H2    S    
C49   C83   S    
C26   H61   S    
O5    Zn3   S    
C77   H78   S    
C7    C9    S    
C87   H119  S    
C69   H44   S    
C55   C86   S    
C49   C50   S    
C16   H35   S    
C64   H25   S    
O21   Zn2   S    
C54   C55   S    
C43   C81   S    
C33   O5    A    
C74   H67   S    
C45   C59   S    
C86   H112  S    
C45   C56   S    
C77   H79   S    
C67   H36   S    
C76   H73   S    
C81   H94   S    
O8    Zn4   S    
C82   H98   S    
C41   C46   S    
C72   H59   S    
C41   C77   S    
C36   C46   S    
C80   H89   S    
C32   C58   S    
C48   H5    S    
C4    C12   S    
C43   C48   S    
C51   C55   S    
C13   C63   S    
C75   H70   S    
C40   H77   S    
C76   H74   S    
C74   H66   S    
O18   Zn1   S    
C59   C60   S    
C61   H12   S    
C15   C66   S    
O10   Zn6   S    
C33   C53   S    
C7    C64   S    
C37   O11   A    
C42   C44   S    
C20   C67   S    
C68   H41   S    
C8    H17   S    
C30   H71   S    
C75   H69   S    
C7    C11   S    
C40   H76   S    
C4    C45   S    
C83   H102  S    
C25   C29   S    
C72   H60   S    
C22   C71   S    
C7    H15   S    
O12   Zn2   S    
C31   C44   S    
C12   O18   A    
C38   O15   A    
C82   H96   S    
C60   C75   S    
C61   H11   S    
C12   O19   A    
O20   Zn1   S    
C1    C9    S    
C70   H49   S    
C29   C72   S    
C81   H92   S    
C62   H20   S    
C32   O3    A    
C24   H56   S    
C8    C9    S    
C65   H31   S    
O11   Zn5   S    
O24   Zn3   S    
C79   H86   S    
C1    O12   A    
C14   H1    S    
C36   O9    A    
O22   Zn1   S    
C17   C21   S    
C3    C4    S    
C41   C78   S    
C78   H81   S    
C51   C53   S    
C64   H27   S    
O3    Zn3   S    
C43   C44   S    
C66   H33   S    
C5    C9    S    
C85   H107  S    
C73   H62   S    
C3    C56   S    
C33   O6    A    
C72   H58   S    
C38   C54   S    
C71   H54   S    
C16   C20   S    
C79   H87   S    
C4    C60   S    
C80   H91   S    
C17   C18   S    
C20   H48   S    
C42   C82   S    
C43   H88   S    
C16   C18   S    
C50   C54   S    
C52   C53   S    
O7    Zn3   S    
O16   Zn5   S    
C18   C34   S    
C3    H111  S    
C52   H7    S    
C29   H75   S    
C68   H40   S    
C31   O2    A    
C86   H113  S    
C22   C70   S    
C79   H85   S    
O23   Zn2   S    
C23   C27   S    
C22   C27   S    
C10   C37   S    
C36   O10   A    
C25   C27   S    
C22   C24   S    
C11   H28   S    
C84   H105  S    
C87   H118  S    
C57   H8    S    
C66   H32   S    
C69   H45   S    
C52   H6    S    
C75   H68   S    
O17   Zn6   S    
C83   H103  S    
C6    H10   S    
C46   C47   S    
C74   H65   S    
C50   C84   S    
C38   O14   A    
C2    C80   S    
O14   Zn5   S    
C55   H116  S    
C47   C79   S    
C73   H64   S    
C24   C28   S    
C71   H53   S    
C68   H39   S    
C5    H117  S    
C10   C13   S    
C6    C10   S    
C63   H23   S    
C2    C58   S    
C26   C30   S    
O13   Zn6   S    
C61   H13   S    
C31   O24   A    
C35   O8    A    
C28   C39   S    
C77   H80   S    
C51   H110  S    
C5    C87   S    
C10   C11   S    
C35   O7    A    
O19   Zn2   S    
C73   H63   S    
C2    C3    S    
C58   C59   S    
C66   H34   S    
C30   C74   S    
C85   H108  S    
O15   Zn6   S    
C19   C35   S    
C62   H18   S    
C54   C57   S    
C23   O20   A    
C67   H38   S    
C49   C53   S    
C49   H100  S    
C28   C30   S    
C6    H14   S    
C56   C58   S    
C17   C68   S    
C23   O21   A    
C42   C47   S    
C78   H82   S    
C34   O23   A    
C64   H26   S    
C26   C73   S    
C63   H24   S    
C84   H104  S    
C52   C57   S    
C21   H43   S    
C59   H47   S    
C42   H84   S    
C40   C44   S    
C86   H114  S    
C71   H52   S    
C67   H37   S    
C76   H72   S    
C48   H95   S    
C25   H57   S    
C82   H97   S    
C15   H3    S    
C14   C15   S    
C37   O13   A    
C80   H90   S    
C51   H9    S    
C21   H42   S    
C8    C62   S    
C25   C76   S    
C87   H120  S    
C13   H21   S    
C24   H55   S    
C39   O16   A    
C34   O22   A    
