data_mof_unit_67533.cif
_audit_creation_date              2013-03-05T15:41:21-0500
_audit_creation_method            fapswitch 2.2
_symmetry_space_group_name_H-M    P1
_symmetry_Int_Tables_number       1
_space_group_crystal_system       triclinic
_cell_length_a                    10.66552
_cell_length_b                    8.672289
_cell_length_c                    7.553796
_cell_angle_alpha                 101.703746
_cell_angle_beta                  95.114212
_cell_angle_gamma                 93.116529
_cell_volume                      679.552082808

loop_
_atom_site_label
_atom_site_type_symbol
_atom_site_description
_atom_site_fract_x
_atom_site_fract_y
_atom_site_fract_z
_atom_type_partial_charge
O1    O     O_R   0.509190 0.286130 0.619780 -0.575364
O2    O     O_R   0.490810 0.713870 0.380220 -0.575367
O3    O     O_R   0.485310 0.256770 0.308360 -0.531106
O4    O     O_R   0.514690 0.743230 0.691640 -0.531100
C1    C     C_R   0.493200 0.200705 0.455076 0.860327
C2    C     C_R   0.506801 0.799295 0.544924 0.860330
O5    O     O_R   0.328790 0.514640 0.655680 -0.560158
O6    O     O_R   0.671210 0.485360 0.344320 -0.560152
O7    O     O_R   0.304910 0.485280 0.344260 -0.530266
O8    O     O_R   0.695090 0.514720 0.655740 -0.530265
C3    C     C_R   0.260378 0.494992 0.500517 0.906928
C4    C     C_R   0.739622 0.505006 0.499482 0.906930
Cu1   Cu    Cu3+1 0.514140 0.517380 0.684380 1.209918
Cu2   Cu    Cu3+1 0.485860 0.482620 0.315620 1.209918
N1    N     N_2   0.464560 0.456420 0.038510 0.035676
N2    N     N_2   0.535440 0.543580 0.961490 0.035685
C5    C     C_3   0.048039 0.483720 0.664172 0.194772
C6    C     C_3   0.951961 0.516277 0.335827 0.194772
C7    C     C_3   0.949486 0.367109 0.535738 0.155249
C8    C     C_3   0.050514 0.632888 0.464262 0.155249
C9    C     C_3   0.875381 0.506888 0.497920 -0.374444
C10   C     C_3   0.124619 0.493109 0.502080 -0.374445
C11   C     C_3   0.974869 0.623516 0.626376 0.158766
C12   C     C_3   0.025132 0.376480 0.373624 0.158765
C13   C     C_2   0.479051 0.033493 0.433075 -0.214898
C14   C     C_2   0.520951 0.966506 0.566923 -0.214896
H1    H     H_    0.430315 0.965676 0.307652 0.243690
H2    H     H_    0.569689 0.034322 0.692345 0.243691
N3    N     N_R   0.890383 0.223277 0.574532 0.183060
O9    O     O_R   0.894364 0.088010 0.464091 -0.219681
O10   O     O_R   0.825171 0.231301 0.713007 -0.238735
N4    N     N_R   0.109617 0.776719 0.425468 0.183059
O11   O     O_R   0.105634 0.911987 0.535908 -0.219681
O12   O     O_R   0.174828 0.768696 0.286992 -0.238737
N5    N     N_R   0.101953 0.464147 0.841453 0.189207
O13   O     O_R   0.082583 0.330694 0.891060 -0.202838
O14   O     O_R   0.179248 0.574356 0.943276 -0.236483
N6    N     N_R   0.898050 0.535848 0.158545 0.189211
O15   O     O_R   0.917423 0.669299 0.108935 -0.202833
O16   O     O_R   0.820755 0.425639 0.056722 -0.236471
N7    N     N_R   0.950105 0.760892 0.762232 0.230478
O17   O     O_R   0.043169 0.842455 0.869664 -0.144391
O18   O     O_R   0.837607 0.811423 0.765617 -0.255665
N8    N     N_R   0.049896 0.239104 0.237768 0.230477
O19   O     O_R   0.956832 0.157542 0.130335 -0.144390
O20   O     O_R   0.162394 0.188574 0.234383 -0.255664
N9    N     N_R   0.453807 0.299261 0.951337 0.256588
O21   O     O_R   0.548935 0.214180 0.969885 -0.290159
O22   O     O_R   0.342477 0.229291 0.893479 -0.250492
N10   N     N_R   0.546207 0.700736 0.048674 0.256591
O23   O     O_R   0.451100 0.785846 0.030102 -0.290164
O24   O     O_R   0.657541 0.770678 0.106558 -0.250497

loop_
_geom_bond_atom_site_label_1
_geom_bond_atom_site_label_2
_geom_bond_distance
_ccdc_geom_bond_type
O5    Cu1   1.967717 S    
N6    O16   1.299128 A    
O7    Cu2   1.961938 S    
N3    O9    1.299454 A    
C5    C10   1.544158 S    
C13   H1    1.080087 S    
C6    C9    1.544160 S    
N7    O18   1.300157 A    
N7    O17   1.300490 A    
C3    C10   1.448275 S    
C14   H2    1.080080 S    
N9    O21   1.300548 A    
C11   N7    1.459033 S    
C8    C11   1.538342 S    
N1    N9    1.381946 S    
O6    C4    1.299288 A    
N4    O11   1.299456 A    
Cu2   N1    2.049758 S    
N10   O23   1.300559 A    
C6    N6    1.455439 S    
N9    O22   1.300257 A    
C5    C11   1.537505 S    
Cu1   Cu2   2.727769 S    
O5    C3    1.299287 A    
O7    C3    1.299936 A    
O2    C2    1.303955 A    
O3    Cu2   1.947926 S    
O8    C4    1.299936 A    
C1    C13   1.423781 S    
C10   C12   1.546617 S    
N5    O14   1.299129 A    
C12   N8    1.459033 S    
C8    C10   1.542767 S    
C7    C12   1.538341 S    
C6    C8    1.540571 S    
C9    C11   1.546618 S    
N6    O15   1.298572 A    
O2    Cu2   1.962059 S    
C6    C12   1.537505 S    
O1    Cu1   1.962057 S    
N1    N2    1.294612 D    
C7    N3    1.461110 S    
O3    C1    1.295441 A    
O1    C1    1.303958 A    
N8    O19   1.300489 A    
O4    C2    1.295442 A    
C8    N4    1.461108 S    
Cu1   N2    2.049758 S    
N10   O24   1.300237 A    
C2    C14   1.423777 S    
O6    Cu2   1.967719 S    
C5    N5    1.455440 S    
C5    C7    1.540572 S    
C13   C14   1.321146 D    
N3    O10   1.299290 A    
C4    C9    1.448277 S    
O8    Cu1   1.961938 S    
N8    O20   1.300158 A    
O4    Cu1   1.947926 S    
N2    N10   1.381938 S    
C7    C9    1.542769 S    
N5    O13   1.298575 A    
N4    O12   1.299296 A    
