data_mof_unit_64765.cif
_audit_creation_date              2012-12-10T17:14:32-0500
_audit_creation_method            fapswitch 2.2
_symmetry_space_group_name_H-M    P1
_symmetry_Int_Tables_number       1
_space_group_crystal_system       triclinic
_cell_length_a                    21.585517
_cell_length_b                    21.585684
_cell_length_c                    47.149843
_cell_angle_alpha                 89.999907
_cell_angle_beta                  89.999648
_cell_angle_gamma                 89.996602
_cell_volume                      21968.9105311

loop_
_atom_site_label
_atom_site_type_symbol
_atom_type_description
_atom_site_fract_x
_atom_site_fract_y
_atom_site_fract_z
_atom_type_partial_charge
C1    C     C_R   0.620179 0.495747 0.999977 0.844858
C2    C     C_R   0.504268 0.620179 0.999978 0.844774
C3    C     C_R   0.379821 0.504253 0.999977 0.844862
C4    C     C_R   0.495732 0.379821 0.999978 0.844774
C5    C     C_R   0.120179 0.995747 0.499978 0.844868
C6    C     C_R   0.004268 0.120179 0.499978 0.844781
C7    C     C_R   0.879821 0.004254 0.499978 0.844865
C8    C     C_R   0.995732 0.879821 0.499978 0.844777
C9    C     C_R   0.534776 0.782785 0.023590 0.070195
C10   C     C_R   0.217218 0.534863 0.023565 0.070202
C11   C     C_R   0.465226 0.217214 0.023591 0.070195
C12   C     C_R   0.782781 0.465137 0.023565 0.070203
C13   C     C_R   0.034770 0.282786 0.523592 0.070192
C14   C     C_R   0.717218 0.034860 0.523567 0.070202
C15   C     C_R   0.965227 0.717214 0.523592 0.070196
C16   C     C_R   0.282781 0.965139 0.523566 0.070200
C17   C     C_R   0.545949 0.718888 0.020587 0.024866
C18   C     C_R   0.281113 0.546020 0.020548 0.024872
C19   C     C_R   0.454053 0.281112 0.020588 0.024863
C20   C     C_R   0.718886 0.453980 0.020547 0.024873
C21   C     C_R   0.045944 0.218888 0.520590 0.024860
C22   C     C_R   0.781113 0.046017 0.520550 0.024869
C23   C     C_R   0.954054 0.781112 0.520590 0.024859
C24   C     C_R   0.218887 0.953982 0.520549 0.024871
C25   C     C_R   0.511516 0.686590 0.999562 -0.104723
C26   C     C_R   0.313411 0.511478 0.999560 -0.104603
C27   C     C_R   0.488484 0.313410 0.999562 -0.104725
C28   C     C_R   0.686589 0.488521 0.999560 -0.104605
C29   C     C_R   0.011516 0.186590 0.499563 -0.104737
C30   C     C_R   0.813411 0.011479 0.499561 -0.104612
C31   C     C_R   0.988483 0.813410 0.499563 -0.104733
C32   C     C_R   0.186588 0.988521 0.499560 -0.104612
C33   C     C_R   0.476504 0.718419 0.979313 -0.199980
C34   C     C_R   0.281590 0.476347 0.979354 -0.200065
C35   C     C_R   0.523495 0.281581 0.979313 -0.199978
C36   C     C_R   0.718411 0.523651 0.979353 -0.200066
C37   C     C_R   0.976509 0.218419 0.479312 -0.199958
C38   C     C_R   0.781590 0.976350 0.479354 -0.200055
C39   C     C_R   0.023492 0.781581 0.479312 -0.199962
C40   C     C_R   0.218411 0.023651 0.479354 -0.200053
C41   C     C_R   0.472206 0.781831 0.980388 -0.224960
C42   C     C_R   0.218177 0.472060 0.980433 -0.224842
C43   C     C_R   0.527793 0.218169 0.980387 -0.224961
C44   C     C_R   0.781824 0.527939 0.980432 -0.224845
C45   C     C_R   0.972211 0.281831 0.480386 -0.224951
C46   C     C_R   0.718177 0.972063 0.480432 -0.224834
C47   C     C_R   0.027790 0.718169 0.480386 -0.224958
C48   C     C_R   0.281824 0.027938 0.480432 -0.224828
C49   C     C_R   0.500686 0.813765 0.002384 -0.079267
C50   C     C_R   0.186237 0.500671 0.002395 -0.079471
C51   C     C_R   0.499314 0.186234 0.002384 -0.079265
C52   C     C_R   0.813763 0.499329 0.002394 -0.079466
C53   C     C_R   0.000686 0.313766 0.502384 -0.079278
C54   C     C_R   0.686237 0.000671 0.502395 -0.079474
C55   C     C_R   0.999314 0.686234 0.502384 -0.079272
C56   C     C_R   0.313763 0.999329 0.502395 -0.079477
C57   C     C_R   0.500000 0.000000 0.086591 -0.132035
C58   C     C_R   0.000000 0.500000 0.086587 -0.131849
C59   C     C_R   0.999999 0.499999 0.586591 -0.132047
C60   C     C_R   0.500000 1.000000 0.586587 -0.131856
C61   C     C_R   0.500000 0.000000 0.055454 0.824304
C62   C     C_R   1.000000 0.500000 0.055453 0.824359
C63   C     C_R   1.000000 0.500000 0.555454 0.824304
C64   C     C_R   0.500000 1.000000 0.555453 0.824358
C65   C     C_R   0.499949 0.879878 0.000954 0.866119
C66   C     C_R   0.120123 0.499945 0.000961 0.866084
C67   C     C_R   0.500051 0.120122 0.000954 0.866119
C68   C     C_R   0.879877 0.500055 0.000960 0.866082
C69   C     C_R   0.999949 0.379878 0.500954 0.866125
C70   C     C_R   0.620123 0.999945 0.500960 0.866089
C71   C     C_R   0.000051 0.620122 0.500954 0.866125
C72   C     C_R   0.379877 0.000055 0.500960 0.866090
C73   C     C_R   0.986937 0.445441 0.898587 -0.240144
C74   C     C_R   0.554663 0.987370 0.898585 -0.240150
C75   C     C_R   0.013065 0.554560 0.898587 -0.240132
C76   C     C_R   0.445339 0.012629 0.898585 -0.240151
C77   C     C_R   0.486987 0.945428 0.398587 -0.240127
C78   C     C_R   0.054664 0.487373 0.398585 -0.240152
C79   C     C_R   0.513017 0.054570 0.398587 -0.240118
C80   C     C_R   0.945338 0.512627 0.398585 -0.240151
C81   C     C_R   0.535270 0.045068 0.101712 0.097750
C82   C     C_R   0.954853 0.535171 0.101707 0.097652
C83   C     C_R   0.464731 0.954932 0.101712 0.097751
C84   C     C_R   0.045148 0.464829 0.101706 0.097650
C85   C     C_R   0.035276 0.545062 0.601713 0.097771
C86   C     C_R   0.454854 0.035173 0.601707 0.097651
C87   C     C_R   0.964722 0.454936 0.601712 0.097762
C88   C     C_R   0.545146 0.964826 0.601706 0.097645
C89   C     C_R   0.500000 1.000000 0.944585 0.905562
C90   C     C_R   0.000000 0.500000 0.944585 0.905535
C91   C     C_R   0.000000 0.500000 0.444585 0.905560
C92   C     C_R   0.500000 1.000000 0.444585 0.905543
C93   C     C_R   0.000001 0.500000 0.913482 -0.117324
C94   C     C_R   0.500001 1.000000 0.913481 -0.117435
C95   C     C_R   0.500001 0.999999 0.413482 -0.117349
C96   C     C_R   0.000001 0.500000 0.413481 -0.117436
C97   C     C_R   0.946598 0.514768 0.809634 0.488088
C98   C     C_R   0.514312 0.053524 0.809632 0.488110
C99   C     C_R   0.053404 0.485232 0.809633 0.488094
C100  C     C_R   0.485691 0.946475 0.809633 0.488110
C101  C     C_R   0.446586 0.014712 0.309634 0.488102
C102  C     C_R   0.014309 0.553525 0.309632 0.488112
C103  C     C_R   0.553422 0.985281 0.309633 0.488097
C104  C     C_R   0.985694 0.446474 0.309632 0.488112
C105  C     C_R   0.054493 0.484743 0.779951 -0.015105
C106  C     C_R   0.485208 0.945383 0.779951 -0.015116
C107  C     C_R   0.945507 0.515254 0.779952 -0.015101
C108  C     C_R   0.514795 0.054616 0.779951 -0.015116
C109  C     C_R   0.554512 0.984795 0.279951 -0.015107
C110  C     C_R   0.985211 0.445383 0.279951 -0.015117
C111  C     C_R   0.445495 0.015199 0.279952 -0.015110
C112  C     C_R   0.014792 0.554617 0.279951 -0.015117
C113  C     C_R   1.000000 0.499998 0.765050 -0.021657
C114  C     C_R   0.500001 1.000000 0.765050 -0.021653
C115  C     C_R   0.500003 0.999997 0.265050 -0.021666
C116  C     C_R   0.000001 0.500000 0.265050 -0.021652
C117  C     C_R   0.108459 0.469332 0.764895 -0.163983
C118  C     C_R   0.470248 0.891295 0.764895 -0.164010
C119  C     C_R   0.891540 0.530664 0.764896 -0.163986
C120  C     C_R   0.529755 0.108704 0.764895 -0.164011
C121  C     C_R   0.608493 0.969437 0.264895 -0.163978
C122  C     C_R   0.970254 0.391294 0.264895 -0.164010
C123  C     C_R   0.391514 0.030557 0.264896 -0.163979
C124  C     C_R   0.029748 0.608706 0.264895 -0.164011
C125  C     C_R   0.608385 0.969105 0.235332 -0.164073
C126  C     C_R   0.969909 0.391403 0.235333 -0.164082
C127  C     C_R   0.391622 0.030889 0.235334 -0.164072
C128  C     C_R   0.030093 0.608596 0.235332 -0.164082
C129  C     C_R   0.108351 0.468999 0.735332 -0.164074
C130  C     C_R   0.469902 0.891405 0.735333 -0.164081
C131  C     C_R   0.891648 0.530994 0.735333 -0.164073
C132  C     C_R   0.530100 0.108595 0.735332 -0.164082
C133  C     C_R   0.554360 0.984377 0.220270 -0.018268
C134  C     C_R   0.984775 0.445536 0.220270 -0.018243
C135  C     C_R   0.445646 0.015618 0.220270 -0.018268
C136  C     C_R   0.015226 0.554463 0.220270 -0.018243
C137  C     C_R   0.054341 0.484324 0.720270 -0.018275
C138  C     C_R   0.484772 0.945537 0.720270 -0.018242
C139  C     C_R   0.945657 0.515669 0.720270 -0.018276
C140  C     C_R   0.515230 0.054463 0.720270 -0.018242
C141  C     C_R   0.500003 0.999997 0.235173 -0.022351
C142  C     C_R   0.000001 0.500000 0.235172 -0.022340
C143  C     C_R   0.999999 0.499997 0.735172 -0.022350
C144  C     C_R   0.500001 1.000000 0.735172 -0.022342
C145  C     C_R   0.553133 0.984316 0.190576 0.506658
C146  C     C_R   0.984688 0.446765 0.190576 0.506638
C147  C     C_R   0.446873 0.015681 0.190576 0.506659
C148  C     C_R   0.015313 0.553234 0.190576 0.506638
C149  C     C_R   0.053114 0.484265 0.690575 0.506663
C150  C     C_R   0.484685 0.946766 0.690576 0.506636
C151  C     C_R   0.946883 0.515728 0.690576 0.506664
C152  C     C_R   0.515317 0.053233 0.690576 0.506636
C153  C     C_R   0.500003 0.999999 0.146055 0.218359
C154  C     C_R   0.000000 0.500000 0.146051 0.218083
C155  C     C_R   0.999999 0.499997 0.646055 0.218414
C156  C     C_R   0.500000 1.000000 0.646051 0.218084
C157  C     C_R   0.000002 0.500000 0.854059 0.260104
C158  C     C_R   0.500001 1.000000 0.854057 0.260134
C159  C     C_R   0.500004 0.999997 0.354058 0.260078
C160  C     C_R   0.000001 0.500000 0.354057 0.260136
C161  C     C_R   0.986384 0.444849 0.868949 0.189387
C162  C     C_R   0.555260 0.986830 0.868946 0.189374
C163  C     C_R   0.013620 0.555151 0.868949 0.189385
C164  C     C_R   0.444742 0.013169 0.868946 0.189373
C165  C     C_R   0.486436 0.944835 0.368949 0.189389
C166  C     C_R   0.055260 0.486833 0.368946 0.189374
C167  C     C_R   0.513572 0.055160 0.368948 0.189386
C168  C     C_R   0.944742 0.513167 0.368946 0.189374
C169  C     C_R   0.536494 0.042387 0.131356 -0.107201
C170  C     C_R   0.957512 0.536382 0.131351 -0.107117
C171  C     C_R   0.463510 0.957610 0.131356 -0.107201
C172  C     C_R   0.042488 0.463618 0.131351 -0.107118
C173  C     C_R   0.036499 0.542379 0.631357 -0.107221
C174  C     C_R   0.457515 0.036384 0.631351 -0.107118
C175  C     C_R   0.963498 0.457617 0.631357 -0.107217
C176  C     C_R   0.542486 0.963615 0.631351 -0.107118
C177  C     C_R   0.591341 0.690864 0.038515 0.161689
C178  C     C_R   0.309133 0.591511 0.038420 0.161685
C179  C     C_R   0.408662 0.309135 0.038517 0.161685
C180  C     C_R   0.690865 0.408489 0.038420 0.161685
C181  C     C_R   0.091330 0.190865 0.538521 0.161677
C182  C     C_R   0.809133 0.091504 0.538426 0.161663
C183  C     C_R   0.908666 0.809135 0.538520 0.161678
C184  C     C_R   0.190865 0.908492 0.538423 0.161668
C185  C     C_R   0.606594 0.720217 0.064515 0.227520
C186  C     C_R   0.279784 0.606907 0.064404 0.227606
C187  C     C_R   0.393412 0.279781 0.064517 0.227522
C188  C     C_R   0.720213 0.393094 0.064404 0.227605
C189  C     C_R   0.106573 0.220219 0.564522 0.227516
C190  C     C_R   0.779784 0.106892 0.564411 0.227597
C191  C     C_R   0.893420 0.779781 0.564520 0.227517
C192  C     C_R   0.220214 0.893101 0.564408 0.227601
C193  C     C_R   0.589663 0.782096 0.068596 -0.229585
C194  C     C_R   0.217913 0.589981 0.068511 -0.229696
C195  C     C_R   0.410343 0.217901 0.068597 -0.229582
C196  C     C_R   0.782084 0.410020 0.068511 -0.229695
C197  C     C_R   0.089643 0.282098 0.568601 -0.229577
C198  C     C_R   0.717911 0.089967 0.568515 -0.229693
C199  C     C_R   0.910349 0.717901 0.568599 -0.229583
C200  C     C_R   0.282085 0.910027 0.568514 -0.229694
C201  C     C_R   0.557314 0.814012 0.047708 -0.216226
C202  C     C_R   0.185997 0.557520 0.047662 -0.216224
C203  C     C_R   0.442689 0.185987 0.047709 -0.216223
C204  C     C_R   0.814002 0.442481 0.047661 -0.216225
C205  C     C_R   0.057302 0.314013 0.547711 -0.216222
C206  C     C_R   0.685995 0.057512 0.547663 -0.216218
C207  C     C_R   0.942692 0.685986 0.547709 -0.216226
C208  C     C_R   0.314002 0.942485 0.547663 -0.216221
H1    H     H_    0.564611 0.074581 0.143365 0.159449
H2    H     H_    0.925236 0.564412 0.143358 0.159653
H3    H     H_    0.435395 0.925416 0.143365 0.159449
H4    H     H_    0.074764 0.435588 0.143357 0.159654
H5    H     H_    0.064622 0.574568 0.643366 0.159410
H6    H     H_    0.425239 0.064416 0.643358 0.159653
H7    H     H_    0.935375 0.425428 0.643365 0.159412
H8    H     H_    0.574761 0.935583 0.643357 0.159655
H9    H     H_    0.976668 0.403100 0.910016 0.171761
H10   H     H_    0.597088 0.977452 0.910011 0.171865
H11   H     H_    0.023331 0.596901 0.910016 0.171764
H12   H     H_    0.402913 0.022548 0.910011 0.171865
H13   H     H_    0.476760 0.903078 0.410016 0.171778
H14   H     H_    0.097089 0.477457 0.410011 0.171866
H15   H     H_    0.523243 0.096920 0.410015 0.171776
H16   H     H_    0.902912 0.522543 0.410011 0.171866
H17   H     H_    0.150876 0.457392 0.775886 0.190772
H18   H     H_    0.458669 0.848783 0.775887 0.190784
H19   H     H_    0.849124 0.542604 0.775887 0.190770
H20   H     H_    0.541334 0.151216 0.775886 0.190784
H21   H     H_    0.650922 0.957539 0.275886 0.190772
H22   H     H_    0.958679 0.348782 0.275887 0.190786
H23   H     H_    0.349085 0.042454 0.275888 0.190772
H24   H     H_    0.041324 0.651218 0.275886 0.190786
H25   H     H_    0.650749 0.956960 0.224346 0.190946
H26   H     H_    0.958076 0.348956 0.224347 0.190969
H27   H     H_    0.349257 0.043035 0.224347 0.190945
H28   H     H_    0.041926 0.651043 0.224346 0.190970
H29   H     H_    0.150702 0.456812 0.724345 0.190944
H30   H     H_    0.458066 0.848958 0.724347 0.190967
H31   H     H_    0.849295 0.543180 0.724347 0.190942
H32   H     H_    0.541936 0.151041 0.724346 0.190967
H33   H     H_    0.450742 0.693980 0.963054 0.171930
H34   H     H_    0.306036 0.450497 0.963126 0.171858
H35   H     H_    0.549255 0.306020 0.963053 0.171931
H36   H     H_    0.693965 0.549500 0.963125 0.171857
H37   H     H_    0.950751 0.193980 0.463052 0.171930
H38   H     H_    0.806036 0.950503 0.463125 0.171857
H39   H     H_    0.049251 0.806020 0.463052 0.171929
H40   H     H_    0.193965 0.049499 0.463124 0.171854
H41   H     H_    0.602771 0.806378 0.087782 0.154962
H42   H     H_    0.193635 0.603186 0.087685 0.154901
H43   H     H_    0.397236 0.193619 0.087783 0.154961
H44   H     H_    0.806362 0.396815 0.087685 0.154900
H45   H     H_    0.102744 0.306380 0.587788 0.154970
H46   H     H_    0.693632 0.103168 0.587690 0.154901
H47   H     H_    0.897244 0.693618 0.587786 0.154969
H48   H     H_    0.306363 0.896824 0.587688 0.154899
H49   H     H_    0.547284 0.862473 0.051353 0.163210
H50   H     H_    0.137540 0.547499 0.051322 0.163334
H51   H     H_    0.452720 0.137525 0.051353 0.163208
H52   H     H_    0.862458 0.452502 0.051322 0.163333
H53   H     H_    0.047271 0.362475 0.551354 0.163202
H54   H     H_    0.637538 0.047491 0.551323 0.163330
H55   H     H_    0.952722 0.637524 0.551353 0.163208
H56   H     H_    0.362459 0.952506 0.551323 0.163331
H57   H     H_    0.446184 0.806088 0.964150 0.159750
H58   H     H_    0.193924 0.445952 0.964224 0.159869
H59   H     H_    0.553814 0.193913 0.964149 0.159748
H60   H     H_    0.806077 0.554046 0.964223 0.159867
H61   H     H_    0.946193 0.306088 0.464147 0.159745
H62   H     H_    0.693924 0.945957 0.464222 0.159862
H63   H     H_    0.053810 0.693913 0.464148 0.159746
H64   H     H_    0.306077 0.054045 0.464223 0.159863
N1    N     N_R   0.000001 0.500000 0.823714 -0.356785
N2    N     N_R   0.500001 1.000000 0.823713 -0.356801
N3    N     N_R   0.500004 0.999996 0.323714 -0.356805
N4    N     N_R   0.000002 0.500000 0.323713 -0.356801
N5    N     N_R   0.500003 0.999998 0.176416 -0.345376
N6    N     N_R   0.000000 0.500000 0.176414 -0.345315
N7    N     N_R   0.999999 0.499997 0.676416 -0.345386
N8    N     N_R   0.500001 1.000000 0.676414 -0.345315
O1    O     O_R   0.591590 0.499950 0.976370 -0.615688
O2    O     O_R   0.500050 0.591590 0.976370 -0.615697
O3    O     O_R   0.408410 0.500050 0.976370 -0.615687
O4    O     O_R   0.499950 0.408410 0.976370 -0.615697
O5    O     O_R   0.091590 0.999950 0.476370 -0.615685
O6    O     O_R   0.000050 0.091590 0.476370 -0.615695
O7    O     O_R   0.908410 0.000050 0.476370 -0.615683
O8    O     O_R   0.999950 0.908410 0.476370 -0.615695
O9    O     O_R   0.591570 0.499930 0.023700 -0.633577
O10   O     O_R   0.500070 0.591570 0.023700 -0.633595
O11   O     O_R   0.408430 0.500070 0.023700 -0.633580
O12   O     O_R   0.499930 0.408430 0.023700 -0.633599
O13   O     O_R   0.091570 0.999930 0.523700 -0.633585
O14   O     O_R   0.000070 0.091570 0.523700 -0.633607
O15   O     O_R   0.908430 0.000070 0.523700 -0.633588
O16   O     O_R   0.999930 0.908430 0.523700 -0.633603
O17   O     O_R   0.448240 0.999940 0.041970 -0.626260
O18   O     O_R   0.000060 0.448240 0.041970 -0.626263
O19   O     O_R   0.551760 0.000060 0.041970 -0.626260
O20   O     O_R   0.999940 0.551760 0.041970 -0.626264
O21   O     O_R   0.948240 0.499940 0.541970 -0.626263
O22   O     O_R   0.500060 0.948240 0.541970 -0.626264
O23   O     O_R   0.051760 0.500060 0.541970 -0.626261
O24   O     O_R   0.499940 0.051760 0.541970 -0.626264
O25   O     O_R   0.448230 0.908340 0.000040 -0.626678
O26   O     O_R   0.091660 0.448230 0.000040 -0.626646
O27   O     O_R   0.551770 0.091660 0.000040 -0.626678
O28   O     O_R   0.908340 0.551770 0.000040 -0.626645
O29   O     O_R   0.948230 0.408340 0.500040 -0.626679
O30   O     O_R   0.591660 0.948230 0.500040 -0.626649
O31   O     O_R   0.051770 0.591660 0.500040 -0.626679
O32   O     O_R   0.408340 0.051770 0.500040 -0.626649
O33   O     O_R   0.551670 0.908330 0.000040 -0.612061
O34   O     O_R   0.091670 0.551670 0.000040 -0.612125
O35   O     O_R   0.448330 0.091670 0.000040 -0.612061
O36   O     O_R   0.908330 0.448330 0.000040 -0.612125
O37   O     O_R   0.051670 0.408330 0.500040 -0.612059
O38   O     O_R   0.591670 0.051670 0.500040 -0.612120
O39   O     O_R   0.948330 0.591670 0.500040 -0.612061
O40   O     O_R   0.408330 0.948330 0.500040 -0.612120
O41   O     O_R   0.448240 0.999980 0.958120 -0.621754
O42   O     O_R   0.000020 0.448240 0.958120 -0.621681
O43   O     O_R   0.551760 0.000020 0.958120 -0.621754
O44   O     O_R   0.999980 0.551760 0.958120 -0.621683
O45   O     O_R   0.948240 0.499980 0.458120 -0.621755
O46   O     O_R   0.500020 0.948240 0.458120 -0.621690
O47   O     O_R   0.051760 0.500020 0.458120 -0.621755
O48   O     O_R   0.499980 0.051760 0.458120 -0.621689
O49   O     O_2   0.894988 0.529192 0.824377 -0.570720
O50   O     O_2   0.528286 0.105254 0.824376 -0.570716
O51   O     O_2   0.105017 0.470813 0.824376 -0.570707
O52   O     O_2   0.471717 0.894746 0.824376 -0.570715
O53   O     O_2   0.394960 0.029080 0.324377 -0.570692
O54   O     O_2   0.028280 0.605255 0.324376 -0.570715
O55   O     O_2   0.605047 0.970912 0.324376 -0.570697
O56   O     O_2   0.971723 0.394744 0.324376 -0.570715
O57   O     O_2   0.604406 0.968271 0.175927 -0.567647
O58   O     O_2   0.968981 0.395388 0.175930 -0.567722
O59   O     O_2   0.395601 0.031727 0.175928 -0.567647
O60   O     O_2   0.031020 0.604611 0.175930 -0.567723
O61   O     O_2   0.104372 0.468174 0.675926 -0.567634
O62   O     O_2   0.468974 0.895390 0.675931 -0.567723
O63   O     O_2   0.895625 0.531818 0.675927 -0.567634
O64   O     O_2   0.531027 0.104609 0.675930 -0.567724
Zn1   Zn    Zn3+2 0.500000 0.500000 0.968430 0.961551
Zn2   Zn    Zn3+2 0.000000 1.000000 0.468430 0.961555
Zn3   Zn    Zn3+2 0.500000 0.500000 0.031640 0.898642
Zn4   Zn    Zn3+2 0.000000 1.000000 0.531640 0.898621
Zn5   Zn    Zn3+2 0.430890 0.999960 0.000050 0.954604
Zn6   Zn    Zn3+2 0.000040 0.430890 0.000050 0.954633
Zn7   Zn    Zn3+2 0.569110 0.000040 0.000050 0.954603
Zn8   Zn    Zn3+2 0.999960 0.569110 0.000050 0.954632
Zn9   Zn    Zn3+2 0.930890 0.499960 0.500050 0.954600
Zn10  Zn    Zn3+2 0.500040 0.930890 0.500050 0.954628
Zn11  Zn    Zn3+2 0.069110 0.500040 0.500050 0.954601
Zn12  Zn    Zn3+2 0.499960 0.069110 0.500050 0.954629
C209  C     C_3   0.572022 0.096466 0.087234 -0.391264
C210  C     C_3   0.557394 0.160711 0.099289 -0.889510
H65   H     H_    0.506742 0.166630 0.102110 0.272078
H66   H     H_    0.580658 0.167565 0.120042 0.256030
H67   H     H_    0.574529 0.197040 0.084550 0.257915
H68   H     H_    0.622299 0.087089 0.089883 0.219927
H69   H     H_    0.562595 0.099077 0.064211 0.220736
C211  C     C_3   0.903391 0.571834 0.087226 -0.391321
C212  C     C_3   0.839165 0.557038 0.099257 -0.889542
H70   H     H_    0.833368 0.506369 0.102061 0.272060
H71   H     H_    0.832226 0.580255 0.120015 0.256039
H72   H     H_    0.802816 0.574110 0.084513 0.257977
H73   H     H_    0.912645 0.622126 0.089898 0.219974
H74   H     H_    0.900842 0.562449 0.064198 0.220653
C213  C     C_3   0.427978 0.903534 0.087234 -0.391273
C214  C     C_3   0.442605 0.839289 0.099288 -0.889522
H75   H     H_    0.493256 0.833370 0.102109 0.272083
H76   H     H_    0.419340 0.832434 0.120041 0.256034
H77   H     H_    0.425470 0.802961 0.084549 0.257917
H78   H     H_    0.377701 0.912912 0.089884 0.219932
H79   H     H_    0.437404 0.900924 0.064211 0.220739
C215  C     C_3   0.096609 0.428166 0.087226 -0.391319
C216  C     C_3   0.160835 0.442962 0.099256 -0.889543
H80   H     H_    0.166632 0.493630 0.102061 0.272061
H81   H     H_    0.167774 0.419744 0.120014 0.256039
H82   H     H_    0.197185 0.425890 0.084511 0.257978
H83   H     H_    0.087355 0.377874 0.089898 0.219974
H84   H     H_    0.099158 0.437551 0.064197 0.220652
C217  C     C_3   0.072035 0.596457 0.587236 -0.391283
C218  C     C_3   0.057407 0.660704 0.599289 -0.889489
H85   H     H_    0.006756 0.666625 0.602109 0.272085
H86   H     H_    0.080670 0.667557 0.620043 0.256027
H87   H     H_    0.074547 0.697032 0.584551 0.257905
H88   H     H_    0.122311 0.587078 0.589886 0.219919
H89   H     H_    0.062612 0.599069 0.564212 0.220752
C219  C     C_3   0.403393 0.071838 0.587227 -0.391313
C220  C     C_3   0.339166 0.057043 0.599257 -0.889534
H90   H     H_    0.333368 0.006374 0.602062 0.272057
H91   H     H_    0.332227 0.080262 0.620015 0.256036
H92   H     H_    0.302817 0.074114 0.584513 0.257974
H93   H     H_    0.412649 0.122130 0.589899 0.219970
H94   H     H_    0.400844 0.062453 0.564198 0.220654
C221  C     C_3   0.927962 0.403543 0.587234 -0.391268
C222  C     C_3   0.942580 0.339295 0.599289 -0.889502
H95   H     H_    0.993230 0.333368 0.602110 0.272085
H96   H     H_    0.919313 0.332445 0.620042 0.256030
H97   H     H_    0.925440 0.302968 0.584551 0.257906
H98   H     H_    0.877687 0.412928 0.589882 0.219922
H99   H     H_    0.937391 0.400929 0.564211 0.220746
C223  C     C_3   0.596606 0.928159 0.587226 -0.391304
C224  C     C_3   0.660833 0.942948 0.599257 -0.889536
H100  H     H_    0.666635 0.993616 0.602063 0.272058
H101  H     H_    0.667771 0.919727 0.620014 0.256035
H102  H     H_    0.697182 0.925875 0.584512 0.257973
H103  H     H_    0.587346 0.877868 0.589897 0.219970
H104  H     H_    0.599156 0.937546 0.564198 0.220653
C225  C     C_3   0.634755 0.641204 0.027178 -0.389847
C226  C     C_3   0.697726 0.668991 0.019324 -0.896436
H105  H     H_    0.692335 0.701445 0.001202 0.268118
H106  H     H_    0.718851 0.694514 0.037283 0.257706
H107  H     H_    0.730049 0.631528 0.013028 0.268157
H108  H     H_    0.640916 0.603563 0.042926 0.229867
H109  H     H_    0.617426 0.620061 0.007451 0.202866
C227  C     C_3   0.358747 0.634893 0.027020 -0.390079
C228  C     C_3   0.330882 0.697777 0.019076 -0.896277
H110  H     H_    0.298408 0.692218 0.000972 0.268096
H111  H     H_    0.305362 0.719010 0.037010 0.257692
H112  H     H_    0.368298 0.730090 0.012717 0.268143
H113  H     H_    0.396381 0.641207 0.042759 0.229803
H114  H     H_    0.379917 0.617447 0.007320 0.202889
C229  C     C_3   0.365249 0.358798 0.027182 -0.389838
C230  C     C_3   0.302274 0.331016 0.019332 -0.896458
H115  H     H_    0.281152 0.305495 0.037291 0.257711
H116  H     H_    0.269952 0.368482 0.013037 0.268157
H117  H     H_    0.307659 0.298564 0.001209 0.268121
H118  H     H_    0.359095 0.396440 0.042930 0.229871
H119  H     H_    0.382576 0.379940 0.007454 0.202868
C231  C     C_3   0.641251 0.365108 0.027020 -0.390078
C232  C     C_3   0.669116 0.302223 0.019076 -0.896281
H120  H     H_    0.701589 0.307781 0.000972 0.268096
H121  H     H_    0.694635 0.280991 0.037010 0.257693
H122  H     H_    0.631699 0.269911 0.012718 0.268144
H123  H     H_    0.603617 0.358795 0.042759 0.229804
H124  H     H_    0.620082 0.382554 0.007320 0.202890
C233  C     C_3   0.134745 0.141200 0.527189 -0.389814
C234  C     C_3   0.197727 0.168976 0.519344 -0.896436
H125  H     H_    0.192353 0.201428 0.501220 0.268114
H126  H     H_    0.218844 0.194498 0.537305 0.257701
H127  H     H_    0.230048 0.131507 0.513053 0.268152
H128  H     H_    0.140890 0.103557 0.542938 0.229873
H129  H     H_    0.117425 0.120060 0.507460 0.202864
C235  C     C_3   0.858752 0.134886 0.527030 -0.390030
C236  C     C_3   0.830899 0.197781 0.519093 -0.896252
H130  H     H_    0.798435 0.192240 0.500984 0.268087
H131  H     H_    0.805369 0.219002 0.537028 0.257682
H132  H     H_    0.868321 0.230098 0.512745 0.268133
H133  H     H_    0.896388 0.141184 0.542770 0.229804
H134  H     H_    0.879919 0.117446 0.507328 0.202884
C237  C     C_3   0.865253 0.858801 0.527188 -0.389816
C238  C     C_3   0.802273 0.831027 0.519340 -0.896437
H135  H     H_    0.807650 0.798574 0.501217 0.268114
H136  H     H_    0.781152 0.805504 0.537301 0.257700
H137  H     H_    0.769953 0.868496 0.513049 0.268155
H138  H     H_    0.859106 0.896443 0.542937 0.229872
H139  H     H_    0.882576 0.879942 0.507459 0.202868
C239  C     C_3   0.141250 0.865109 0.527026 -0.390043
C240  C     C_3   0.169109 0.802219 0.519085 -0.896247
H140  H     H_    0.201580 0.807768 0.500979 0.268088
H141  H     H_    0.194633 0.780992 0.537020 0.257681
H142  H     H_    0.131691 0.769903 0.512732 0.268133
H143  H     H_    0.103614 0.858803 0.542764 0.229801
H144  H     H_    0.120082 0.882552 0.507324 0.202883
C241  C     C_3   0.640143 0.686488 0.088183 -0.434101
C242  C     C_3   0.597822 0.638449 0.101963 -0.860129
H145  H     H_    0.623059 0.614633 0.119348 0.252159
H146  H     H_    0.556187 0.661410 0.110995 0.262531
H147  H     H_    0.582811 0.603151 0.086274 0.257930
H148  H     H_    0.682806 0.663523 0.080417 0.214983
H149  H     H_    0.655132 0.719554 0.104913 0.209720
C243  C     C_3   0.313502 0.640630 0.088024 -0.434130
C244  C     C_3   0.361606 0.598443 0.101846 -0.860118
H150  H     H_    0.385414 0.623811 0.119193 0.252145
H151  H     H_    0.338702 0.556841 0.110938 0.262526
H152  H     H_    0.396904 0.583369 0.086169 0.257992
H153  H     H_    0.336409 0.683270 0.080199 0.214953
H154  H     H_    0.280437 0.655684 0.104743 0.209677
C245  C     C_3   0.359868 0.313511 0.088187 -0.434105
C246  C     C_3   0.402195 0.361546 0.101966 -0.860134
H155  H     H_    0.376962 0.385362 0.119353 0.252161
H156  H     H_    0.443830 0.338581 0.110996 0.262533
H157  H     H_    0.417206 0.396844 0.086277 0.257929
H158  H     H_    0.317207 0.336480 0.080423 0.214987
H159  H     H_    0.344880 0.280444 0.104917 0.209721
C247  C     C_3   0.686495 0.359371 0.088024 -0.434129
C248  C     C_3   0.638390 0.401558 0.101846 -0.860118
H160  H     H_    0.614582 0.376190 0.119193 0.252145
H161  H     H_    0.661295 0.443160 0.110937 0.262526
H162  H     H_    0.603093 0.416631 0.086168 0.257992
H163  H     H_    0.663589 0.316731 0.080199 0.214952
H164  H     H_    0.719559 0.344317 0.104743 0.209676
C249  C     C_3   0.140108 0.186488 0.588195 -0.434088
C250  C     C_3   0.097773 0.138457 0.601973 -0.860120
H165  H     H_    0.122998 0.114641 0.619362 0.252156
H166  H     H_    0.056136 0.161426 0.611000 0.262529
H167  H     H_    0.082764 0.103159 0.586284 0.257922
H168  H     H_    0.182771 0.163515 0.580434 0.214979
H169  H     H_    0.155094 0.219554 0.604925 0.209723
C251  C     C_3   0.813502 0.140603 0.588035 -0.434108
C252  C     C_3   0.861598 0.098404 0.601856 -0.860096
H170  H     H_    0.885407 0.123763 0.619206 0.252136
H171  H     H_    0.838687 0.056801 0.610943 0.262520
H172  H     H_    0.896897 0.083332 0.586179 0.257982
H173  H     H_    0.836416 0.183244 0.580214 0.214945
H174  H     H_    0.780437 0.155657 0.604753 0.209672
C253  C     C_3   0.859882 0.813511 0.588193 -0.434086
C254  C     C_3   0.902215 0.861542 0.601971 -0.860119
H175  H     H_    0.876988 0.885357 0.619361 0.252155
H176  H     H_    0.943851 0.838574 0.610998 0.262530
H177  H     H_    0.917224 0.896842 0.586283 0.257920
H178  H     H_    0.817219 0.836483 0.580431 0.214977
H179  H     H_    0.844895 0.780444 0.604923 0.209722
C255  C     C_3   0.186495 0.859383 0.588030 -0.434107
C256  C     C_3   0.138394 0.901575 0.601852 -0.860096
H180  H     H_    0.114585 0.876212 0.619201 0.252135
H181  H     H_    0.161300 0.943179 0.610941 0.262520
H182  H     H_    0.103096 0.916647 0.586175 0.257984
H183  H     H_    0.163585 0.816742 0.580207 0.214944
H184  H     H_    0.219560 0.844329 0.604748 0.209672
C257  C     C_3   0.971241 0.384846 0.853845 -0.405948
C258  C     C_3   0.902279 0.370003 0.856006 -0.829529
H185  H     H_    0.888293 0.364248 0.878521 0.254549
H186  H     H_    0.874473 0.407732 0.846282 0.291905
H187  H     H_    0.892356 0.326181 0.844540 0.248224
H188  H     H_    0.984059 0.386484 0.831079 0.215008
H189  H     H_    0.998490 0.346465 0.863415 0.208384
C259  C     C_3   0.615388 0.972200 0.853841 -0.406008
C260  C     C_3   0.630848 0.903377 0.856016 -0.829544
H190  H     H_    0.636743 0.889470 0.878533 0.254550
H191  H     H_    0.593364 0.875228 0.846305 0.291916
H192  H     H_    0.674747 0.893831 0.844546 0.248231
H193  H     H_    0.613629 0.984975 0.831071 0.215013
H194  H     H_    0.653522 0.999797 0.863402 0.208387
C261  C     C_3   0.028758 0.615157 0.853845 -0.405917
C262  C     C_3   0.097714 0.630022 0.856015 -0.829543
H195  H     H_    0.111682 0.635790 0.878530 0.254542
H196  H     H_    0.125540 0.592298 0.846299 0.291889
H197  H     H_    0.107633 0.673843 0.844546 0.248222
H198  H     H_    0.015957 0.613512 0.831076 0.215004
H199  H     H_    0.001491 0.653530 0.863409 0.208389
C263  C     C_3   0.384614 0.027799 0.853842 -0.406008
C264  C     C_3   0.369155 0.096623 0.856016 -0.829545
H200  H     H_    0.363259 0.110530 0.878533 0.254550
H201  H     H_    0.406639 0.124771 0.846305 0.291916
H202  H     H_    0.325255 0.106169 0.844546 0.248231
H203  H     H_    0.386374 0.015024 0.831071 0.215012
H204  H     H_    0.346480 0.000203 0.863402 0.208387
C265  C     C_3   0.471359 0.884815 0.353845 -0.405913
C266  C     C_3   0.402421 0.869870 0.356022 -0.829562
H205  H     H_    0.388474 0.864081 0.378540 0.254535
H206  H     H_    0.374547 0.907564 0.346311 0.291887
H207  H     H_    0.392548 0.826041 0.344553 0.248228
H208  H     H_    0.484143 0.886477 0.331075 0.215001
H209  H     H_    0.498676 0.846473 0.363405 0.208389
C267  C     C_3   0.115389 0.472207 0.353841 -0.406009
C268  C     C_3   0.130852 0.403384 0.356016 -0.829552
H210  H     H_    0.136748 0.389477 0.378533 0.254550
H211  H     H_    0.093370 0.375234 0.346305 0.291918
H212  H     H_    0.174753 0.393841 0.344546 0.248230
H213  H     H_    0.113629 0.484981 0.331071 0.215013
H214  H     H_    0.153521 0.499805 0.363402 0.208388
C269  C     C_3   0.528656 0.115176 0.353844 -0.405922
C270  C     C_3   0.597594 0.130115 0.356024 -0.829576
H215  H     H_    0.611536 0.135914 0.378542 0.254529
H216  H     H_    0.625467 0.092414 0.346319 0.291899
H217  H     H_    0.607475 0.173937 0.344552 0.248237
H218  H     H_    0.515877 0.113511 0.331073 0.215000
H219  H     H_    0.501339 0.153521 0.363401 0.208394
C271  C     C_3   0.884613 0.527793 0.353841 -0.406010
C272  C     C_3   0.869150 0.596616 0.356016 -0.829554
H220  H     H_    0.863254 0.610522 0.378533 0.254551
H221  H     H_    0.906632 0.624766 0.346305 0.291918
H222  H     H_    0.825250 0.606159 0.344546 0.248230
H223  H     H_    0.886373 0.515019 0.331071 0.215013
H224  H     H_    0.846481 0.500195 0.363402 0.208388

loop_
_geom_bond_atom_site_label_1
_geom_bond_atom_site_label_2
_ccdc_geom_bond_type
C128  H28   S    
C256  H182  S    
C269  C270  S    
C115  C141  A    
C209  H69   S    
C209  C210  S    
C19   C179  A    
C198  C206  A    
C187  C245  S    
C265  C266  S    
C108  C120  A    
C41   H57   S    
C34   C42   A    
C73   C93   A    
C229  C230  S    
C53   C69   S    
C272  H221  S    
C241  C242  S    
C231  H124  S    
C177  C225  S    
O44   Zn8   S    
C257  H188  S    
C61   O19   A    
C227  C228  S    
C112  C124  A    
C58   C82   A    
C195  C203  A    
C189  C197  A    
C98   C108  A    
C214  H75   S    
C154  C170  A    
C210  H67   S    
C224  H102  S    
C69   O37   A    
C89   C94   S    
C107  C113  A    
C73   C161  A    
C226  H107  S    
C76   C94   A    
C91   C96   S    
C92   O48   A    
C166  C267  S    
C253  H179  S    
C78   C96   A    
C56   C72   S    
C83   C171  A    
O19   Zn7   S    
C57   C83   A    
C158  N2    S    
C160  C166  A    
O1    Zn1   S    
C42   H58   S    
C140  C152  A    
C90   O42   A    
O42   Zn6   S    
C245  H158  S    
C200  C208  A    
C223  H104  S    
C269  H218  S    
C106  C118  A    
C226  H106  S    
C248  H161  S    
C266  H206  S    
O24   Zn12  S    
C41   C49   A    
C147  N5    A    
C185  C241  S    
C134  C146  A    
C240  H140  S    
C89   O43   A    
C121  H21   S    
C182  C235  S    
C255  H183  S    
C60   C86   A    
C20   C28   A    
C27   C35   A    
C21   C29   A    
C86   C174  A    
C266  H207  S    
C23   C31   A    
C218  H86   S    
C24   C32   A    
C125  H25   S    
C271  C272  S    
C54   C70   S    
C75   H11   S    
C156  C174  A    
C254  H175  S    
C12   C20   A    
C250  H165  S    
C1    O9    A    
O16   Zn4   S    
C10   C202  A    
C124  H24   S    
C147  O59   S    
C267  C268  S    
C260  H191  S    
C180  C231  S    
C36   C44   A    
C218  H87   S    
C133  C145  A    
C247  C248  S    
O32   Zn12  S    
C37   C45   A    
C130  C138  A    
C110  C116  A    
C184  C239  S    
C251  C252  S    
C75   C93   A    
C90   C93   S    
C39   C47   A    
O48   Zn12  S    
C17   C177  A    
C40   C48   A    
C253  H178  S    
C129  H29   S    
C261  H198  S    
O18   Zn6   S    
C188  C247  S    
C100  C106  A    
C3    C26   S    
C145  N5    A    
C116  C142  A    
C270  H217  S    
C57   C61   S    
C255  C256  S    
C220  H90   S    
C59   C63   S    
C214  H77   S    
C60   C64   S    
C17   C25   A    
C235  C236  S    
O9    Zn3   S    
C244  H151  S    
C212  H70   S    
C104  C110  A    
C66   O26   A    
C199  H47   S    
C10   C18   A    
C159  C167  A    
C243  H153  S    
C192  C200  A    
C59   C87   A    
C178  C186  A    
C129  C137  A    
C259  C260  S    
C126  C134  A    
C213  H78   S    
O33   Zn7   S    
C181  C233  S    
O30   Zn10  S    
C182  C190  A    
C79   C167  A    
C215  C216  S    
C80   C168  A    
C183  C237  S    
C97   O49   S    
C232  H121  S    
C38   H38   S    
C158  C162  A    
C1    O1    A    
C35   H35   S    
C228  H110  S    
C204  H52   S    
C33   H33   S    
C91   O47   A    
C59   C85   A    
C60   C88   A    
C37   H37   S    
C233  H128  S    
C67   O27   A    
C270  H215  S    
O2    Zn1   S    
C267  H214  S    
C100  O52   S    
C68   O36   A    
C271  H223  S    
C263  H204  S    
C86   C219  S    
C146  O58   S    
C163  C261  S    
C251  H174  S    
C77   C165  A    
C221  C222  S    
C254  H177  S    
O14   Zn4   S    
C211  C212  S    
C75   C163  A    
O34   Zn8   S    
C155  N7    S    
C98   N2    A    
C71   O39   A    
C139  C143  A    
C239  H143  S    
C72   O40   A    
O8    Zn2   S    
C238  H135  S    
C119  C131  A    
C265  H208  S    
C194  H42   S    
C235  H134  S    
C117  C129  A    
C104  N4    A    
C198  H46   S    
C160  C168  A    
O22   Zn10  S    
C45   C53   A    
C46   H62   S    
C257  C258  S    
C74   H10   S    
C227  H113  S    
O37   Zn11  S    
C246  H155  S    
C97   N1    A    
C245  H159  S    
C220  H92   S    
C252  H171  S    
C61   O17   A    
C81   C209  S    
C154  C172  A    
C109  C121  A    
C264  H202  S    
C9    C49   A    
C70   O38   A    
C212  H72   S    
C74   C162  A    
C242  H145  S    
C216  H82   S    
C247  H164  S    
C236  H131  S    
O47   Zn11  S    
C98   O50   S    
C159  C165  A    
C100  N2    A    
C15   C55   A    
C211  H73   S    
C16   C56   A    
C43   H59   S    
C219  H93   S    
C239  H144  S    
C1    C28   S    
C123  C127  A    
C245  C246  S    
C170  H2    S    
O7    Zn2   S    
C196  H44   S    
C179  C229  S    
C51   C67   S    
C210  H66   S    
C23   C183  A    
C136  C148  A    
C42   C50   A    
C149  N7    A    
C200  H48   S    
C228  H112  S    
C81   C169  A    
C258  H186  S    
C196  C204  A    
O31   Zn11  S    
C253  C254  S    
C91   O45   A    
C215  H84   S    
C112  C116  A    
C4    C27   S    
C230  H115  S    
C9    C17   A    
C256  H181  S    
C148  O60   S    
C22   C30   A    
C85   C217  S    
C8    C31   S    
C186  C194  A    
C255  H184  S    
C69   O29   A    
C222  H95   S    
C84   C172  A    
C242  H147  S    
C79   H15   S    
C24   C184  A    
C87   C175  A    
C135  C147  A    
C88   C176  A    
C2    O10   A    
C132  H32   S    
C103  N3    A    
C22   C182  A    
C138  C144  A    
C205  H53   S    
C238  H137  S    
C62   O18   A    
C139  C151  A    
C4    O4    A    
C270  H216  S    
O28   Zn8   S    
C149  O61   S    
C247  H163  S    
C224  H101  S    
C126  H26   S    
C55   C71   S    
C16   C208  A    
C38   C46   A    
C131  C139  A    
C272  H220  S    
C47   H63   S    
C221  H99   S    
C48   H64   S    
C268  H210  S    
O27   Zn7   S    
C261  C262  S    
O35   Zn5   S    
O25   Zn5   S    
C234  H125  S    
C146  N6    A    
C246  H157  S    
C15   C207  A    
O46   Zn10  S    
C25   C33   A    
O11   Zn3   S    
C58   C62   S    
C164  C263  S    
C225  C226  S    
C213  H79   S    
C74   C94   A    
C102  C112  A    
C264  H200  S    
C78   H14   S    
C231  C232  S    
C241  H149  S    
C90   O44   A    
C216  H80   S    
C2    O2    A    
C11   C19   A    
C262  H195  S    
C127  C135  A    
C156  N8    S    
C104  O56   S    
C157  N1    S    
C179  C187  A    
C259  H193  S    
C178  C227  S    
C213  C214  S    
C194  C202  A    
C237  H139  S    
O23   Zn11  S    
C101  O53   S    
C153  N5    S    
C263  C264  S    
C108  C114  A    
C215  H83   S    
C136  C142  A    
C180  C188  A    
C217  H89   S    
C181  C189  A    
C203  H51   S    
C254  H176  S    
C240  H142  S    
C250  H166  S    
C184  C192  A    
C160  N4    S    
C120  H20   S    
C190  C251  S    
C230  H117  S    
C124  C128  A    
C5    C32   S    
O41   Zn5   S    
C272  H222  S    
C43   C51   A    
C237  C238  S    
C7    C30   S    
C260  H190  S    
C102  O54   S    
C105  C117  A    
C222  H97   S    
C107  C119  A    
C243  C244  S    
C12   C52   A    
C68   O28   A    
C13   C53   A    
C66   O34   A    
C221  H98   S    
C192  C255  S    
C78   C166  A    
C250  H167  S    
C257  H189  S    
C64   O22   A    
C36   H36   S    
C44   H60   S    
C197  C205  A    
C239  C240  S    
C8    O16   A    
C87   C221  S    
O38   Zn12  S    
C111  C123  A    
C118  H18   S    
C249  H168  S    
C174  H6    S    
C175  H7    S    
C21   C181  A    
C4    O12   A    
C79   C95   A    
C244  H150  S    
C118  C130  A    
C5    O13   A    
C80   H16   S    
C220  H91   S    
C268  H212  S    
C46   C54   A    
C243  H154  S    
C11   C203  A    
C9    C201  A    
C39   H39   S    
O12   Zn3   S    
C128  C136  A    
C67   O35   A    
C223  H103  S    
C165  C265  S    
C237  H138  S    
C248  H162  S    
C13   C205  A    
C266  H205  S    
C10   C50   A    
C157  C161  A    
C190  C198  A    
C217  C218  S    
C155  C175  A    
C156  C176  A    
O29   Zn9   S    
O13   Zn4   S    
C6    O6    A    
C249  H169  S    
C262  H197  S    
C140  C144  A    
C219  C220  S    
C132  C140  A    
C207  H55   S    
C229  H118  S    
C133  C141  A    
C208  H56   S    
C271  H224  S    
C103  C109  A    
C33   C41   A    
C63   O21   A    
C212  H71   S    
C218  H85   S    
C89   O41   A    
O39   Zn9   S    
C110  C122  A    
C152  O64   S    
C14   C22   A    
C193  C201  A    
C76   H12   S    
C101  C111  A    
C189  C249  S    
C262  H196  S    
C2    C25   S    
C65   O33   A    
C99   C105  A    
C150  N8    A    
C113  C143  A    
C6    C29   S    
C123  H23   S    
C28   C36   A    
C238  H136  S    
C260  H192  S    
C153  C169  A    
C223  C224  S    
C229  H119  S    
O21   Zn9   S    
C161  C257  S    
C186  C243  S    
C225  H108  S    
C70   O30   A    
C114  C144  A    
C82   C170  A    
C63   O23   A    
C127  H27   S    
C64   O24   A    
C62   O20   A    
C227  H114  S    
C3    O11   A    
O6    Zn2   S    
C246  H156  S    
C99   N1    A    
C119  H19   S    
C256  H180  S    
C20   C180  A    
C138  C150  A    
C45   H61   S    
C206  H54   S    
C117  H17   S    
C252  H170  S    
C49   C65   S    
C106  C114  A    
C34   H34   S    
C264  H201  S    
C191  C199  A    
C244  H152  S    
C145  O57   S    
C202  H50   S    
C242  H146  S    
C216  H81   S    
C150  O62   S    
C134  C142  A    
C177  C185  A    
O40   Zn10  S    
C249  C250  S    
C211  H74   S    
C151  N7    A    
C173  H5    S    
C219  H94   S    
C152  N8    A    
C121  C125  A    
O10   Zn3   S    
C26   C34   A    
O17   Zn5   S    
C148  N6    A    
C195  H43   S    
C105  C113  A    
C85   C173  A    
C224  H100  S    
C176  H8    S    
C261  H199  S    
O4    Zn1   S    
C97   C107  A    
C193  H41   S    
C80   C96   A    
C19   C27   A    
C157  C163  A    
C5    O5    A    
C231  H123  S    
C52   C68   S    
C158  C164  A    
C232  H122  S    
C236  H132  S    
C12   C204  A    
C137  C143  A    
C197  H45   S    
C16   C24   A    
O43   Zn7   S    
C258  H187  S    
C137  C149  A    
C88   C223  S    
O5    Zn2   S    
C40   H40   S    
C230  H116  S    
C233  H129  S    
C201  H49   S    
C267  H213  S    
C122  H22   S    
C8    O8    A    
C13   C21   A    
C263  H203  S    
C154  N6    S    
C7    O7    A    
C222  H96   S    
C131  H31   S    
C7    O15   A    
C251  H173  S    
O26   Zn6   S    
C99   O51   S    
C77   C95   A    
C92   C95   S    
C217  H88   S    
C122  C126  A    
C214  H76   S    
O20   Zn8   S    
C58   C84   A    
C171  H3    S    
C268  H211  S    
C135  C141  A    
C248  H160  S    
C169  H1    S    
C18   C26   A    
C153  C171  A    
C199  C207  A    
C265  H209  S    
C73   H9    S    
C151  O63   S    
C235  H133  S    
C50   C66   S    
C18   C178  A    
C65   O25   A    
C92   O46   A    
C77   H13   S    
C14   C54   A    
C236  H130  S    
C103  O55   S    
C29   C37   A    
C57   C81   A    
C76   C164  A    
C234  H126  S    
C71   O31   A    
O15   Zn4   S    
C35   C43   A    
C72   O32   A    
C47   C55   A    
C125  C133  A    
C209  H68   S    
C48   C56   A    
C225  H109  S    
C130  H30   S    
C252  H172  S    
C187  C195  A    
C120  C132  A    
C162  C259  S    
C185  C193  A    
C172  H4    S    
C183  C191  A    
C44   C52   A    
C241  H148  S    
C6    O14   A    
C82   C211  S    
C159  N3    S    
C234  H127  S    
C14   C206  A    
C155  C173  A    
C233  C234  S    
C226  H105  S    
C259  H194  S    
C269  H219  S    
C15   C23   A    
C31   C39   A    
O3    Zn1   S    
C32   C40   A    
C167  C269  S    
C210  H65   S    
C11   C51   A    
C109  C115  A    
C232  H120  S    
C83   C213  S    
C168  C271  S    
C3    O3    A    
C188  C196  A    
C228  H111  S    
C240  H141  S    
C258  H185  S    
C101  N3    A    
C111  C115  A    
C30   C38   A    
C102  N4    A    
C84   C215  S    
C191  C253  S    
O36   Zn6   S    
O45   Zn9   S    
