data_mof_unit_28730.cif
_audit_creation_date              2012-12-10T17:24:46-0500
_audit_creation_method            fapswitch 2.2
_symmetry_space_group_name_H-M    P1
_symmetry_Int_Tables_number       1
_space_group_crystal_system       triclinic
_cell_length_a                    23.499296
_cell_length_b                    10.769583
_cell_length_c                    9.613606
_cell_angle_alpha                 90.168257
_cell_angle_beta                  90.016377
_cell_angle_gamma                 92.397126
_cell_volume                      2430.8487919

loop_
_atom_site_label
_atom_site_type_symbol
_atom_type_description
_atom_site_fract_x
_atom_site_fract_y
_atom_site_fract_z
_atom_type_partial_charge
C1    C     C_R   0.498785 0.262713 0.499873 0.844329
C2    C     C_R   0.965792 0.285747 0.574912 0.491387
C3    C     C_R   0.025485 0.288156 0.577381 -0.244081
C4    C     C_R   0.057631 0.395383 0.539690 -0.084559
C5    C     C_R   0.029681 0.503017 0.501192 -0.015144
C6    C     C_R   0.061820 0.611121 0.463166 0.007622
C7    C     C_R   0.033721 0.718546 0.425647 -0.161192
C8    C     C_R   0.974434 0.718816 0.425759 -0.170251
C9    C     C_R   0.117400 0.397613 0.539233 0.560653
C10   C     C_R   0.121489 0.609012 0.464127 0.528685
C11   C     C_R   0.238849 0.496994 0.626909 -0.106065
C12   C     C_R   0.391008 0.499828 0.500052 0.767286
C13   C     C_R   0.298157 0.495998 0.626630 -0.237139
C14   C     C_R   0.328346 0.500737 0.500354 -0.036451
C15   C     C_R   0.298081 0.506748 0.374545 -0.209863
C16   C     C_R   0.238767 0.508008 0.375167 -0.104983
C17   C     C_R   0.208966 0.503009 0.501262 0.356693
C18   C     C_R   0.759929 0.447801 0.390961 0.475318
C19   C     C_R   0.700365 0.446955 0.391173 -0.321951
C20   C     C_R   0.671222 0.503789 0.499610 -0.163051
C21   C     C_R   0.701967 0.563682 0.607164 -0.320750
C22   C     C_R   0.761623 0.564893 0.608281 0.496971
C23   C     C_R   0.498493 0.736968 0.500171 0.792737
C24   C     C_R   0.790519 0.506445 0.500041 0.168968
C25   C     C_R   0.404584 0.121844 0.628337 -0.156650
C26   C     C_R   0.360149 0.053466 0.691805 -0.120100
C27   C     C_R   0.360197 0.924329 0.693270 -0.119489
C28   C     C_R   0.404638 0.862802 0.631090 -0.145659
C29   C     C_R   0.450510 0.930280 0.567508 0.098781
C30   C     C_R   0.450615 0.061509 0.566372 0.028014
C31   C     C_R   0.495987 0.128467 0.499776 -0.209934
C32   C     C_R   0.539835 0.066713 0.433164 0.490447
C33   C     C_R   0.538337 0.937973 0.431065 -0.287027
C34   C     C_R   0.608834 0.501221 0.499935 0.839150
C35   C     C_R   0.495336 0.870333 0.500524 -0.157081
C36   C     C_R   0.575883 0.664482 0.144324 -0.139993
C37   C     C_R   0.613030 0.744661 0.072474 -0.193841
C38   C     C_R   0.612896 0.744903 0.929160 -0.209121
C39   C     C_R   0.575613 0.664968 0.856803 -0.149854
C40   C     C_R   0.537174 0.581021 0.925548 0.213818
C41   C     C_R   0.537239 0.580861 0.075014 0.210723
C42   C     C_R   0.464563 0.423050 0.073546 -0.046948
C43   C     C_R   0.464593 0.423040 0.925753 -0.057014
C44   C     C_R   0.882352 0.610498 0.463737 0.590696
C45   C     C_R   0.877339 0.399128 0.539505 0.620362
C46   C     C_R   0.937252 0.394635 0.539399 -0.137228
C47   C     C_R   0.969569 0.502955 0.501332 -0.082720
C48   C     C_R   0.941964 0.611676 0.463409 0.004801
Cu1   Cu    Cu3+1 0.500000 0.499990 0.640660 0.927431
Cu2   Cu    Cu3+1 0.500000 0.500010 0.359340 0.955534
H1    H     H_    0.676961 0.399786 0.308016 0.193922
H2    H     H_    0.679832 0.611386 0.688837 0.167872
H3    H     H_    0.401886 0.221799 0.626763 0.133883
H4    H     H_    0.325239 0.100894 0.738807 0.146058
H5    H     H_    0.325323 0.871497 0.741380 0.146507
H6    H     H_    0.402061 0.762379 0.631564 0.147005
H7    H     H_    0.571953 0.890622 0.378049 0.151094
H8    H     H_    0.435489 0.359909 0.128345 0.137439
H9    H     H_    0.046463 0.205162 0.609157 0.201331
H10   H     H_    0.579454 0.672515 0.253933 0.191573
H11   H     H_    0.641881 0.807646 0.873265 0.164215
H12   H     H_    0.578945 0.673211 0.747222 0.194754
H13   H     H_    0.057418 0.802812 0.396176 0.185984
H14   H     H_    0.954156 0.803316 0.396278 0.171311
H15   H     H_    0.320273 0.491329 0.725202 0.156857
H16   H     H_    0.215870 0.512309 0.277650 0.140386
N1    N     N_R   0.851543 0.505501 0.501450 -0.438206
N2    N     N_R   0.147941 0.503280 0.501653 -0.469533
N3    N     N_R   0.500540 0.501210 0.147910 -0.198480
N4    N     N_R   0.500560 0.501290 0.852040 -0.198638
O1    O     O_R   0.500000 0.319640 0.618810 -0.587881
O2    O     O_2   0.844837 0.298708 0.577487 -0.481371
O3    O     O_2   0.144829 0.294732 0.574754 -0.537210
O4    O     O_2   0.152868 0.711942 0.428891 -0.535649
O5    O     O_R   0.500000 0.319660 0.381240 -0.540217
O6    O     O_R   0.417880 0.499950 0.618810 -0.595859
O7    O     O_R   0.417880 0.499980 0.381240 -0.581899
O8    O     O_R   0.500000 0.680340 0.618760 -0.601828
O9    O     O_R   0.500000 0.680360 0.381190 -0.589751
O10   O     O_R   0.582120 0.500020 0.618760 -0.596423
O11   O     O_R   0.582120 0.500050 0.381190 -0.589046
O12   O     O_2   0.855239 0.713238 0.426182 -0.544405
O13   O     O_3   0.935772 0.178903 0.616244 -0.533640
C49   C     C_3   0.936809 0.090833 0.507421 -0.200180
H17   H     H_    0.980491 0.057758 0.490562 0.127470
H18   H     H_    0.919576 0.128671 0.409000 0.169148
H19   H     H_    0.909221 0.008987 0.536811 0.214920
O14   O     O_3   0.792387 0.630202 0.709152 -0.544344
C50   C     C_3   0.787197 0.565842 0.836129 -0.318760
H20   H     H_    0.800087 0.467874 0.825476 0.174566
H21   H     H_    0.743207 0.568944 0.878228 0.159774
H22   H     H_    0.816253 0.612354 0.912845 0.195386
O15   O     O_3   0.583415 0.132505 0.365669 -0.569252
C51   C     C_3   0.631667 0.137838 0.453125 -0.288654
H23   H     H_    0.645365 0.043536 0.481750 0.160088
H24   H     H_    0.623622 0.193478 0.548338 0.158632
H25   H     H_    0.667567 0.184260 0.396220 0.210415
H26   H     H_    0.642076 0.807316 0.128768 0.164421
H27   H     H_    0.435546 0.359865 0.870429 0.134150
H28   H     H_    0.216034 0.493316 0.724758 0.140958
H29   H     H_    0.320147 0.510580 0.275676 0.158419
O16   O     O_3   0.788542 0.383883 0.289767 -0.551356
C52   C     C_3   0.790274 0.455560 0.167489 -0.320595
H30   H     H_    0.811171 0.548911 0.185904 0.175911
H31   H     H_    0.746894 0.464864 0.123367 0.158846
H32   H     H_    0.816008 0.407312 0.088953 0.197614

loop_
_geom_bond_atom_site_label_1
_geom_bond_atom_site_label_2
_ccdc_geom_bond_type
O15   C51   S    
C10   O4    S    
C19   C20   A    
C49   H19   S    
Cu2   O9    S    
C42   H8    S    
C28   H6    S    
C7    C8    A    
C13   H15   S    
C45   C46   A    
C2    C46   A    
C5    C47   A    
C26   C27   A    
C1    O1    A    
C40   N4    A    
C18   C24   A    
C36   C37   A    
C37   C38   A    
C43   H27   S    
C44   O12   S    
C30   C31   A    
C27   H5    S    
C15   C16   A    
C1    C31   S    
Cu1   O8    S    
C18   C19   A    
C18   O16   S    
C24   N1    S    
C34   O10   A    
C11   C17   A    
O13   C49   S    
C16   C17   A    
C45   N1    A    
C34   O11   A    
C22   O14   S    
C50   H21   S    
C38   H11   S    
C20   C34   S    
O14   C50   S    
C32   O15   S    
C21   C22   A    
C45   O2    S    
C36   C41   A    
O16   C52   S    
C9    O3    S    
C26   H4    S    
C37   H26   S    
C38   C39   A    
C1    O5    A    
C49   H17   S    
C39   C40   A    
C51   H25   S    
C25   C26   A    
C42   N3    A    
C11   H28   S    
C8    C48   A    
C29   C30   A    
C47   C48   A    
C12   O7    A    
Cu1   O6    S    
C52   H31   S    
C15   H29   S    
C50   H22   S    
C51   H24   S    
C7    H13   S    
C8    H14   S    
C40   C41   A    
C12   C14   S    
C43   N4    A    
C23   C35   S    
Cu1   N4    S    
C12   O6    A    
C22   C24   A    
C16   H16   S    
C42   C43   A    
C3    C4    A    
Cu2   O7    S    
C52   H30   S    
C41   N3    A    
C25   C30   A    
C39   H12   S    
C46   C47   A    
C28   C29   A    
C17   N2    S    
C33   H7    S    
Cu2   N3    S    
C31   C32   A    
C25   H3    S    
C4    C5    A    
C36   H10   S    
C6    C10   A    
C6    C7    A    
C10   N2    A    
C29   C35   A    
Cu1   O10   S    
C32   C33   A    
C2    C3    A    
C4    C9    A    
C9    N2    A    
Cu2   O5    S    
C2    O13   S    
C11   C13   A    
C5    C6    A    
C33   C35   A    
C52   H32   S    
C23   O8    A    
C51   H23   S    
C19   H1    S    
C20   C21   A    
Cu1   Cu2   S    
Cu1   O1    S    
C27   C28   A    
C14   C15   A    
C49   H18   S    
C44   N1    A    
C23   O9    A    
C50   H20   S    
C13   C14   A    
C21   H2    S    
C44   C48   A    
Cu2   O11   S    
C3    H9    S    
