data_mof_unit_5550.cif
_audit_creation_date              2013-03-05T16:11:51-0500
_audit_creation_method            fapswitch 2.2
_symmetry_space_group_name_H-M    P1
_symmetry_Int_Tables_number       1
_space_group_crystal_system       triclinic
_cell_length_a                    11.036148
_cell_length_b                    9.744223
_cell_length_c                    23.709482
_cell_angle_alpha                 87.684096
_cell_angle_beta                  93.392735
_cell_angle_gamma                 88.674431
_cell_volume                      2542.30608259

loop_
_atom_site_label
_atom_site_type_symbol
_atom_site_description
_atom_site_fract_x
_atom_site_fract_y
_atom_site_fract_z
_atom_type_partial_charge
O1    O     O_R   0.317570 0.620260 0.500030 -0.622127
O2    O     O_R   0.317570 0.379740 0.500030 -0.637021
C1    C     C_R   0.260652 0.501317 0.493822 0.809508
O3    O     O_R   0.499840 0.620290 0.417900 -0.614175
O4    O     O_R   0.499840 0.379710 0.417900 -0.578065
C2    C     C_R   0.499296 0.501782 0.391637 0.862430
Cu1   Cu    Cu3+1 0.499860 0.642410 0.500030 0.957380
Cu2   Cu    Cu3+1 0.499860 0.357590 0.500030 0.959615
O5    O     O_R   0.682190 0.620260 0.500010 -0.556544
O6    O     O_R   0.682190 0.379740 0.500010 -0.610050
O7    O     O_R   0.499920 0.620230 0.582140 -0.566583
O8    O     O_R   0.499920 0.379770 0.582140 -0.558804
C3    C     C_R   0.740231 0.499310 0.501724 0.759450
C4    C     C_R   0.498355 0.497830 0.609363 0.887379
C5    C     C_R   0.591946 0.442418 0.886001 0.580304
N1    N     N_R   0.487935 0.488595 0.855607 -0.453463
C6    C     C_R   0.389875 0.536966 0.882629 0.566017
C7    C     C_R   0.390887 0.530523 0.941930 -0.012576
C8    C     C_R   0.498776 0.489339 0.973290 -0.009950
C9    C     C_R   0.601241 0.447917 0.945179 -0.020027
C10   C     C_R   0.287283 0.565215 0.970532 -0.138695
C11   C     C_R   0.290854 0.558075 0.029542 -0.137027
C12   C     C_R   0.399655 0.522516 0.061142 -0.012011
C13   C     C_R   0.504531 0.490884 0.032909 -0.013355
C14   C     C_R   0.615191 0.461287 0.064110 -0.017649
C15   C     C_R   0.717864 0.422798 0.035532 -0.143654
C16   C     C_R   0.710303 0.413468 0.976789 -0.142876
C17   C     C_R   0.406639 0.519246 0.120433 0.608253
N2    N     N_R   0.516936 0.501485 0.150369 -0.445111
C18   C     C_R   0.620442 0.472757 0.123131 0.567280
O9    O     O_2   0.686343 0.391348 0.859059 -0.512141
O10   O     O_2   0.292210 0.592424 0.852318 -0.504878
H1    H     H_    0.202737 0.595932 0.947447 0.196200
H2    H     H_    0.208974 0.583828 0.050271 0.195676
O11   O     O_2   0.303969 0.535368 0.147956 -0.513338
O12   O     O_2   0.728310 0.456913 0.152815 -0.528766
H3    H     H_    0.803946 0.398356 0.058476 0.194850
H4    H     H_    0.790791 0.381982 0.956170 0.194602
C19   C     C_R   0.572267 0.399806 0.245580 -0.094762
H5    H     H_    0.614837 0.312781 0.226929 0.175214
C20   C     C_R   0.570020 0.402146 0.304225 -0.205826
H6    H     H_    0.616956 0.320687 0.329916 0.159200
C21   C     C_R   0.502007 0.504068 0.329273 -0.101467
C22   C     C_R   0.434894 0.602519 0.293902 -0.104392
C23   C     C_R   0.467265 0.622405 0.237431 -0.056874
C24   C     C_R   0.522251 0.510247 0.211284 0.244867
C25   C     C_R   0.397117 0.421462 0.761947 -0.031832
C26   C     C_R   0.396765 0.431458 0.701844 -0.103720
C27   C     C_R   0.493649 0.493975 0.673811 -0.184074
C28   C     C_R   0.584708 0.555173 0.709002 -0.073894
C29   C     C_R   0.573094 0.562953 0.767126 -0.135786
H7    H     H_    0.640877 0.614429 0.792995 0.203340
C30   C     C_R   0.484702 0.491541 0.794413 0.227267
C31   C     C_3   0.077625 0.628192 0.521400 -0.381444
C32   C     C_3   0.080163 0.367804 0.521359 -0.259211
H8    H     H_    0.092742 0.720810 0.494471 0.206421
H9    H     H_    0.108500 0.278911 0.496908 0.189213
H10   H     H_    0.134594 0.635429 0.561335 0.212374
H11   H     H_    0.127173 0.356063 0.563468 0.243738
C33   C     C_3   0.941588 0.625765 0.531516 -0.140167
C34   C     C_3   0.941339 0.362464 0.525077 -0.199173
H12   H     H_    0.898443 0.720997 0.510949 0.135147
H13   H     H_    0.907479 0.278052 0.498537 0.158841
H14   H     H_    0.081969 0.603222 0.408109 0.217121
H15   H     H_    0.083055 0.419158 0.407847 0.206402
H16   H     H_    0.875821 0.610873 0.417730 0.182167
H17   H     H_    0.873909 0.428425 0.413309 0.173962
C35   C     C_3   0.056010 0.509204 0.432073 -0.348622
C36   C     C_3   0.121793 0.501555 0.491696 0.033742
C37   C     C_3   0.880321 0.499835 0.500993 -0.015797
C38   C     C_3   0.914829 0.512949 0.437601 -0.420817
C39   C     C_3   0.625819 0.075136 0.512086 -0.126070
C40   C     C_3   0.620409 0.910210 0.521257 -0.125784
H18   H     H_    0.678695 0.096710 0.474129 0.086052
H19   H     H_    0.691443 0.868180 0.494855 0.127586
H20   H     H_    0.478864 0.082809 0.587174 0.196737
H21   H     H_    0.429595 0.867123 0.582748 0.130884
C41   C     C_3   0.425982 0.076365 0.546617 -0.086432
C42   C     C_3   0.410552 0.915622 0.539931 -0.062482
C43   C     C_3   0.457747 0.091180 0.445229 -0.081138
C44   C     C_3   0.474393 0.926974 0.443232 -0.123285
N3    N     N_3   0.500250 0.143650 0.501250 -0.252662
N4    N     N_3   0.500250 0.856350 0.501250 -0.259620
H22   H     H_    0.518269 0.132349 0.412929 0.158472
H23   H     H_    0.555736 0.908152 0.418487 0.126681
C45   C     C_2   0.290651 0.383211 0.669614 0.849151
O13   O     O_2   0.233914 0.462710 0.636330 -0.608441
O14   O     O_R   0.251252 0.249821 0.680130 -0.730499
H24   H     H_    0.172080 0.230909 0.658840 0.402239
C46   C     C_2   0.704236 0.589166 0.690103 0.928338
O15   O     O_2   0.745786 0.523647 0.653111 -0.593823
O16   O     O_R   0.774889 0.685807 0.718191 -0.758155
H25   H     H_    0.859375 0.692939 0.704145 0.368682
C47   C     C_2   0.935281 0.642699 0.594487 0.467026
H26   H     H_    0.912678 0.743511 0.609007 0.125954
O17   O     O_2   0.979877 0.558205 0.629528 -0.488337
C48   C     C_2   0.909173 0.326274 0.584241 0.588464
H27   H     H_    0.825586 0.365119 0.598214 0.130171
O18   O     O_2   0.970583 0.245497 0.615229 -0.486745
C49   C     C_2   0.706618 0.126753 0.559545 0.867872
O19   O     O_2   0.811537 0.082655 0.563593 -0.611203
O20   O     O_R   0.660952 0.198524 0.603671 -0.713440
H28   H     H_    0.718717 0.197538 0.638558 0.355840
C50   C     C_2   0.654337 0.855848 0.581862 0.883065
O21   O     O_2   0.706556 0.746116 0.588870 -0.603838
O22   O     O_R   0.621928 0.925588 0.629428 -0.782250
H29   H     H_    0.648449 0.875821 0.666506 0.363618
C51   C     C_2   0.332651 0.149413 0.425881 0.550530
H30   H     H_    0.257795 0.144097 0.452962 0.115212
O23   O     O_2   0.314611 0.204733 0.378882 -0.514386
C52   C     C_2   0.375580 0.865495 0.406620 0.464026
H31   H     H_    0.322257 0.782513 0.421935 0.167079
O24   O     O_2   0.355427 0.909346 0.357939 -0.503268
C53   C     C_2   0.315896 0.154985 0.564208 0.355414
H32   H     H_    0.328855 0.251534 0.582648 0.149399
O25   O     O_2   0.214448 0.108491 0.565048 -0.544315
C54   C     C_2   0.281240 0.874507 0.528879 0.479513
H33   H     H_    0.239688 0.817029 0.562169 0.083387
O26   O     O_2   0.217917 0.917333 0.487800 -0.607655
C55   C     C_2   0.310989 0.647784 0.308748 0.955895
O27   O     O_2   0.268992 0.602450 0.352017 -0.668825
O28   O     O_R   0.237165 0.731763 0.271025 -0.674859
H34   H     H_    0.154311 0.751812 0.285598 0.346054
C56   C     C_2   0.454435 0.762125 0.208816 0.937465
O29   O     O_2   0.475094 0.779883 0.158998 -0.586637
O30   O     O_R   0.427932 0.876174 0.240332 -0.686616
H35   H     H_    0.424442 0.965573 0.216805 0.350069
C57   C     C_2   0.305629 0.339970 0.791345 0.956995
O31   O     O_2   0.339106 0.251681 0.827393 -0.568932
O32   O     O_R   0.181659 0.366726 0.778918 -0.675983
H36   H     H_    0.128784 0.305252 0.802052 0.356592

loop_
_geom_bond_atom_site_label_1
_geom_bond_atom_site_label_2
_geom_bond_distance
_ccdc_geom_bond_type
C34   C37   1.556383 S    
Cu1   N4    2.086148 S    
O30   H35   1.013972 S    
C32   H11   1.098055 S    
C7    C10   1.404957 A    
C40   H19   1.112686 S    
C20   H6    1.083485 S    
C8    C9    1.405605 A    
C43   H22   1.114294 S    
C57   O31   1.222947 D    
C50   O22   1.400015 S    
C53   H32   1.062432 S    
C25   C57   1.487096 S    
C19   C20   1.393220 A    
O20   H28   1.013579 S    
C31   C33   1.534883 S    
C23   C24   1.419708 A    
C55   O27   1.221273 D    
Cu1   O7    1.950003 S    
C15   C16   1.397083 A    
Cu2   N3    2.083612 S    
H14   C35   1.110644 S    
C17   N2    1.376042 A    
C1    C36   1.530263 S    
H20   C41   1.099702 S    
O2    C1    1.326738 A    
C54   O26   1.218286 D    
C39   C49   1.503989 S    
O4    C2    1.319862 A    
O7    C4    1.333968 A    
C45   O14   1.397659 S    
C4    C27   1.530951 S    
C10   H1    1.083118 S    
C3    C37   1.547295 S    
C22   C55   1.493300 S    
C16   H4    1.083079 S    
C5    N1    1.375284 A    
C32   C34   1.541777 S    
C51   H30   1.076798 S    
C33   H12   1.114057 S    
C7    C8    1.407343 A    
C34   H13   1.113714 S    
O5    C3    1.326305 A    
N1    C30   1.448308 S    
C49   O19   1.222742 D    
C48   O18   1.219964 D    
C28   C46   1.459031 S    
C40   C50   1.533347 S    
C25   C26   1.424185 A    
C17   O11   1.349793 S    
C35   C36   1.548702 S    
C6    C7    1.404239 A    
C12   C13   1.405205 A    
C37   C38   1.573175 S    
C25   C30   1.406435 A    
O1    Cu1   2.028281 S    
C10   C11   1.396178 A    
C20   C21   1.402991 A    
C41   C53   1.509837 S    
O3    Cu1   1.967781 S    
C50   O21   1.203670 D    
C44   N4    1.521556 S    
C55   O28   1.398971 S    
C48   H27   1.064962 S    
H21   C42   1.108814 S    
C23   C56   1.496324 S    
C5    C9    1.404034 A    
C11   H2    1.083102 S    
C31   H8    1.105885 S    
C29   H7    1.084113 S    
C44   C52   1.503948 S    
Cu1   Cu2   2.775349 S    
C13   C14   1.407634 A    
C43   N3    1.495943 S    
C19   H5    1.082514 S    
C41   C42   1.592695 S    
C43   C44   1.609267 S    
C14   C15   1.405512 A    
O1    C1    1.340172 A    
C21   C22   1.414500 A    
N2    C18   1.373825 A    
C41   N3    1.526718 S    
C46   O16   1.400535 S    
H16   C38   1.112847 S    
C33   C37   1.593385 S    
Cu2   O8    1.967367 S    
H15   C35   1.112546 S    
C49   O20   1.393859 S    
C28   C29   1.396484 A    
C52   O24   1.220490 D    
C12   C17   1.402339 A    
C47   O17   1.219798 D    
C32   C36   1.547954 S    
C19   C24   1.404532 A    
C39   H18   1.116780 S    
C26   C27   1.427461 A    
O8    C4    1.341914 A    
C2    C21   1.479961 S    
C32   H9    1.110702 S    
C26   C45   1.457736 S    
O3    C2    1.333887 A    
C22   C23   1.413035 A    
C56   O30   1.398896 S    
C31   H10   1.110733 S    
C14   C18   1.406200 A    
Cu1   O5    2.018824 S    
C52   H31   1.074975 S    
C45   O13   1.218441 D    
C34   C48   1.497608 S    
C39   C40   1.615943 S    
O6    C3    1.343407 A    
C57   O32   1.398643 S    
O4    Cu2   1.950465 S    
C53   O25   1.218405 D    
C15   H3    1.083072 S    
C5    O9    1.349620 S    
C9    C16   1.406154 A    
C43   C51   1.518608 S    
C18   O12   1.349025 S    
N2    C24   1.448028 S    
O32   H36   1.013753 S    
C54   H33   1.079801 S    
C42   N4    1.509445 S    
C46   O15   1.210950 D    
N1    C6    1.373559 A    
C31   C36   1.529506 S    
C35   C38   1.571020 S    
C42   C54   1.502160 S    
O16   H25   1.011427 S    
C51   O23   1.221536 D    
C8    C13   1.411895 A    
H17   C38   1.112992 S    
C47   H26   1.082535 S    
C39   N3    1.527527 S    
O14   H24   1.007468 S    
Cu2   O6    2.028749 S    
C27   C28   1.424919 A    
O22   H29   1.011023 S    
O2    Cu2   2.018352 S    
C6    O10   1.349161 S    
C11   C12   1.405874 A    
C29   C30   1.387121 A    
O28   H34   1.014019 S    
C40   N4    1.495607 S    
C44   H23   1.116753 S    
C56   O29   1.222373 D    
C33   C47   1.514206 S    
