data_mof_unit_22183.cif
_audit_creation_date              2012-10-26T19:35:37-0400
_audit_creation_method            fapswitch 2.2
_symmetry_space_group_name_H-M    P1
_symmetry_Int_Tables_number       1
_space_group_crystal_system       triclinic
_cell_length_a                    15.83153
_cell_length_b                    10.75096
_cell_length_c                    9.67507
_cell_angle_alpha                 89.906781
_cell_angle_beta                  87.569775
_cell_angle_gamma                 91.351541
_cell_volume                      1644.79254447

loop_
_atom_site_label
_atom_site_type_symbol
_atom_type_description
_atom_site_fract_x
_atom_site_fract_y
_atom_site_fract_z
_atom_type_partial_charge
C1    C     C_R   0.498455 0.262923 0.500726 0.546439
C2    C     C_R   0.492554 0.129562 0.506056 -0.012110
C3    C     C_R   0.431240 0.063377 0.433731 -0.111608
C4    C     C_R   0.340169 0.500391 0.502406 0.558891
C5    C     C_R   0.429809 0.932695 0.435574 0.272141
C6    C     C_R   0.492229 0.870427 0.507445 0.083199
C7    C     C_R   0.539989 0.938483 0.600663 0.016044
C8    C     C_3   0.630827 0.936561 0.638935 0.154291
C9    C     C_3   0.630585 0.078442 0.633743 -0.216986
C10   C     C_R   0.564740 0.555124 0.065329 0.114319
C11   C     C_R   0.447880 0.422319 0.080436 0.393664
C12   C     C_3   0.083268 0.504448 0.508029 0.044811
C13   C     C_R   0.438627 0.435866 0.934099 0.341775
C14   C     C_R   0.567489 0.546175 0.920241 0.022293
C15   C     C_3   0.609288 0.668318 0.896834 -0.189871
C16   C     C_R   0.499208 0.737180 0.500875 0.598895
C17   C     C_3   0.604738 0.685025 0.053881 0.408232
C18   C     C_R   0.659914 0.500506 0.497559 0.560354
C19   C     C_3   0.966424 0.405882 0.574527 -0.166853
C20   C     C_3   0.028919 0.400135 0.447474 0.278485
C21   C     C_1   0.250453 0.501919 0.507706 0.046521
C22   C     C_1   0.749808 0.502139 0.492568 0.058165
C23   C     C_3   0.970460 0.611153 0.558900 -0.162220
C24   C     C_3   0.021627 0.512347 0.635667 -0.167758
C25   C     C_3   0.006474 0.194929 0.386702 -0.073989
C26   C     C_3   0.763663 0.863969 0.586350 -0.115841
C27   C     C_3   0.435175 0.213082 0.113223 -0.065735
C28   C     C_3   0.024581 0.804603 0.357339 -0.089465
C29   C     C_3   0.297941 0.846781 0.444606 -0.089350
C30   C     C_3   0.917125 0.504563 0.495868 -0.057382
C31   C     C_3   0.033078 0.601281 0.432071 0.273097
C32   C     C_3   0.979491 0.496807 0.369530 0.304004
C33   C     C_1   0.174868 0.503330 0.509753 0.040721
C34   C     C_1   0.825481 0.503597 0.492081 0.011523
C35   C     C_R   0.539939 0.065814 0.599432 -0.025332
Cu1   Cu    Cu3+1 0.500000 0.499980 0.640670 1.047481
Cu2   Cu    Cu3+1 0.500000 0.500020 0.359330 1.154320
H1    H     H_    0.638499 0.122106 0.736580 0.132408
H2    H     H_    0.945541 0.222620 0.343929 0.158980
H3    H     H_    0.995742 0.156396 0.492811 0.094398
H4    H     H_    0.032279 0.119641 0.320278 0.151389
H5    H     H_    0.759599 0.789143 0.666053 0.134719
H6    H     H_    0.791933 0.950630 0.629454 0.120653
H7    H     H_    0.807007 0.832344 0.501191 0.135279
H8    H     H_    0.388790 0.139470 0.147310 0.174514
H9    H     H_    0.496479 0.195289 0.160402 0.141576
H10   H     H_    0.443385 0.202209 0.999117 0.114323
H11   H     H_    0.224352 0.474399 0.818169 0.357468
H12   H     H_    0.670607 0.120144 0.547582 0.154898
H13   H     H_    0.732798 0.814880 0.291847 0.387373
H14   H     H_    0.493784 0.972524 0.987094 0.357385
H15   H     H_    0.022056 0.432965 0.003130 0.356248
H16   H     H_    0.026598 0.850020 0.460308 0.090906
H17   H     H_    0.957995 0.783426 0.331036 0.157929
H18   H     H_    0.051514 0.871865 0.279379 0.163408
H19   H     H_    0.268052 0.936114 0.474235 0.127534
H20   H     H_    0.311403 0.791975 0.538616 0.104957
H21   H     H_    0.251681 0.791824 0.385329 0.195423
H22   H     H_    0.673876 0.658403 0.849109 0.142791
H23   H     H_    0.568481 0.729693 0.838430 0.178239
H24   H     H_    0.937270 0.326133 0.633596 0.129788
H25   H     H_    0.944337 0.697145 0.605487 0.119865
H26   H     H_    0.040804 0.518760 0.744498 0.151483
H27   H     H_    0.385012 0.112376 0.376996 0.146453
H28   H     H_    0.638139 0.898670 0.744633 0.155616
N1    N     N_R   0.500530 0.500930 0.147930 -0.248845
N2    N     N_R   0.500530 0.500890 0.852020 -0.275451
O1    O     O_R   0.500000 0.319640 0.618810 -0.474395
O2    O     O_3   0.683455 0.885090 0.533614 -0.544010
O3    O     O_3   0.403886 0.330387 0.155179 -0.494201
O4    O     O_2   0.349233 0.297064 0.752363 -0.289665
O5    O     O_2   0.286588 0.313203 0.984222 -0.234054
O6    O     O_3   0.282178 0.507483 0.833158 -0.498408
O7    O     O_2   0.750433 0.570998 0.102023 -0.219995
O8    O     O_2   0.760582 0.791620 0.039711 -0.294718
O9    O     O_3   0.705006 0.731619 0.288215 -0.468605
O10   O     O_2   0.448962 0.770558 0.121343 -0.241663
O11   O     O_2   0.569197 0.877261 0.227636 -0.235956
O12   O     O_R   0.500010 0.319680 0.381230 -0.499932
O13   O     O_3   0.544658 0.921709 0.971738 -0.585023
O14   O     O_2   0.883613 0.392507 0.176078 -0.275894
O15   O     O_2   0.928579 0.610872 0.140902 -0.219670
O16   O     O_3   0.040620 0.440480 0.099308 -0.455372
O17   O     O_3   0.074314 0.697694 0.353924 -0.532049
O18   O     O_3   0.371587 0.867419 0.359946 -0.507468
O19   O     O_R   0.379070 0.499970 0.618770 -0.421475
O20   O     O_R   0.379080 0.500010 0.381190 -0.448616
O21   O     O_R   0.499990 0.680320 0.618770 -0.543946
O22   O     O_R   0.500000 0.680360 0.381190 -0.396787
O23   O     O_R   0.620920 0.499990 0.618810 -0.530335
O24   O     O_R   0.620930 0.500030 0.381230 -0.451074
O25   O     O_3   0.066089 0.294230 0.386546 -0.507291
S1    S     S_3+6 0.338362 0.382612 0.874003 0.067640
S2    S     S_3+6 0.708905 0.694477 0.119811 0.075016
S3    S     S_3+6 0.539252 0.815053 0.099426 0.052154
S4    S     S_3+6 0.954578 0.486001 0.191846 0.078920

loop_
_geom_bond_atom_site_label_1
_geom_bond_atom_site_label_2
_ccdc_geom_bond_type
C2    C35   A    
C28   O17   S    
C15   H23   S    
O7    S2    D    
C19   C20   S    
O6    S1    S    
Cu1   N2    S    
C26   H7    S    
C7    C8    S    
C4    O20   A    
C3    H27   S    
Cu1   O21   S    
Cu2   O12   S    
C8    O2    S    
C18   O24   A    
Cu1   Cu2   S    
C25   H3    S    
C13   N2    A    
C5    C6    A    
C21   C33   T    
C10   C17   S    
Cu1   O23   S    
C1    O1    A    
C1    C2    S    
H14   O13   S    
O9    S2    S    
C23   H25   S    
C8    C9    S    
C14   N2    A    
C17   S3    S    
C29   O18   S    
C11   N1    A    
C5    O18   S    
C27   H8    S    
C8    H28   S    
C15   H22   S    
C28   H18   S    
C26   H6    S    
C10   N1    A    
C22   C34   T    
C11   O3    S    
O15   S4    D    
Cu2   O24   S    
C18   O23   A    
C23   C30   S    
C9    H12   S    
C10   C14   A    
C25   H4    S    
O14   S4    D    
C30   C34   S    
Cu1   O19   S    
O10   S3    D    
C31   O17   S    
C13   S1    S    
C23   C31   S    
H15   O16   S    
H13   O9    S    
C20   O25   S    
C31   C32   S    
O11   S3    D    
C23   C24   S    
Cu2   N1    S    
C12   C20   S    
O13   S3    S    
C27   O3    S    
O5    S1    D    
C27   H9    S    
C32   S4    S    
C29   H20   S    
C24   H26   S    
C12   C31   S    
C1    O12   A    
C26   H5    S    
C9    C35   S    
C20   C32   S    
C27   H10   S    
C15   C17   S    
C25   O25   S    
C28   H17   S    
C18   C22   S    
C7    C35   A    
H11   O6    S    
Cu2   O20   S    
C3    C5    A    
C28   H16   S    
Cu1   O1    S    
C6    C7    A    
O4    S1    D    
C29   H19   S    
C12   C24   S    
Cu2   O22   S    
C2    C3    A    
C25   H2    S    
C30   C32   S    
C4    C21   S    
C11   C13   A    
C19   H24   S    
O16   S4    S    
C9    H1    S    
C19   C24   S    
C6    C16   S    
C16   O22   A    
C4    O19   A    
C29   H21   S    
C16   O21   A    
C26   O2    S    
C14   C15   S    
C17   S2    S    
C12   C33   S    
C19   C30   S    
O8    S2    D    
