data_mof_unit_33320.cif
_audit_creation_date              2013-03-05T15:40:30-0500
_audit_creation_method            fapswitch 2.2
_symmetry_space_group_name_H-M    P1
_symmetry_Int_Tables_number       1
_space_group_crystal_system       triclinic
_cell_length_a                    12.11899
_cell_length_b                    12.287619
_cell_length_c                    22.998008
_cell_angle_alpha                 90.655299
_cell_angle_beta                  91.054929
_cell_angle_gamma                 90.866998
_cell_volume                      3423.50700565

loop_
_atom_site_label
_atom_site_type_symbol
_atom_site_description
_atom_site_fract_x
_atom_site_fract_y
_atom_site_fract_z
_atom_type_partial_charge
O1    O     O_R   0.621380 0.090460 0.561410 -0.603036
O2    O     O_R   0.378620 0.909540 0.438590 -0.603155
O3    O     O_R   0.617150 0.909540 0.438590 -0.577714
O4    O     O_R   0.382850 0.090460 0.561410 -0.577967
O5    O     O_R   0.619720 0.093230 0.440890 -0.595523
O6    O     O_R   0.380280 0.906770 0.559110 -0.595472
O7    O     O_R   0.618800 0.906770 0.559110 -0.644195
O8    O     O_R   0.381200 0.093230 0.440890 -0.644310
C1    C     C_R   0.657363 0.998269 0.579314 0.873432
C2    C     C_R   0.342620 0.001731 0.420692 0.873210
C3    C     C_R   0.652493 0.002000 0.419486 0.945490
C4    C     C_R   0.347482 0.997999 0.580498 0.946214
Zn1   Zn    Zn3+2 0.501730 0.123520 0.501540 1.019757
Zn2   Zn    Zn3+2 0.498270 0.876480 0.498460 1.019820
C5    C     C_R   0.152363 0.100288 0.304350 -0.192484
C6    C     C_R   0.847240 0.899837 0.695858 -0.192902
C7    C     C_R   0.234786 0.098755 0.346605 -0.191495
C8    C     C_R   0.764834 0.901369 0.653591 -0.191427
H1    H     H_    0.281017 0.173144 0.356225 0.157203
H2    H     H_    0.718362 0.827071 0.644094 0.157195
C9    C     C_R   0.829342 0.911398 0.296196 -0.266246
C10   C     C_R   0.170961 0.088420 0.703951 -0.266350
C11   C     C_R   0.744785 0.911743 0.336053 0.267821
C12   C     C_R   0.255497 0.088052 0.664079 0.267368
C13   C     C_R   0.091368 0.123868 0.176057 -0.272111
C14   C     C_R   0.908771 0.876487 0.824163 -0.273670
C15   C     C_R   0.096200 0.207776 0.136287 0.466927
C16   C     C_R   0.903949 0.792643 0.864000 0.467734
C17   C     C_R   0.897956 0.890092 0.169385 -0.147606
C18   C     C_R   0.101937 0.109720 0.830721 -0.147617
C19   C     C_R   0.896999 0.808253 0.127509 -0.177791
C20   C     C_R   0.102905 0.191563 0.872596 -0.177839
H3    H     H_    0.822653 0.793107 0.101626 0.166246
H4    H     H_    0.177156 0.206514 0.898586 0.166238
C21   C     C_R   0.089362 0.852272 0.193152 -0.186883
C22   C     C_R   0.910759 0.148066 0.806683 -0.187145
C23   C     C_R   0.088618 0.771466 0.151066 -0.183095
C24   C     C_R   0.911510 0.228863 0.848772 -0.182970
H5    H     H_    0.163998 0.727359 0.143916 0.162662
H6    H     H_    0.836219 0.273179 0.855818 0.162692
C25   C     C_R   0.900379 0.164275 0.195625 -0.189857
C26   C     C_R   0.099425 0.835341 0.804162 -0.189973
C27   C     C_R   0.903371 0.246085 0.154945 -0.267493
C28   C     C_R   0.096440 0.753560 0.844858 -0.268212
H7    H     H_    0.828813 0.291233 0.146419 0.179942
H8    H     H_    0.170863 0.708094 0.853211 0.179868
C29   C     C_R   0.110855 0.909893 0.322316 -0.161896
C30   C     C_R   0.889338 0.089999 0.677562 -0.161825
C31   C     C_R   0.193949 0.908282 0.364283 -0.163774
C32   C     C_R   0.806251 0.091613 0.635594 -0.163885
H9    H     H_    0.207876 0.833865 0.387946 0.168292
H10   H     H_    0.792546 0.165931 0.611806 0.168238
C33   C     C_R   0.879500 0.096593 0.323319 -0.260516
C34   C     C_R   0.120172 0.903536 0.676497 -0.261196
C35   C     C_R   0.798184 0.097919 0.364842 0.435220
C36   C     C_R   0.201435 0.902232 0.634933 0.435350
C37   C     C_3   0.993277 0.005522 0.247574 -0.030737
C38   C     C_3   0.006705 0.994478 0.752425 -0.030609
C39   C     C_R   0.091439 0.004704 0.290043 0.126914
C40   C     C_R   0.908498 0.995309 0.709981 0.126900
C41   C     C_R   0.256341 0.002687 0.376381 -0.011481
C42   C     C_R   0.743597 0.997318 0.623644 -0.011219
C43   C     C_R   0.894909 0.004862 0.287725 -0.000071
C44   C     C_R   0.105072 0.995109 0.712259 0.000105
C45   C     C_R   0.731996 0.003918 0.372620 -0.275761
C46   C     C_R   0.267945 0.996068 0.627342 -0.275205
C47   C     C_R   0.995396 0.103665 0.207870 0.069870
C48   C     C_R   0.004568 0.896331 0.792138 0.070580
C49   C     C_R   0.000406 0.267943 0.124864 -0.131148
C50   C     C_R   0.999592 0.732116 0.875175 -0.129848
C51   C     C_R   0.992601 0.909955 0.204808 0.118099
C52   C     C_R   0.007411 0.090089 0.795174 0.118011
C53   C     C_R   0.992277 0.748332 0.118577 -0.025681
C54   C     C_R   0.007738 0.251720 0.881401 -0.025598
H11   H     H_    0.134959 0.177609 0.284498 0.135240
H12   H     H_    0.864384 0.822580 0.715840 0.135522
H13   H     H_    0.842976 0.836836 0.272276 0.190942
H14   H     H_    0.157603 0.162890 0.727997 0.191097
H15   H     H_    0.162939 0.073156 0.181885 0.152795
H16   H     H_    0.837438 0.927566 0.818498 0.151944
H17   H     H_    0.824389 0.937919 0.174604 0.146897
H18   H     H_    0.175399 0.061696 0.825600 0.147020
H19   H     H_    0.167128 0.870725 0.215097 0.150765
H20   H     H_    0.833041 0.129834 0.784642 0.150886
H21   H     H_    0.822187 0.146738 0.215640 0.150250
H22   H     H_    0.177517 0.852549 0.783972 0.150403
H23   H     H_    0.061145 0.836906 0.314827 0.150739
H24   H     H_    0.939259 0.162885 0.684936 0.150849
H25   H     H_    0.933425 0.167179 0.319780 0.161862
H26   H     H_    0.065982 0.833122 0.679917 0.161619
O9    O     O_R   0.087590 0.627480 0.058790 -0.634652
O10   O     O_R   0.912410 0.372520 0.941210 -0.634556
O11   O     O_R   0.905660 0.383870 0.059980 -0.633401
O12   O     O_R   0.094340 0.616130 0.940020 -0.633607
O13   O     O_R   0.092570 0.390420 0.063230 -0.581767
O14   O     O_R   0.907430 0.609580 0.936770 -0.581174
O15   O     O_R   0.900680 0.620930 0.055550 -0.619723
O16   O     O_R   0.099320 0.379070 0.944450 -0.619794
C55   C     C_R   0.993092 0.662183 0.075239 0.869791
C56   C     C_R   0.006911 0.337828 0.924758 0.869827
C57   C     C_R   0.999506 0.351681 0.080821 0.903875
C58   C     C_R   0.000497 0.648340 0.919194 0.904646
Zn3   Zn    Zn3+2 0.125690 0.504390 0.002180 0.962208
Zn4   Zn    Zn3+2 0.874310 0.495610 0.997820 0.962261
N1    N     N_R   0.670957 0.819239 0.337344 0.227148
O17   O     O_R   0.709716 0.721233 0.333858 -0.405616
O18   O     O_R   0.565161 0.832973 0.330950 -0.397398
N2    N     N_R   0.329645 0.180326 0.662937 0.227102
O19   O     O_R   0.291253 0.278447 0.666683 -0.405517
O20   O     O_R   0.435407 0.166183 0.669179 -0.397452
O21   O     O_3   0.190435 0.222734 0.104024 -0.589934
C59   C     C_3   0.274692 0.268887 0.140188 0.112221
H27   H     H_    0.304121 0.208970 0.172687 0.129106
H28   H     H_    0.245658 0.343189 0.163273 0.130709
C60   C     C_3   0.371793 0.301747 0.102931 -0.786230
H29   H     H_    0.345398 0.362755 0.070440 0.253892
H30   H     H_    0.438797 0.337932 0.130869 0.196135
H31   H     H_    0.403894 0.229270 0.079847 0.253749
O22   O     O_3   0.810106 0.778062 0.896647 -0.590162
C61   C     C_3   0.724141 0.734826 0.860563 0.111928
H32   H     H_    0.751783 0.662348 0.835327 0.129000
H33   H     H_    0.693355 0.797480 0.829935 0.130502
C62   C     C_3   0.628798 0.699037 0.898338 -0.784787
H34   H     H_    0.598379 0.769531 0.923807 0.253888
H35   H     H_    0.560183 0.665763 0.870454 0.195903
H36   H     H_    0.656436 0.634895 0.928784 0.253405
O23   O     O_3   0.791380 0.187185 0.401842 -0.582083
C63   C     C_3   0.745326 0.274896 0.370986 0.112166
H37   H     H_    0.666385 0.250170 0.348456 0.131837
H38   H     H_    0.804196 0.306686 0.338460 0.132704
C64   C     C_3   0.720729 0.366539 0.413606 -0.749001
H39   H     H_    0.797959 0.394200 0.436391 0.254819
H40   H     H_    0.684942 0.436249 0.389845 0.219741
H41   H     H_    0.660732 0.337833 0.446238 0.248667
O24   O     O_3   0.207887 0.813283 0.597679 -0.582265
C65   C     C_3   0.252640 0.724727 0.628378 0.112777
H42   H     H_    0.192541 0.692430 0.660138 0.133144
H43   H     H_    0.330961 0.748627 0.651769 0.131256
C66   C     C_3   0.278280 0.633938 0.585426 -0.749628
H44   H     H_    0.339674 0.663094 0.553621 0.248700
H45   H     H_    0.312777 0.563460 0.609067 0.219703
H46   H     H_    0.201732 0.607231 0.561679 0.254697

loop_
_geom_bond_atom_site_label_1
_geom_bond_atom_site_label_2
_geom_bond_distance
_ccdc_geom_bond_type
C5    H11   1.080755 S    
O8    Zn1   2.028392 S    
O14   C58   1.291232 A    
C33   C43   1.402264 A    
O21   C59   1.412945 S    
C13   C47   1.405847 A    
O3    C3    1.292617 A    
C64   H41   1.111175 S    
C63   H37   1.115963 S    
C59   H28   1.115680 S    
O24   C65   1.413507 S    
C29   C31   1.382476 A    
N1    O18   1.301598 A    
O10   C56   1.289784 A    
C21   C23   1.378478 A    
C34   H26   1.082748 S    
O6    C4    1.290197 A    
C66   H46   1.111106 S    
C19   C53   1.395915 A    
C38   C40   1.525533 S    
O16   Zn3   2.039319 S    
C11   N1    1.436782 S    
N2    O19   1.301392 A    
C53   C55   1.445897 S    
C6    C40   1.410281 A    
O4    Zn1   2.050514 S    
C62   H35   1.110829 S    
C7    C41   1.397097 A    
O7    Zn2   2.028393 S    
C28   H8    1.083425 S    
C31   H9    1.083257 S    
O13   C57   1.291219 A    
C32   H10   1.083266 S    
C30   H24   1.083156 S    
C28   C50   1.399325 A    
C12   N2    1.436818 S    
O4    C4    1.292602 A    
O5    Zn1   2.050955 S    
C15   C49   1.408018 A    
C61   C62   1.521037 S    
C12   C46   1.414959 A    
C30   C32   1.382435 A    
C21   C51   1.407733 A    
C27   C49   1.399382 A    
C13   H15   1.082855 S    
C26   C48   1.406669 A    
C25   C27   1.381577 A    
C26   C28   1.381563 A    
C37   C47   1.521151 S    
C65   C66   1.521001 S    
O11   Zn4   2.028262 S    
C59   H27   1.112923 S    
O15   C55   1.294269 A    
O13   Zn3   2.035261 S    
C30   C40   1.408987 A    
C33   C35   1.384959 A    
C38   C44   1.521496 S    
C23   H5    1.083406 S    
C34   C36   1.385154 A    
C31   C41   1.397532 A    
C1    C42   1.446754 S    
C18   C20   1.384192 A    
C62   H34   1.111438 S    
O1    C1    1.289175 A    
C10   H14   1.079630 S    
C65   H43   1.116111 S    
O11   C57   1.295195 A    
C21   H19   1.080620 S    
C8    C42   1.397085 A    
C62   H36   1.111583 S    
C54   C56   1.445816 S    
C60   H30   1.110497 S    
C4    C46   1.458910 S    
C14   H16   1.082762 S    
C20   H4    1.083247 S    
C18   H18   1.082995 S    
C17   H17   1.082977 S    
O6    Zn2   2.050955 S    
O22   C61   1.413365 S    
C60   H31   1.110662 S    
C19   H3    1.083244 S    
C37   C51   1.522953 S    
C27   H7    1.083409 S    
O3    Zn2   2.050514 S    
C26   H22   1.080902 S    
C38   C48   1.521302 S    
C35   O23   1.384914 S    
O12   Zn3   2.028262 S    
O16   C56   1.294216 A    
C9    C11   1.387439 A    
O5    C3    1.290250 A    
C33   H25   1.082775 S    
C32   C42   1.397484 A    
C10   C12   1.387464 A    
C2    C41   1.446837 S    
O1    Zn1   2.029918 S    
C35   C45   1.411223 A    
C64   H39   1.111015 S    
O2    C2    1.289202 A    
C63   C64   1.520947 S    
C36   O24   1.385060 S    
C61   H32   1.116496 S    
C61   H33   1.113316 S    
C24   C54   1.398224 A    
O7    C1    1.289390 A    
C23   C53   1.398296 A    
C20   C54   1.395908 A    
C6    H12   1.080734 S    
C5    C39   1.410254 A    
O8    C2    1.289409 A    
C16   C50   1.407904 A    
C37   C43   1.521279 S    
O9    Zn3   2.047930 S    
C65   H42   1.113095 S    
C64   H40   1.110694 S    
C16   O22   1.384775 S    
C63   H38   1.113119 S    
C18   C52   1.411192 A    
C66   H44   1.111256 S    
C50   C58   1.452031 S    
C5    C7    1.381201 A    
O23   C63   1.413432 S    
C49   C57   1.452100 S    
C13   C15   1.387354 A    
C25   H21   1.080933 S    
N1    O17   1.301386 A    
C14   C16   1.387773 A    
C14   C48   1.405972 A    
C11   C45   1.415054 A    
O14   Zn4   2.035260 S    
C17   C19   1.384176 A    
C24   H6    1.083416 S    
C66   H45   1.110734 S    
C38   C52   1.523093 S    
C60   H29   1.110828 S    
C34   C44   1.402367 A    
C22   H20   1.080591 S    
C36   C46   1.411129 A    
C22   C24   1.378452 A    
C7    H1    1.083366 S    
N2    O20   1.301605 A    
C8    H2    1.083374 S    
C25   C47   1.406675 A    
O2    Zn2   2.029916 S    
C9    C43   1.404085 A    
O15   Zn4   2.039319 S    
C37   C39   1.525465 S    
O10   Zn4   2.047931 S    
C29   C39   1.408950 A    
C22   C52   1.407807 A    
O12   C58   1.295131 A    
C6    C8    1.381240 A    
C9    H13   1.079684 S    
C10   C44   1.404155 A    
O9    C55   1.289774 A    
C15   O21   1.384389 S    
C59   C60   1.520737 S    
C3    C45   1.459014 S    
C29   H23   1.083144 S    
C17   C51   1.411174 A    
