data_mof_unit_32455.cif
_audit_creation_date              2012-12-11T17:00:23-0500
_audit_creation_method            fapswitch 2.2
_symmetry_space_group_name_H-M    P1
_symmetry_Int_Tables_number       1
_space_group_crystal_system       triclinic
_cell_length_a                    6.996622
_cell_length_b                    13.988388
_cell_length_c                    20.068124
_cell_angle_alpha                 103.396023
_cell_angle_beta                  91.012892
_cell_angle_gamma                 90.733897
_cell_volume                      1910.07035609

loop_
_atom_site_label
_atom_site_type_symbol
_atom_type_description
_atom_site_fract_x
_atom_site_fract_y
_atom_site_fract_z
_atom_type_partial_charge
O1    O     O_R   0.506770 0.599700 0.449550 -0.540046
O2    O     O_R   0.179980 0.595740 0.587960 -0.548185
O3    O     O_R   0.004580 0.400300 0.550450 -0.537242
C1    C     C_R   0.350800 0.624992 0.612209 0.665237
O4    O     O_R   0.177380 0.611700 0.452380 -0.542994
O5    O     O_R   0.001970 0.416370 0.413900 -0.540576
C2    C     C_R   0.346199 0.636918 0.435487 0.687235
O6    O     O_R   0.509390 0.583630 0.586100 -0.544521
O7    O     O_3   0.337530 0.435890 0.487530 -0.369295
V1    V     V_3+5 0.064660 0.511890 0.502310 1.403467
O8    O     O_R   0.671950 0.404260 0.412040 -0.539890
C3    C     C_R   0.839316 0.383085 0.384724 0.699274
O9    O     O_R   0.674540 0.388300 0.547620 -0.549708
C4    C     C_R   0.844701 0.362886 0.565591 0.712383
V2    V     V_3+5 0.564030 0.488110 0.497690 1.404407
O10   O     O_3   0.841030 0.564110 0.512470 -0.379025
C5    C     C_R   0.941802 0.114129 0.603851 -0.172407
H1    H     H_    0.916739 0.170365 0.512904 0.132263
H2    H     H_    0.037502 0.996335 0.688412 0.124992
H3    H     H_    0.988673 0.042828 0.575811 0.125019
C6    C     C_R   0.860210 0.283197 0.603579 -0.110238
C7    C     C_R   0.746126 0.286924 0.921486 -0.150555
C8    C     C_R   0.657372 0.341273 0.881038 -0.177791
C9    C     C_R   0.682521 0.316509 0.810856 -0.152779
C10   C     C_R   0.805136 0.240874 0.779882 0.094739
C11   C     C_R   0.876101 0.177619 0.819377 0.045255
C12   C     C_R   0.852350 0.225355 0.709918 -0.003374
C13   C     C_R   0.921548 0.133709 0.675335 0.086680
C14   C     C_R   0.977098 0.066034 0.713586 -0.194549
C15   C     C_R   0.963560 0.089851 0.785324 -0.212378
C16   C     C_R   0.854271 0.303177 0.675942 0.315295
C17   C     C_R   0.902825 0.187200 0.568028 -0.229407
C18   C     C_R   0.848615 0.203113 0.891224 -0.081356
H4    H     H_    0.720204 0.304838 0.976063 0.112381
H5    H     H_    0.610024 0.358514 0.781240 0.159106
H6    H     H_    0.568345 0.402283 0.904016 0.126069
H7    H     H_    0.016016 0.037886 0.813477 0.123744
C19   C     C_R   0.713925 0.251149 0.200957 0.104297
C20   C     C_R   0.869229 0.189014 0.182233 -0.124170
C21   C     C_R   0.023630 0.198847 0.229360 -0.180391
H8    H     H_    0.146383 0.152451 0.217381 0.145103
C22   C     C_R   0.014485 0.263090 0.294620 -0.186633
H9    H     H_    0.132226 0.265428 0.330588 0.143336
C23   C     C_R   0.849296 0.318043 0.315175 -0.125284
C24   C     C_R   0.704265 0.314150 0.265651 0.102313
C25   C     C_3   0.494996 0.296241 0.269538 -0.422051
C26   C     C_3   0.505580 0.227372 0.198988 -0.397824
H10   H     H_    0.411198 0.363290 0.269738 0.171127
H11   H     H_    0.460060 0.257974 0.310603 0.183563
H12   H     H_    0.427502 0.254556 0.158512 0.175014
H13   H     H_    0.477332 0.149065 0.199130 0.171597
C27   C     C_R   0.499822 0.771030 0.701422 0.013212
C28   C     C_R   0.354821 0.699629 0.679569 -0.103650
C29   C     C_R   0.193436 0.708545 0.721378 -0.181790
H14   H     H_    0.075910 0.658202 0.705985 0.138944
C30   C     C_R   0.191097 0.774497 0.786123 -0.196685
H15   H     H_    0.074295 0.769731 0.819892 0.171120
C31   C     C_R   0.346119 0.839561 0.808992 -0.073525
C32   C     C_R   0.483116 0.847775 0.759900 0.065722
C33   C     C_3   0.693284 0.862962 0.768380 -0.415067
C34   C     C_3   0.708753 0.764143 0.719200 0.261660
H16   H     H_    0.754092 0.866458 0.820349 0.207574
H17   H     H_    0.741114 0.924207 0.745909 0.130537
H18   H     H_    0.811736 0.762179 0.677312 0.059549
C35   C     C_R   0.410282 0.882246 0.393350 -0.156750
H19   H     H_    0.397289 0.831497 0.486097 0.102462
H20   H     H_    0.433848 0.957522 0.421464 0.151457
C36   C     C_R   0.357219 0.712990 0.396635 -0.016853
C37   C     C_R   0.320974 0.690376 0.067748 -0.161369
C38   C     C_R   0.303788 0.615550 0.102283 -0.126362
C39   C     C_R   0.319562 0.636195 0.173516 -0.137049
C40   C     C_R   0.354699 0.733414 0.212423 0.073850
C41   C     C_R   0.375833 0.809513 0.176451 0.010839
C42   C     C_R   0.367209 0.757643 0.285633 0.014109
C43   C     C_R   0.403676 0.856986 0.321176 0.055723
C44   C     C_R   0.436200 0.929742 0.284538 0.384978
C45   C     C_R   0.415553 0.906364 0.213264 -0.301434
C46   C     C_R   0.345072 0.686519 0.325090 -0.187563
C47   C     C_R   0.388179 0.810744 0.430639 -0.194630
C48   C     C_R   0.356529 0.787044 0.103967 -0.045375
H21   H     H_    0.320518 0.609679 0.302135 0.088994
H22   H     H_    0.306419 0.672994 0.012407 0.104455
H23   H     H_    0.303188 0.574142 0.196272 0.103100
H24   H     H_    0.276651 0.540801 0.073618 0.116536
H25   H     H_    0.432198 0.965322 0.187037 0.119300
O11   O     O_R   0.203450 0.916320 0.913910 -0.549195
O12   O     O_R   0.535520 0.888300 0.047620 -0.540856
O13   O     O_R   0.710860 0.083650 0.086100 -0.541277
C49   C     C_R   0.366855 0.863420 0.064871 0.695269
O14   O     O_R   0.532860 0.904250 0.912040 -0.539847
O15   O     O_R   0.708190 0.099710 0.949550 -0.541706
C50   C     C_R   0.363103 0.893123 0.882115 0.697200
O16   O     O_R   0.206120 0.900260 0.050460 -0.537917
O17   O     O_3   0.375280 0.064080 0.012470 -0.377655
V3    V     V_3+5 0.648180 0.988110 0.997690 1.421658
O18   O     O_R   0.038220 0.111740 0.952370 -0.548481
C51   C     C_R   0.868922 0.131757 0.932238 0.693371
O19   O     O_R   0.040880 0.095790 0.087940 -0.544266
C52   C     C_R   0.873784 0.117415 0.115101 0.692259
V4    V     V_3+5 0.148800 0.011950 0.002300 1.405580
O20   O     O_3   0.871820 0.935920 0.987530 -0.372942
O21   O     O_3   0.742585 0.698411 0.761828 -0.576648
C53   C     C_3   0.730318 0.600247 0.726391 0.106198
H26   H     H_    0.859872 0.568281 0.741828 0.159918
H27   H     H_    0.739112 0.588529 0.670142 0.130016
C54   C     C_3   0.559401 0.549317 0.751299 -0.266119
H28   H     H_    0.605806 0.522530 0.796540 0.164200
H29   H     H_    0.445987 0.602050 0.770227 0.208518
C55   C     C_3   0.476655 0.464171 0.695897 -0.734063
H30   H     H_    0.359349 0.486390 0.666321 0.201442
H31   H     H_    0.418198 0.405777 0.717782 0.178848
H32   H     H_    0.584612 0.431297 0.660056 0.262039
O22   O     O_3   0.475050 0.026079 0.319127 -0.584483
C56   C     C_3   0.669796 0.050102 0.311966 0.067929
H33   H     H_    0.683393 0.131358 0.324829 0.159984
H34   H     H_    0.719710 0.024717 0.258398 0.113611
C57   C     C_3   0.799018 0.010910 0.361906 -0.359680
H35   H     H_    0.743158 0.033968 0.414587 0.197559
H36   H     H_    0.800146 0.929318 0.346893 0.199074
C58   C     C_3   0.003606 0.049710 0.362292 -0.767964
H37   H     H_    0.061588 0.030757 0.309791 0.247556
H38   H     H_    0.094277 0.016338 0.396432 0.237140
H39   H     H_    0.008364 0.130617 0.382182 0.218648
O23   O     O_3   0.870845 0.398716 0.714254 -0.605027
C59   C     C_3   0.050580 0.416355 0.749503 0.029807
H40   H     H_    0.120159 0.475228 0.730224 0.151346
H41   H     H_    0.145204 0.351285 0.740439 0.113760
C60   C     C_3   0.028755 0.454081 0.827436 -0.291113
H42   H     H_    0.892798 0.493414 0.839147 0.209790
H43   H     H_    0.030469 0.390963 0.852133 0.204783
C61   C     C_3   0.190373 0.523626 0.860667 -0.861835
H44   H     H_    0.329335 0.486669 0.850550 0.228736
H45   H     H_    0.170894 0.544395 0.916914 0.229710
H46   H     H_    0.188640 0.591530 0.841074 0.237878

loop_
_geom_bond_atom_site_label_1
_geom_bond_atom_site_label_2
_ccdc_geom_bond_type
C35   C47   A    
C1    C28   S    
C1    O6    A    
C61   H46   S    
C60   H42   S    
C56   H33   S    
O14   V3    S    
C28   C29   A    
C58   H37   S    
H19   C47   S    
C6    C16   A    
C25   H11   S    
C33   H17   S    
C4    C6    S    
C13   C14   A    
C16   O23   S    
C27   C34   S    
C57   H36   S    
O5    C3    A    
C19   C20   A    
C54   H28   S    
V2    O10   S    
O19   C52   A    
C5    H3    S    
C30   H15   S    
C33   H16   S    
C48   C49   S    
C19   C24   A    
C37   H22   S    
C55   H31   S    
C2    C36   S    
C29   H14   S    
O14   C50   A    
C35   H20   S    
O12   V3    S    
C59   C60   S    
C8    C9    A    
C38   C39   A    
O1    V2    S    
C38   H24   S    
O7    V1    S    
C58   H39   S    
C36   C47   A    
C21   C22   A    
O13   V3    S    
C45   H25   S    
C32   C33   S    
O9    C4    A    
C49   O16   A    
O21   C53   S    
C22   C23   A    
C58   H38   S    
C26   H12   S    
C39   H23   S    
C36   C46   A    
C7    H4    S    
C6    C17   A    
C29   C30   A    
C9    H5    S    
C42   C43   A    
C12   C16   A    
O13   C52   A    
C44   C45   A    
C40   C42   A    
C55   H32   S    
C20   C21   A    
O4    C2    A    
C26   H13   S    
C10   C11   A    
C24   C25   S    
O15   C51   A    
C15   H7    S    
C33   C34   S    
C34   H18   S    
O2    C1    A    
C43   C44   A    
C14   C15   A    
C27   C32   A    
C11   C18   A    
C20   C52   S    
O17   V4    S    
O18   C51   A    
C44   O22   S    
O17   V3    S    
C53   H27   S    
C9    C10   A    
O16   V4    S    
C19   C26   S    
O3    C4    A    
C21   H8    S    
C11   C15   A    
O6    V2    S    
O8    V2    S    
O9    V2    S    
C59   H40   S    
C57   C58   S    
H1    C17   S    
C22   H9    S    
C61   H44   S    
O2    V1    S    
C60   C61   S    
C12   C13   A    
O11   V4    S    
C27   C28   A    
O22   C56   S    
C7    C18   A    
C25   C26   S    
O1    C2    A    
C5    C13   A    
C23   C24   A    
C40   C41   A    
C61   H45   S    
C60   H43   S    
O5    V1    S    
C56   H34   S    
O8    C3    A    
C10   C12   A    
O19   V4    S    
C35   C43   A    
O12   C49   A    
C34   O21   S    
C31   C32   A    
O4    V1    S    
C3    C23   S    
O3    V1    S    
O11   C50   A    
C57   H35   S    
C46   H21   S    
C54   H29   S    
O18   V4    S    
V4    O20   S    
C41   C48   A    
C30   C31   A    
C53   C54   S    
C18   C51   S    
O7    V2    S    
C37   C38   A    
C56   C57   S    
O15   V3    S    
C25   H10   S    
C39   C40   A    
C8    H6    S    
C42   C46   A    
C53   H26   S    
C59   H41   S    
C5    C17   A    
C41   C45   A    
C7    C8    A    
C37   C48   A    
V1    O10   S    
C55   H30   S    
C31   C50   S    
V3    O20   S    
O23   C59   S    
C54   C55   S    
H2    C14   S    
