data_mof_unit_52613.cif
_audit_creation_date              2012-12-10T17:01:35-0500
_audit_creation_method            fapswitch 2.2
_symmetry_space_group_name_H-M    P1
_symmetry_Int_Tables_number       1
_space_group_crystal_system       triclinic
_cell_length_a                    9.800058
_cell_length_b                    10.789931
_cell_length_c                    12.996932
_cell_angle_alpha                 90.620376
_cell_angle_beta                  75.18785
_cell_angle_gamma                 109.472964
_cell_volume                      1248.47107876

loop_
_atom_site_label
_atom_site_type_symbol
_atom_type_description
_atom_site_fract_x
_atom_site_fract_y
_atom_site_fract_z
_atom_type_partial_charge
C1    C     C_R   0.441612 0.252682 0.510675 0.862808
C2    C     C_R   0.557385 0.747145 0.497410 0.801727
C3    C     C_2   0.082414 0.511895 0.491716 -0.059325
C4    C     C_2   0.917633 0.488415 0.508522 -0.024392
C5    C     C_R   0.472919 0.494736 0.702851 0.845070
C6    C     C_R   0.526807 0.503763 0.297176 0.816099
C7    C     C_R   0.542024 0.504675 0.182742 -0.054141
C8    C     C_R   0.457335 0.491973 0.817310 -0.035108
C9    C     C_R   0.303849 0.475701 0.998459 -0.205864
C10   C     C_R   0.695210 0.519631 0.001624 -0.194688
C11   C     C_R   0.317810 0.476635 0.889407 -0.141381
C12   C     C_R   0.681444 0.519537 0.110663 -0.180836
C13   C     C_R   0.582781 0.505648 0.854937 -0.253146
C14   C     C_R   0.416337 0.489951 0.145113 -0.238857
C15   C     C_R   0.569780 0.505069 0.963886 0.174987
C16   C     C_R   0.429247 0.490098 0.036186 0.168623
C17   C     C_2   0.415565 0.110538 0.524186 -0.243427
C18   C     C_2   0.581985 0.888837 0.505951 -0.189161
C19   C     C_2   0.489539 0.067231 0.583675 -0.105240
C20   C     C_2   0.486277 0.929309 0.584081 0.000023
Cu1   Cu    Cu3+1 0.647370 0.522180 0.481340 0.975799
Cu2   Cu    Cu3+1 0.352630 0.477820 0.518660 0.992663
H1    H     H_    0.308383 0.478548 0.200336 0.160194
H2    H     H_    0.690724 0.517096 0.799678 0.154644
H3    H     H_    0.779819 0.530819 0.138417 0.164199
H4    H     H_    0.219590 0.465990 0.861635 0.166725
H5    H     H_    0.195517 0.464135 0.053082 0.142849
H6    H     H_    0.803535 0.531158 0.947003 0.141063
H7    H     H_    0.836757 0.412943 0.569172 0.168900
H8    H     H_    0.163364 0.587641 0.431271 0.148876
H9    H     H_    0.948090 0.627388 0.396839 0.195274
H10   H     H_    0.051870 0.372387 0.602967 0.215935
N1    N     N_2   0.131210 0.444490 0.546730 -0.272470
N2    N     N_2   0.868790 0.555510 0.453270 -0.286531
O1    O     O_R   0.578710 0.332530 0.490040 -0.567982
O2    O     O_R   0.421290 0.667470 0.509960 -0.566557
O3    O     O_R   0.329810 0.295070 0.521560 -0.537407
O4    O     O_R   0.670190 0.704930 0.478440 -0.566321
O5    O     O_R   0.604230 0.515670 0.637800 -0.597636
O6    O     O_R   0.395770 0.484330 0.362200 -0.575743
O7    O     O_R   0.355330 0.478200 0.669330 -0.563869
O8    O     O_R   0.644670 0.521800 0.330670 -0.580310
C21   C     C_2   0.375207 0.841729 0.677338 0.393987
H11   H     H_    0.275185 0.864026 0.716670 0.049460
O9    O     O_2   0.398302 0.750142 0.715213 -0.535912
C22   C     C_2   0.569178 0.152627 0.656262 0.458807
H12   H     H_    0.553951 0.245877 0.675786 0.021535
O10   O     O_2   0.651442 0.117793 0.696760 -0.521907
C23   C     C_2   0.709595 0.980922 0.422737 0.399979
H13   H     H_    0.768524 0.941014 0.355694 0.064844
O11   O     O_2   0.752655 0.100163 0.428304 -0.501260
C24   C     C_2   0.314876 0.018656 0.466899 0.368577
H14   H     H_    0.289106 0.912906 0.477004 0.059580
O12   O     O_2   0.259209 0.060656 0.407311 -0.513757

loop_
_geom_bond_atom_site_label_1
_geom_bond_atom_site_label_2
_ccdc_geom_bond_type
C14   H1    S    
C3    H8    S    
C21   H11   S    
C8    C13   A    
Cu1   O1    S    
C2    C18   S    
C9    C11   A    
C18   C23   S    
C2    O4    A    
C1    C17   S    
C19   C20   S    
Cu1   O5    S    
C1    O3    A    
C12   H3    S    
Cu2   O6    S    
H10   N1    S    
C5    O5    A    
C3    C4    S    
C19   C22   S    
Cu1   Cu2   S    
C21   O9    D    
C9    H5    S    
C6    C7    S    
C10   C12   A    
C8    C11   A    
C17   C24   S    
C17   C19   D    
C9    C16   A    
C24   O12   D    
C6    O6    A    
C10   C15   A    
C13   C15   A    
C4    N2    D    
C7    C12   A    
C14   C16   A    
H9    N2    S    
Cu2   O7    S    
C3    N1    D    
C10   H6    S    
C15   C16   A    
C22   O10   D    
C20   C21   S    
Cu2   O2    S    
C24   H14   S    
C1    O1    A    
C18   C20   D    
C23   H13   S    
C6    O8    A    
C2    O2    A    
Cu2   N1    S    
C5    C8    S    
C22   H12   S    
C5    O7    A    
Cu1   N2    S    
C11   H4    S    
Cu2   O3    S    
C7    C14   A    
Cu1   O4    S    
Cu1   O8    S    
C13   H2    S    
C4    H7    S    
C23   O11   D    
