data_mof_unit_65049.cif
_audit_creation_date              2013-03-05T16:38:59-0500
_audit_creation_method            fapswitch 2.2
_symmetry_space_group_name_H-M    P1
_symmetry_Int_Tables_number       1
_space_group_crystal_system       triclinic
_cell_length_a                    15.996835
_cell_length_b                    14.756508
_cell_length_c                    23.553697
_cell_angle_alpha                 89.993805
_cell_angle_beta                  89.970881
_cell_angle_gamma                 90.000661
_cell_volume                      5560.02428038

loop_
_atom_site_label
_atom_site_type_symbol
_atom_site_description
_atom_site_fract_x
_atom_site_fract_y
_atom_site_fract_z
_atom_type_partial_charge
O1    O     O_R   0.380310 0.575320 0.500010 -0.557747
O2    O     O_R   0.619690 0.424680 0.499990 -0.576469
O3    O     O_R   0.619690 0.575320 0.499990 -0.558418
O4    O     O_R   0.380310 0.424680 0.500010 -0.577069
C1    C     C_R   0.340821 0.500004 0.499991 0.831930
C2    C     C_R   0.659179 0.500005 0.500009 0.832165
O5    O     O_R   0.499980 0.575360 0.417880 -0.534038
O6    O     O_R   0.500020 0.424640 0.582120 -0.583239
O7    O     O_R   0.500020 0.575360 0.582120 -0.533789
O8    O     O_R   0.499980 0.424640 0.417880 -0.582824
C3    C     C_R   0.498292 0.500097 0.390571 0.851788
C4    C     C_R   0.501735 0.500089 0.609424 0.852152
Cu1   Cu    Cu3+1 0.500000 0.589220 0.500000 1.098369
Cu2   Cu    Cu3+1 0.500000 0.410780 0.500000 1.019716
C5    C     C_R   0.573823 0.484109 0.880356 0.604970
C6    C     C_R   0.426270 0.484337 0.119631 0.605171
N1    N     N_R   0.498904 0.487504 0.852272 -0.446724
N2    N     N_R   0.501200 0.487410 0.147715 -0.446647
C7    C     C_R   0.424397 0.486015 0.880919 0.599222
C8    C     C_R   0.575702 0.485625 0.119069 0.599390
C9    C     C_R   0.423290 0.483161 0.940447 -0.024487
C10   C     C_R   0.576799 0.482804 0.059541 -0.024444
C11   C     C_R   0.499805 0.482291 0.970038 -0.007343
C12   C     C_R   0.500283 0.482268 0.029949 -0.007334
C13   C     C_R   0.575845 0.482235 0.939867 -0.023662
C14   C     C_R   0.424242 0.482502 0.060121 -0.023685
C15   C     C_R   0.347824 0.482418 0.970968 -0.134130
C16   C     C_R   0.652263 0.481778 0.029020 -0.134135
C17   C     C_R   0.348295 0.481899 0.030198 -0.127790
C18   C     C_R   0.651790 0.481305 0.969789 -0.127773
O9    O     O_2   0.646023 0.482976 0.850705 -0.500588
O10   O     O_2   0.354067 0.483494 0.149282 -0.500608
O11   O     O_2   0.351753 0.488557 0.851865 -0.510993
O12   O     O_2   0.648353 0.487850 0.148125 -0.511074
H1    H     H_    0.288184 0.482797 0.949222 0.196649
H2    H     H_    0.711903 0.481902 0.050766 0.196635
H3    H     H_    0.289002 0.481905 0.052418 0.198216
H4    H     H_    0.711082 0.481087 0.947569 0.198226
C19   C     C_R   0.524517 0.418038 0.240395 -0.141581
C20   C     C_R   0.475263 0.418207 0.759618 -0.142207
H5    H     H_    0.543781 0.356306 0.219244 0.176956
H6    H     H_    0.455741 0.356582 0.780793 0.176164
C21   C     C_R   0.522147 0.420855 0.299304 -0.232073
C22   C     C_R   0.477612 0.420984 0.700709 -0.233296
H7    H     H_    0.541138 0.361072 0.322664 0.198605
H8    H     H_    0.458343 0.361295 0.677367 0.197041
C23   C     C_R   0.496763 0.499733 0.327809 -0.198395
C24   C     C_R   0.503319 0.499721 0.672178 -0.196891
C25   C     C_R   0.472409 0.576861 0.295849 0.207541
C26   C     C_R   0.528050 0.576734 0.704101 0.206845
C27   C     C_R   0.475657 0.574053 0.235953 0.290574
C28   C     C_R   0.524809 0.573977 0.764000 0.290453
C29   C     C_R   0.501608 0.493833 0.208521 0.202009
C30   C     C_R   0.498513 0.493903 0.791463 0.202753
H9    H     H_    0.077028 0.642691 0.480073 0.159669
H10   H     H_    0.922976 0.357411 0.519939 0.153302
H11   H     H_    0.922990 0.642701 0.480133 0.156613
H12   H     H_    0.077008 0.357402 0.519884 0.152010
C31   C     C_R   0.956383 0.580342 0.488823 -0.145435
C32   C     C_R   0.043617 0.419762 0.511194 -0.153239
C33   C     C_R   0.043627 0.580336 0.488787 -0.141870
C34   C     C_R   0.956375 0.419768 0.511228 -0.150187
C35   C     C_R   0.912790 0.500057 0.500043 0.140742
C36   C     C_R   0.087211 0.500044 0.499972 0.139771
C37   C     C_1   0.823339 0.500046 0.500050 -0.033670
C38   C     C_1   0.176661 0.500037 0.499958 -0.033794
C39   C     C_1   0.251706 0.500019 0.499966 -0.124053
C40   C     C_1   0.748294 0.500024 0.500038 -0.124023
C41   C     C_R   0.530119 0.951332 0.547444 0.261991
C42   C     C_R   0.469792 0.048593 0.452601 0.251893
C43   C     C_R   0.471004 0.951353 0.452255 0.258626
C44   C     C_R   0.528878 0.048574 0.547801 0.251691
C45   C     C_R   0.499095 0.902994 0.500269 -0.133853
C46   C     C_R   0.500834 0.096954 0.499771 -0.109275
C47   C     C_1   0.499677 0.802669 0.500097 0.435892
C48   C     C_1   0.500293 0.197313 0.499922 0.377532
N3    N     N_1   0.500000 0.276710 0.500000 -0.164056
N4    N     N_1   0.500000 0.723290 0.500000 -0.139498
N5    N     N_R   0.444246 0.657758 0.323666 0.169824
O13   O     O_R   0.375955 0.656606 0.353695 -0.304692
O14   O     O_R   0.483024 0.734125 0.315373 -0.272046
N6    N     N_R   0.556643 0.657429 0.676239 0.168688
O15   O     O_R   0.624820 0.655774 0.646100 -0.307076
O16   O     O_R   0.518298 0.734060 0.684499 -0.261728
N7    N     N_R   0.450963 0.651581 0.202971 0.161552
O17   O     O_R   0.495642 0.677603 0.159766 -0.313582
O18   O     O_R   0.382120 0.694639 0.214740 -0.245685
N8    N     N_R   0.549858 0.651392 0.796950 0.161758
O19   O     O_R   0.505309 0.677669 0.840153 -0.312896
O20   O     O_R   0.618897 0.694074 0.785163 -0.245613
O21   O     O_3   0.552610 0.098160 0.594849 -0.713478
H13   H     H_    0.542214 0.061504 0.629341 0.352669
O22   O     O_3   0.447141 0.901745 0.405247 -0.659838
H14   H     H_    0.457582 0.938316 0.370726 0.363785
O23   O     O_3   0.436797 0.098194 0.408208 -0.712730
H15   H     H_    0.393190 0.061555 0.389187 0.351289
O24   O     O_3   0.563091 0.901701 0.591835 -0.658644
H16   H     H_    0.606676 0.938320 0.610891 0.357577

loop_
_geom_bond_atom_site_label_1
_geom_bond_atom_site_label_2
_geom_bond_distance
_ccdc_geom_bond_type
C35   C37   1.430931 S    
O22   H14   0.989955 S    
C15   C17   1.395139 A    
C3    C23   1.478514 S    
O23   H15   0.989949 S    
C1    C39   1.425555 S    
O3    C2    1.278372 A    
C27   N7    1.438218 S    
O24   H16   0.989917 S    
C19   H5    1.083032 S    
N7    O17   1.301186 A    
O5    C3    1.283784 A    
C46   C48   1.480986 S    
O1    C1    1.278375 A    
C7    C9    1.402831 A    
C12   C14   1.408475 A    
H11   C31   1.083554 S    
H12   C32   1.083554 S    
C18   H4    1.083081 S    
C32   C34   1.395601 A    
Cu2   N3    1.978407 S    
O7    Cu1   1.944991 S    
N2    C29   1.435360 S    
C22   H8    1.083224 S    
C25   C27   1.412329 A    
C42   C46   1.411017 A    
C26   C28   1.412339 A    
C11   C12   1.411150 A    
C41   C45   1.410836 A    
C42   C43   1.435072 A    
O3    Cu1   1.925619 S    
C4    C24   1.478340 S    
H10   C34   1.083556 S    
C8    O12   1.349414 S    
C2    C40   1.425558 S    
C38   C39   1.200479 T    
C9    C15   1.404786 A    
C10   C16   1.404787 A    
Cu1   Cu2   2.633150 S    
C45   C47   1.480481 S    
O2    C2    1.278495 A    
O7    C4    1.283727 A    
C28   C30   1.411079 A    
N7    O18   1.301198 A    
C6    C14   1.402353 A    
C31   C33   1.395633 A    
C28   N8    1.438204 S    
C48   N3    1.171626 T    
C44   C46   1.411057 A    
O8    Cu2   1.944991 S    
O21   H13   0.989969 S    
C43   C45   1.410832 A    
C44   O21   1.381341 S    
C19   C21   1.388636 A    
C15   H1    1.083078 S    
C25   N5    1.434280 S    
C20   C30   1.396101 A    
C27   C29   1.411029 A    
C36   C38   1.430925 S    
C33   C36   1.399793 A    
C34   C35   1.399779 A    
C20   H6    1.083032 S    
C20   C22   1.388622 A    
O6    C4    1.286111 A    
C37   C40   1.200481 T    
C21   H7    1.083215 S    
C8    C10   1.402837 A    
N6    O16   1.301059 A    
C9    C11   1.408884 A    
C7    O11   1.349416 S    
C10   C12   1.408887 A    
C6    O10   1.349509 S    
C41   C44   1.435126 A    
C26   N6    1.434355 S    
N5    O14   1.301045 A    
C13   C18   1.404879 A    
C5    N1    1.370105 A    
Cu1   N4    1.978407 S    
O6    Cu2   1.945035 S    
N8    O20   1.301201 A    
O4    C1    1.278489 A    
C5    O9    1.349507 S    
C43   O22   1.381351 S    
C23   C25   1.419125 A    
C31   C35   1.399801 A    
C32   C36   1.399785 A    
C16   C18   1.395147 A    
C42   O23   1.381325 S    
C19   C29   1.396065 A    
H9    C33   1.083557 S    
C24   C26   1.419092 A    
N1    C7    1.369502 A    
N2    C8    1.369498 A    
C11   C13   1.408476 A    
O4    Cu2   1.925621 S    
O2    Cu2   1.925614 S    
C47   N4    1.171375 T    
C5    C13   1.402363 A    
O8    C3    1.286148 A    
N5    O13   1.301228 A    
O5    Cu1   1.945035 S    
O1    Cu1   1.925616 S    
N8    O19   1.301188 A    
C16   H2    1.083078 S    
C14   C17   1.404876 A    
C6    N2    1.370096 A    
N6    O15   1.301230 A    
C17   H3    1.083081 S    
C21   C23   1.403708 A    
N1    C30   1.435376 S    
C22   C24   1.403642 A    
C41   O24   1.381388 S    
