data_mof_unit_39872.cif
_audit_creation_date              2013-03-05T16:10:16-0500
_audit_creation_method            fapswitch 2.2
_symmetry_space_group_name_H-M    P1
_symmetry_Int_Tables_number       1
_space_group_crystal_system       triclinic
_cell_length_a                    9.863681
_cell_length_b                    10.658914
_cell_length_c                    13.166342
_cell_angle_alpha                 90.151105
_cell_angle_beta                  69.605003
_cell_angle_gamma                 89.735814
_cell_volume                      1297.45532415

loop_
_atom_site_label
_atom_site_type_symbol
_atom_site_description
_atom_site_fract_x
_atom_site_fract_y
_atom_site_fract_z
_atom_type_partial_charge
O1    O     O_R   0.385370 0.683250 0.500010 -0.615105
O2    O     O_R   0.614700 0.683220 0.500010 -0.614276
C1    C     C_R   0.501783 0.739804 0.495834 0.903276
O3    O     O_R   0.328400 0.499990 0.653620 -0.591241
O4    O     O_R   0.557730 0.499960 0.653620 -0.620339
C2    C     C_R   0.419470 0.502951 0.704349 0.842770
Zn1   Zn    Zn3+2 0.346870 0.500020 0.500000 1.001987
Zn2   Zn    Zn3+2 0.653130 0.499980 0.500000 1.054356
O5    O     O_R   0.385300 0.316780 0.499990 -0.636129
O6    O     O_R   0.614630 0.316750 0.499990 -0.583187
O7    O     O_R   0.442270 0.500040 0.346380 -0.607236
O8    O     O_R   0.671600 0.500010 0.346380 -0.537816
C3    C     C_R   0.500245 0.260188 0.499769 0.882426
C4    C     C_R   0.580771 0.501666 0.295497 0.961692
C5    C     C_R   0.792485 0.593632 0.005948 -0.115228
C6    C     C_R   0.631599 0.511719 0.177655 -0.162165
C7    C     C_R   0.253407 0.411312 0.871903 -0.188668
C8    C     C_R   0.245096 0.350358 0.966756 -0.088041
C9    C     C_R   0.353718 0.366484 0.011394 -0.016556
C10   C     C_R   0.457680 0.465059 0.971451 0.039626
C11   C     C_R   0.461884 0.528466 0.876633 0.036453
C12   C     C_R   0.558745 0.502412 0.020324 0.056462
C13   C     C_R   0.677038 0.581380 0.965241 -0.065464
C14   C     C_R   0.667908 0.654376 0.878483 0.326130
C15   C     C_R   0.560241 0.627341 0.835943 -0.247198
C16   C     C_R   0.533145 0.478344 0.128553 -0.163605
C17   C     C_R   0.767264 0.561057 0.114920 0.258269
C18   C     C_R   0.369332 0.490889 0.821822 -0.096986
H1    H     H_    0.428723 0.443448 0.178437 0.169855
H2    H     H_    0.179779 0.384010 0.831094 0.189866
H3    H     H_    0.162978 0.279226 0.997818 0.202872
H4    H     H_    0.551224 0.686127 0.771515 0.167147
C19   C     C_R   0.575366 0.934739 0.550606 -0.150942
H5    H     H_    0.627876 0.884016 0.598075 0.183547
C20   C     C_R   0.574935 0.063057 0.553154 -0.098254
H6    H     H_    0.628255 0.111468 0.601193 0.175867
C21   C     C_R   0.501932 0.128035 0.496366 -0.041793
C22   C     C_R   0.432678 0.067291 0.434319 -0.182756
H7    H     H_    0.381079 0.121201 0.387930 0.179025
C23   C     C_R   0.436664 0.938011 0.427528 -0.030117
C24   C     C_R   0.505265 0.872449 0.489529 -0.100482
C25   C     C_R   0.951290 0.402548 0.453976 0.374286
C26   C     C_R   0.094356 0.402992 0.455047 -0.102920
H8    H     H_    0.167481 0.326437 0.417991 0.174345
N1    N     N_R   0.142790 0.500030 0.500030 -0.116502
C27   C     C_R   0.050081 0.597094 0.545261 0.001881
H9    H     H_    0.086800 0.674979 0.581550 0.180421
C28   C     C_R   0.906562 0.597101 0.544950 -0.081006
H10   H     H_    0.835311 0.675073 0.579863 0.196122
N2    N     N_R   0.857180 0.499940 0.500010 -0.143966
N3    N     N_R   0.875152 0.583782 0.162542 0.244998
O9    O     O_R   0.866091 0.682866 0.222530 -0.317669
O10   O     O_R   0.987981 0.510761 0.139358 -0.342443
C29   C     C_2   0.375099 0.876826 0.351802 0.945392
O11   O     O_2   0.432766 0.783425 0.300436 -0.604953
O12   O     O_R   0.253837 0.929463 0.336044 -0.780078
H11   H     H_    0.222859 0.880564 0.281737 0.374777
N4    N     N_R   0.908050 0.299771 0.402506 0.220442
O13   O     O_R   0.937492 0.185533 0.423015 -0.369964
O14   O     O_R   0.871058 0.320037 0.318417 -0.302368
N5    N     N_R   0.749023 0.768397 0.845757 0.214957
O15   O     O_R   0.782394 0.808869 0.746988 -0.428179
O16   O     O_R   0.763632 0.844193 0.918900 -0.332696
C30   C     C_2   0.939541 0.632588 0.933930 1.013050
O17   O     O_2   0.983811 0.600910 0.838522 -0.647744
O18   O     O_R   0.027529 0.704713 0.974437 -0.703028
H12   H     H_    0.125036 0.723442 0.917375 0.345318
C31   C     C_2   0.365258 0.266177 0.086078 0.863809
O19   O     O_2   0.483648 0.222848 0.077998 -0.586947
O20   O     O_R   0.239909 0.218438 0.163474 -0.743925
H13   H     H_    0.261515 0.150640 0.209606 0.376546

loop_
_geom_bond_atom_site_label_1
_geom_bond_atom_site_label_2
_geom_bond_distance
_ccdc_geom_bond_type
O4    Zn2   1.910470 S    
Zn1   O7    1.910471 S    
C13   C14   1.412102 A    
C14   C15   1.393241 A    
C23   C24   1.412898 A    
C21   C22   1.394074 A    
C2    C18   1.456665 S    
O2    C1    1.282160 A    
C29   O11   1.222773 D    
C5    C17   1.412677 A    
C20   H6    1.084228 S    
Zn2   O8    1.966554 S    
C5    C30   1.491484 S    
C19   C24   1.398055 A    
C30   O17   1.223420 D    
C25   N4    1.429371 S    
C15   H4    1.083967 S    
C28   N2    1.364623 A    
C7    C8    1.386330 A    
O8    C4    1.292291 A    
C9    C31   1.485057 S    
O1    Zn1   1.991336 S    
N1    C27   1.367375 A    
O12   H11   1.013943 S    
C22   C23   1.380130 A    
C7    H2    1.083467 S    
C26   N1    1.359175 A    
C30   O18   1.398306 S    
C14   N5    1.440253 S    
C25   N2    1.379248 A    
O3    Zn1   1.966553 S    
O4    C2    1.292893 A    
Zn1   N1    2.012842 S    
C6    C17   1.409923 A    
C28   H10   1.078598 S    
C19   C20   1.367999 A    
C11   C18   1.405583 A    
C17   N3    1.432100 S    
C19   H5    1.084446 S    
C4    C6    1.459235 S    
C26   H8    1.082272 S    
C6    C16   1.388207 A    
N5    O15   1.300565 A    
Zn2   O6    1.991338 S    
O7    C4    1.295309 A    
C29   O12   1.398513 S    
C25   C26   1.416168 A    
C5    C13   1.423873 A    
N3    O10   1.300587 A    
N4    O14   1.299091 A    
N3    O9    1.301049 A    
C27   C28   1.417066 A    
Zn2   N2    2.012728 S    
O20   H13   1.013750 S    
O18   H12   1.014026 S    
C10   C11   1.409121 A    
C16   H1    1.078846 S    
O3    C2    1.293191 A    
C8    C9    1.401050 A    
C12   C16   1.382718 A    
Zn1   O5    1.987857 S    
C31   O20   1.398722 S    
C11   C15   1.410343 A    
C27   H9    1.081635 S    
C1    C24   1.416373 S    
O5    C3    1.280901 A    
C8    H3    1.083797 S    
C20   C21   1.389469 A    
N4    O13   1.301182 A    
C12   C13   1.420694 A    
C7    C18   1.395739 A    
C3    C21   1.409039 S    
N5    O16   1.301756 A    
O2    Zn2   1.987858 S    
C9    C10   1.438432 A    
C23   C29   1.486723 S    
C10   C12   1.419762 A    
C31   O19   1.223290 D    
O1    C1    1.283538 A    
O6    C3    1.282580 A    
C22   H7    1.085403 S    
