data_mof_unit_54399.cif
_audit_creation_date              2012-12-10T19:21:31-0500
_audit_creation_method            fapswitch 2.2
_symmetry_space_group_name_H-M    P1
_symmetry_Int_Tables_number       1
_space_group_crystal_system       triclinic
_cell_length_a                    10.879526
_cell_length_b                    15.987345
_cell_length_c                    14.741636
_cell_angle_alpha                 89.907264
_cell_angle_beta                  90.956695
_cell_angle_gamma                 90.211241
_cell_volume                      2563.70459518

loop_
_atom_site_label
_atom_site_type_symbol
_atom_type_description
_atom_site_fract_x
_atom_site_fract_y
_atom_site_fract_z
_atom_type_partial_charge
C1    C     C_R   0.500595 0.340901 0.499907 0.822721
C2    C     C_R   0.513086 0.087632 0.498869 0.094615
C3    C     C_R   0.568897 0.954337 0.434340 -0.251328
C4    C     C_R   0.452208 0.046116 0.568548 -0.238932
C5    C     C_1   0.504740 0.823190 0.502563 -0.068347
C6    C     C_1   0.508488 0.177143 0.498287 -0.085663
C7    C     C_1   0.504426 0.252042 0.499264 -0.191977
C8    C     C_1   0.502831 0.748182 0.501007 -0.196108
C9    C     C_R   0.546615 0.571257 0.953506 0.035279
C10   C     C_R   0.464428 0.426224 0.046047 0.027739
C11   C     C_R   0.502886 0.501564 0.902694 -0.017194
C12   C     C_R   0.500529 0.659158 0.500120 0.839177
C13   C     C_R   0.503489 0.497207 0.097060 0.001072
C14   C     C_R   0.463595 0.430134 0.949878 -0.239345
C15   C     C_R   0.544968 0.568158 0.049711 -0.228451
C16   C     C_R   0.261520 0.499538 0.499067 0.779365
C17   C     C_R   0.738243 0.497373 0.501001 0.806003
C18   C     C_1   0.501394 0.500278 0.802636 0.143147
C19   C     C_1   0.501193 0.499243 0.197294 0.097817
C20   C     C_R   0.188898 0.588082 0.196804 0.508823
C21   C     C_R   0.776264 0.350158 0.760090 0.520944
C22   C     C_R   0.151259 0.584222 0.287614 -0.280017
C23   C     C_R   0.871722 0.494273 0.502724 -0.105869
C24   C     C_R   0.827127 0.376391 0.677527 -0.292143
C25   C     C_R   0.110942 0.508201 0.324711 -0.013860
C26   C     C_R   0.885282 0.454730 0.670588 -0.027677
C27   C     C_R   0.108005 0.435543 0.270628 0.471856
C28   C     C_R   0.893385 0.507096 0.747379 0.504548
C29   C     C_R   0.140642 0.440710 0.179483 -0.288850
C30   C     C_R   0.837760 0.482056 0.828326 -0.293198
C31   C     C_R   0.181044 0.516267 0.142924 -0.247451
C32   C     C_R   0.779676 0.404332 0.834412 -0.261431
C33   C     C_R   0.931212 0.506274 0.420471 -0.194236
C34   C     C_R   0.127757 0.497398 0.497498 -0.114641
C35   C     C_R   0.068249 0.482974 0.579635 -0.223807
C36   C     C_R   0.599690 0.646530 0.908547 0.097136
C37   C     C_R   0.712731 0.679771 0.939689 -0.162947
C38   C     C_R   0.764562 0.749426 0.897198 -0.119494
C39   C     C_R   0.704765 0.786458 0.822911 -0.104739
C40   C     C_R   0.592487 0.754321 0.791475 -0.099537
C41   C     C_R   0.539524 0.685392 0.834451 -0.120232
C42   C     C_R   0.424033 0.347064 0.090521 0.104078
C43   C     C_R   0.319447 0.303874 0.057570 -0.172577
C44   C     C_R   0.280884 0.229709 0.098879 -0.134985
C45   C     C_R   0.940929 0.479679 0.583285 0.086047
C46   C     C_R   0.345927 0.197771 0.173532 -0.140954
C47   C     C_R   0.449863 0.239817 0.206774 -0.132503
C48   C     C_R   0.490552 0.312838 0.164417 -0.120805
C49   C     C_3   0.325838 0.698702 0.195757 0.041002
C50   C     C_3   0.297315 0.786499 0.230315 -0.329215
C51   C     C_3   0.414329 0.832927 0.258919 -0.940857
C52   C     C_3   0.789097 0.206130 0.747885 0.030659
C53   C     C_3   0.732871 0.157012 0.668501 -0.317181
C54   C     C_3   0.806640 0.078473 0.648076 -0.931558
C55   C     C_3   0.157624 0.315153 0.344195 0.068164
C56   C     C_R   0.058020 0.506022 0.416337 0.059713
C57   C     C_3   0.109714 0.228508 0.369943 -0.351955
C58   C     C_3   0.208325 0.176923 0.418648 -0.907917
C59   C     C_3   0.065271 0.584153 0.784931 0.039909
C60   C     C_3   0.065105 0.641073 0.868190 -0.348184
C61   C     C_3   0.193101 0.647266 0.911473 -0.910656
C62   C     C_R   0.382411 0.918126 0.647902 0.106452
C63   C     C_R   0.287547 0.859865 0.631218 -0.134256
C64   C     C_R   0.222737 0.825207 0.703410 -0.147197
C65   C     C_R   0.251250 0.848973 0.792506 -0.130012
C66   C     C_R   0.345722 0.906402 0.809785 -0.127171
C67   C     C_R   0.447875 0.958733 0.571916 0.016985
C68   C     C_R   0.410914 0.941059 0.737922 -0.176804
C69   C     C_R   0.639651 0.083205 0.355268 0.111097
C70   C     C_R   0.619247 0.056533 0.265265 -0.179876
C71   C     C_R   0.680443 0.095234 0.193757 -0.125669
C72   C     C_R   0.761927 0.161212 0.211134 -0.113805
C73   C     C_R   0.783565 0.187868 0.300146 -0.160567
C74   C     C_R   0.724369 0.148368 0.372063 -0.146009
C75   C     C_R   0.573463 0.041934 0.430913 0.012811
C76   C     C_R   0.506152 0.912844 0.503343 0.094987
Cu1   Cu    Cu3+1 0.500040 0.500000 0.589220 0.986170
Cu2   Cu    Cu3+1 0.499960 0.500000 0.410780 0.952449
H1    H     H_    0.205151 0.519120 0.072170 0.168327
H2    H     H_    0.615262 0.918031 0.383177 0.155175
H3    H     H_    0.576562 0.621952 0.088328 0.127773
H4    H     H_    0.434534 0.375919 0.910902 0.151411
H5    H     H_    0.761860 0.651079 0.996081 0.120386
H6    H     H_    0.851506 0.774450 0.921655 0.119601
H7    H     H_    0.745388 0.840043 0.789720 0.121163
H8    H     H_    0.546387 0.782738 0.733658 0.152702
H9    H     H_    0.451958 0.662478 0.809271 0.120982
H10   H     H_    0.265941 0.328395 0.000992 0.116730
H11   H     H_    0.199755 0.197447 0.073499 0.126686
H12   H     H_    0.737036 0.386050 0.897295 0.174757
H13   H     H_    0.315353 0.140774 0.205965 0.131974
H14   H     H_    0.499068 0.215884 0.265489 0.164705
H15   H     H_    0.574393 0.342057 0.189276 0.134775
H16   H     H_    0.395518 0.703619 0.141781 0.166008
H17   H     H_    0.368154 0.661145 0.252048 0.150827
H18   H     H_    0.249652 0.822856 0.175941 0.229291
H19   H     H_    0.235353 0.781871 0.289285 0.208215
H20   H     H_    0.466641 0.796097 0.310283 0.270008
H21   H     H_    0.389902 0.894280 0.288700 0.257907
H22   H     H_    0.473325 0.843946 0.199263 0.250799
H23   H     H_    0.149782 0.640578 0.328225 0.143556
H24   H     H_    0.791891 0.165010 0.808726 0.160001
H25   H     H_    0.886585 0.222624 0.732877 0.119300
H26   H     H_    0.637160 0.138664 0.684975 0.232268
H27   H     H_    0.730234 0.197403 0.607228 0.208657
H28   H     H_    0.902193 0.095426 0.629762 0.256638
H29   H     H_    0.763096 0.044619 0.590138 0.267364
H30   H     H_    0.808686 0.036232 0.707983 0.252418
H31   H     H_    0.191686 0.346963 0.406773 0.146337
H32   H     H_    0.235424 0.307610 0.296781 0.164906
H33   H     H_    0.029885 0.235251 0.415430 0.221365
H34   H     H_    0.820683 0.336228 0.618552 0.136118
H35   H     H_    0.078900 0.194945 0.307561 0.221555
H36   H     H_    0.289953 0.169773 0.375178 0.258591
H37   H     H_    0.171380 0.113801 0.434330 0.258188
H38   H     H_    0.236242 0.207665 0.483317 0.256867
H39   H     H_    0.133036 0.609103 0.736093 0.168782
H40   H     H_    0.098301 0.520515 0.805241 0.111636
H41   H     H_    0.034187 0.704618 0.847719 0.220109
H42   H     H_    0.000532 0.616149 0.919159 0.214584
H43   H     H_    0.228142 0.584261 0.929802 0.257477
H44   H     H_    0.189740 0.686359 0.973497 0.289391
H45   H     H_    0.131567 0.386271 0.136547 0.174129
H46   H     H_    0.257232 0.676786 0.863408 0.245118
H47   H     H_    0.262148 0.842501 0.562433 0.127885
H48   H     H_    0.149362 0.780724 0.690226 0.141230
H49   H     H_    0.199609 0.823475 0.848221 0.135104
H50   H     H_    0.367976 0.924467 0.878871 0.131229
H51   H     H_    0.483648 0.985782 0.752410 0.128952
H52   H     H_    0.554477 0.006718 0.250155 0.129811
H53   H     H_    0.663407 0.074766 0.124725 0.131054
H54   H     H_    0.808095 0.191799 0.155633 0.129058
H55   H     H_    0.846175 0.239266 0.313378 0.163493
H56   H     H_    0.838716 0.523009 0.886580 0.165492
H57   H     H_    0.744988 0.168646 0.440643 0.128198
H58   H     H_    0.878824 0.514771 0.357878 0.167686
H59   H     H_    0.121198 0.470858 0.641130 0.145508
H60   H     H_    0.406070 0.082251 0.620019 0.148765
N1    N     N_1   0.500040 0.499980 0.276710 -0.166841
N2    N     N_1   0.499960 0.500020 0.723290 -0.152069
O1    O     O_R   0.500060 0.380310 0.575320 -0.558183
O2    O     O_3   0.712874 0.275255 0.767629 -0.609360
O3    O     O_3   0.060889 0.361274 0.303570 -0.628893
O4    O     O_3   0.948151 0.585108 0.741311 -0.602806
O5    O     O_R   0.499940 0.619690 0.424680 -0.582826
O6    O     O_R   0.500000 0.380310 0.424640 -0.579195
O7    O     O_R   0.500000 0.619690 0.575360 -0.567591
O8    O     O_R   0.319670 0.500010 0.575340 -0.587633
O9    O     O_R   0.680330 0.499990 0.424660 -0.583756
O10   O     O_R   0.319610 0.500010 0.424650 -0.585230
O11   O     O_R   0.680390 0.499990 0.575350 -0.558832
O12   O     O_3   0.218194 0.663408 0.156187 -0.628386

loop_
_geom_bond_atom_site_label_1
_geom_bond_atom_site_label_2
_ccdc_geom_bond_type
C66   C68   A    
C52   H25   S    
C34   C56   A    
C23   C45   A    
C27   C29   A    
C47   H14   S    
C24   H34   S    
Cu1   N2    S    
Cu2   N1    S    
Cu1   O11   S    
C36   C41   A    
C11   C18   S    
C2    C6    S    
Cu1   Cu2   S    
C52   H24   S    
C62   C63   A    
C22   H23   S    
C54   H29   S    
C61   H46   S    
C43   H10   S    
C65   H49   S    
C12   O7    A    
C36   C37   A    
C24   C26   A    
C21   O2    S    
C38   C39   A    
C11   C14   A    
C10   C42   S    
C53   H26   S    
C70   H52   S    
C60   H41   S    
C61   H43   S    
C34   C35   A    
C73   C74   A    
C40   H8    S    
C26   C45   S    
C16   C34   S    
C68   H51   S    
C32   H12   S    
C23   C33   A    
C22   C25   A    
C9    C36   S    
C27   O3    S    
C25   C56   S    
C69   C75   S    
C70   C71   A    
C28   O4    S    
C49   H16   S    
C3    C75   A    
Cu1   O7    S    
Cu2   O5    S    
C33   C56   A    
C59   C60   S    
C59   H39   S    
C55   H31   S    
C58   H38   S    
C1    O6    A    
C17   O11   A    
C44   H11   S    
C3    H2    S    
C44   C46   A    
C72   H54   S    
C51   H21   S    
C41   H9    S    
C21   C32   A    
C55   O3    S    
C48   H15   S    
C54   H28   S    
C15   H3    S    
C10   C14   A    
C39   C40   A    
C13   C19   S    
C57   H35   S    
C46   H13   S    
C30   H56   S    
C53   C54   S    
C71   H53   S    
C52   O2    S    
C20   O12   S    
C61   H44   S    
C12   O5    A    
C42   C48   A    
C2    C4    A    
C43   C44   A    
C37   C38   A    
C5    C8    T    
C47   C48   A    
C8    C12   S    
C74   H57   S    
C50   C51   S    
C69   C74   A    
C17   C23   S    
C49   H17   S    
C18   N2    T    
C3    C76   A    
C9    C11   A    
Cu1   O8    S    
C63   H47   S    
C62   C67   S    
C40   C41   A    
C20   C22   A    
C59   O4    S    
C49   C50   S    
C59   H40   S    
C64   H48   S    
C55   C57   S    
C55   H32   S    
C58   H37   S    
C42   C43   A    
C14   H4    S    
C35   C45   A    
C52   C53   S    
Cu2   O10   S    
C51   H22   S    
C46   C47   A    
C50   H19   S    
C49   O12   S    
C38   H6    S    
C1    C7    S    
C17   O9    A    
C73   H55   S    
C72   C73   A    
C10   C13   A    
C4    C67   A    
C31   H1    S    
C6    C7    T    
C62   C68   A    
C25   C27   A    
C26   C28   A    
C54   H30   S    
C16   O8    A    
C64   C65   A    
C5    C76   S    
C13   C15   A    
C9    C15   A    
C37   H5    S    
C71   C72   A    
C29   C31   A    
C35   H59   S    
C30   C32   A    
C33   H58   S    
C50   H18   S    
C57   C58   S    
C57   H33   S    
C51   H20   S    
C29   H45   S    
C28   C30   A    
C66   H50   S    
C60   H42   S    
C69   C70   A    
Cu1   O1    S    
C1    O1    A    
Cu2   O6    S    
C4    H60   S    
C63   C64   A    
C53   H27   S    
C19   N1    T    
C65   C66   A    
C21   C24   A    
C58   H36   S    
C39   H7    S    
C60   C61   S    
C16   O10   A    
C67   C76   A    
C2    C75   A    
Cu2   O9    S    
C20   C31   A    
