data_mof_unit_56746.cif
_audit_creation_date              2012-12-10T17:30:45-0500
_audit_creation_method            fapswitch 2.2
_symmetry_space_group_name_H-M    P1
_symmetry_Int_Tables_number       1
_space_group_crystal_system       triclinic
_cell_length_a                    18.313151
_cell_length_b                    18.313187
_cell_length_c                    59.962073
_cell_angle_alpha                 90.000429
_cell_angle_beta                  90.000753
_cell_angle_gamma                 89.945116
_cell_volume                      20109.600641

loop_
_atom_site_label
_atom_site_type_symbol
_atom_type_description
_atom_site_fract_x
_atom_site_fract_y
_atom_site_fract_z
_atom_type_partial_charge
C1    C     C_R   0.499999 0.000000 0.189662 0.842517
C2    C     C_R   0.500000 0.999998 0.618124 0.141630
C3    C     C_R   0.967175 0.628518 0.475681 -0.331086
C4    C     C_R   0.628499 0.967092 0.524320 -0.330944
C5    C     C_R   0.368256 0.015273 0.475835 -0.334026
C6    C     C_R   0.985079 0.631782 0.524156 -0.334263
C7    C     C_R   0.032832 0.371485 0.475680 -0.331078
C8    C     C_R   0.639853 0.860147 0.250000 0.794180
C9    C     C_R   0.360158 0.139842 0.750000 0.798192
C10   C     C_R   0.139854 0.639854 0.250000 0.796820
C11   C     C_R   0.860132 0.360133 0.750000 0.795574
C12   C     C_R   0.360146 0.139853 0.250000 0.794189
C13   C     C_R   0.000003 0.500002 0.381869 0.142669
C14   C     C_R   0.639842 0.860158 0.750000 0.798201
C15   C     C_R   0.860146 0.360146 0.250000 0.796818
C16   C     C_R   0.139867 0.639868 0.750000 0.795572
C17   C     C_R   0.639867 0.139867 0.750000 0.792693
C18   C     C_R   0.360144 0.860144 0.250000 0.798628
C19   C     C_R   0.139841 0.360159 0.750000 0.797717
C20   C     C_R   0.860146 0.639853 0.250000 0.795073
C21   C     C_R   0.360133 0.860133 0.750000 0.792689
C22   C     C_R   0.639856 0.139856 0.250000 0.798626
C23   C     C_R   0.860159 0.639841 0.750000 0.797725
C24   C     C_R   0.999997 0.499998 0.618003 0.150523
C25   C     C_R   0.139854 0.360146 0.250000 0.795082
C26   C     C_R   0.234192 0.873392 0.278164 -0.144729
C27   C     C_R   0.785565 0.106984 0.735263 -0.144489
C28   C     C_R   0.107189 0.214735 0.264931 -0.141247
C29   C     C_R   0.873646 0.765949 0.721954 -0.148374
C30   C     C_R   0.765809 0.126610 0.278165 -0.144728
C31   C     C_R   0.214435 0.893014 0.735262 -0.144483
C32   C     C_R   0.892811 0.785265 0.264931 -0.141246
C33   C     C_R   0.126351 0.234049 0.721954 -0.148374
C34   C     C_R   0.234027 0.126339 0.721962 -0.144010
C35   C     C_R   0.999956 0.500004 0.881997 0.150517
C36   C     C_R   0.785265 0.892811 0.264932 -0.143439
C37   C     C_R   0.106983 0.785574 0.735268 -0.141787
C38   C     C_R   0.873367 0.234245 0.278181 -0.149514
C39   C     C_R   0.765971 0.873659 0.721962 -0.144013
C40   C     C_R   0.214735 0.107189 0.264931 -0.143441
C41   C     C_R   0.893016 0.214425 0.735268 -0.141787
C42   C     C_R   0.126636 0.765756 0.278182 -0.149513
C43   C     C_R   0.714425 0.393018 0.764731 -0.141788
C44   C     C_R   0.265754 0.626633 0.221819 -0.149513
C45   C     C_R   0.626341 0.734029 0.778038 -0.144011
C46   C     C_R   0.999976 0.500001 0.118130 0.142666
C47   C     C_R   0.392811 0.285264 0.235069 -0.143439
C48   C     C_R   0.285574 0.606985 0.764733 -0.141786
C49   C     C_R   0.734244 0.373364 0.221818 -0.149514
C50   C     C_R   0.373661 0.265973 0.778038 -0.144009
C51   C     C_R   0.607189 0.714735 0.235068 -0.143437
C52   C     C_R   0.714735 0.607189 0.235068 -0.141246
C53   C     C_R   0.265951 0.373648 0.778046 -0.148370
C54   C     C_R   0.626607 0.265808 0.221835 -0.144732
C55   C     C_R   0.393016 0.714436 0.764737 -0.144492
C56   C     C_R   0.285265 0.392811 0.235069 -0.141247
C57   C     C_R   0.500002 0.999902 0.881876 0.141396
C58   C     C_R   0.734051 0.626353 0.778046 -0.148376
C59   C     C_R   0.373389 0.734191 0.221835 -0.144731
C60   C     C_R   0.606985 0.285565 0.764737 -0.144485
C61   C     C_R   0.173489 0.880139 0.292033 -0.145703
C62   C     C_R   0.856117 0.090300 0.728224 -0.141183
C63   C     C_R   0.090659 0.144288 0.272074 -0.139764
C64   C     C_R   0.880482 0.826784 0.708149 -0.149195
C65   C     C_R   0.826514 0.119864 0.292034 -0.145704
C66   C     C_R   0.143882 0.909697 0.728223 -0.141179
C67   C     C_R   0.909341 0.855712 0.272075 -0.139763
C68   C     C_R   0.499987 0.999997 0.118005 0.150020
C69   C     C_R   0.119514 0.173214 0.708149 -0.149193
C70   C     C_R   0.173197 0.119510 0.708154 -0.146470
C71   C     C_R   0.855712 0.909341 0.272075 -0.140062
C72   C     C_R   0.090303 0.856125 0.728226 -0.139705
C73   C     C_R   0.880133 0.173531 0.292044 -0.151987
C74   C     C_R   0.826800 0.880488 0.708154 -0.146471
C75   C     C_R   0.144288 0.090659 0.272074 -0.140063
C76   C     C_R   0.909696 0.143873 0.728227 -0.139705
C77   C     C_R   0.119871 0.826471 0.292044 -0.151986
C78   C     C_R   0.643874 0.409697 0.771772 -0.139708
C79   C     C_R   0.499999 0.000000 0.452590 -0.183850
C80   C     C_R   0.326469 0.619868 0.207956 -0.151987
C81   C     C_R   0.619513 0.673200 0.791846 -0.146470
C82   C     C_R   0.409341 0.355712 0.227926 -0.140060
C83   C     C_R   0.356126 0.590305 0.771774 -0.139711
C84   C     C_R   0.673528 0.380129 0.207956 -0.151989
C85   C     C_R   0.380491 0.326803 0.791846 -0.146469
C86   C     C_R   0.590658 0.644288 0.227925 -0.140059
C87   C     C_R   0.644288 0.590659 0.227925 -0.139762
C88   C     C_R   0.326787 0.380485 0.791850 -0.149192
C89   C     C_R   0.619861 0.326511 0.207966 -0.145704
C90   C     C_R   0.500000 0.999998 0.547561 -0.182039
C91   C     C_R   0.409699 0.643884 0.771777 -0.141185
C92   C     C_R   0.355712 0.409341 0.227926 -0.139763
C93   C     C_R   0.673216 0.619517 0.791850 -0.149195
C94   C     C_R   0.380135 0.673487 0.207966 -0.145700
C95   C     C_R   0.590302 0.356119 0.771776 -0.141180
C96   C     C_R   0.187976 0.757495 0.264011 0.076030
C97   C     C_R   0.821939 0.232551 0.742882 0.072390
C98   C     C_R   0.232692 0.178164 0.257219 0.071882
C99   C     C_R   0.757615 0.812165 0.736059 0.075125
C100  C     C_R   0.812026 0.242506 0.264011 0.076031
C101  C     C_R   0.000004 0.500002 0.452435 -0.182008
C102  C     C_R   0.178060 0.767448 0.742882 0.072390
C103  C     C_R   0.767308 0.821836 0.257220 0.071882
C104  C     C_R   0.242384 0.187834 0.736059 0.075126
C105  C     C_R   0.187835 0.242393 0.736057 0.074964
C106  C     C_R   0.821835 0.767309 0.257220 0.072511
C107  C     C_R   0.232556 0.821941 0.742880 0.072314
C108  C     C_R   0.757515 0.187974 0.264007 0.074957
C109  C     C_R   0.812163 0.757607 0.736057 0.074964
C110  C     C_R   0.178165 0.232691 0.257219 0.072512
C111  C     C_R   0.767444 0.178058 0.742881 0.072313
C112  C     C_R   0.500001 0.999997 0.810312 0.839221
C113  C     C_R   0.999999 0.500000 0.547405 -0.183915
C114  C     C_R   0.242485 0.812027 0.264006 0.074957
C115  C     C_R   0.678059 0.267444 0.757119 0.072313
C116  C     C_R   0.312026 0.742485 0.235993 0.074956
C117  C     C_R   0.742394 0.687836 0.763943 0.074965
C118  C     C_R   0.267309 0.321835 0.242781 0.072511
C119  C     C_R   0.321941 0.732557 0.757119 0.072313
C120  C     C_R   0.687973 0.257515 0.235993 0.074957
C121  C     C_R   0.257608 0.312164 0.763943 0.074965
C122  C     C_R   0.732691 0.678165 0.242780 0.072512
C123  C     C_R   0.678164 0.732692 0.242780 0.071881
C124  C     C_R   0.999958 0.500009 0.952595 -0.183915
C125  C     C_R   0.312166 0.257616 0.763941 0.075125
C126  C     C_R   0.742505 0.312024 0.235988 0.076032
C127  C     C_R   0.267448 0.678061 0.757118 0.072391
C128  C     C_R   0.321836 0.267308 0.242781 0.071882
C129  C     C_R   0.687835 0.742385 0.763941 0.075125
C130  C     C_R   0.257494 0.687974 0.235989 0.076031
C131  C     C_R   0.732551 0.321940 0.757117 0.072390
C132  C     C_R   0.195950 0.695949 0.250000 -0.154672
C133  C     C_R   0.804033 0.304033 0.750000 -0.160620
C134  C     C_R   0.304047 0.195952 0.250000 -0.160791
C135  C     C_R   0.999966 0.500002 0.047565 -0.182008
C136  C     C_R   0.695941 0.804059 0.750000 -0.154012
C137  C     C_R   0.804051 0.304050 0.250000 -0.154671
C138  C     C_R   0.195966 0.695967 0.750000 -0.160618
C139  C     C_R   0.695952 0.804047 0.250000 -0.160786
C140  C     C_R   0.304059 0.195941 0.750000 -0.154007
C141  C     C_R   0.195939 0.304061 0.750000 -0.154697
C142  C     C_R   0.804047 0.695953 0.250000 -0.159264
C143  C     C_R   0.304036 0.804035 0.750000 -0.161137
C144  C     C_R   0.695956 0.195957 0.250000 -0.155113
C145  C     C_R   0.804061 0.695939 0.750000 -0.154701
C146  C     C_R   0.499969 0.999927 0.952438 -0.181990
C147  C     C_R   0.195953 0.304047 0.250000 -0.159269
C148  C     C_R   0.695965 0.195964 0.750000 -0.161142
C149  C     C_R   0.304043 0.804044 0.250000 -0.155114
C150  C     C_R   0.435175 0.005353 0.417128 0.591891
C151  C     C_R   0.562362 0.981469 0.583018 0.587596
C152  C     C_R   0.018503 0.437630 0.416978 0.588160
C153  C     C_R   0.994816 0.564838 0.582866 0.592346
C154  C     C_R   0.564824 0.994650 0.417129 0.591893
C155  C     C_R   0.437638 0.018527 0.583018 0.587602
C156  C     C_R   0.981507 0.562375 0.416978 0.588169
C157  C     C_R   0.499965 0.999964 0.047410 -0.183866
C158  C     C_R   0.005173 0.435159 0.582865 0.592287
C159  C     C_R   0.935117 0.505192 0.917134 0.592314
C160  C     C_R   0.062341 0.481497 0.083021 0.588164
C161  C     C_R   0.518613 0.937582 0.916985 0.587382
C162  C     C_R   0.494589 0.064802 0.082869 0.591909
C163  C     C_R   0.064795 0.494824 0.917134 0.592300
C164  C     C_R   0.937600 0.518504 0.083022 0.588157
C165  C     C_R   0.481383 0.062254 0.916979 0.587584
C166  C     C_R   0.505367 0.935159 0.082874 0.591917
C167  C     C_R   0.505248 0.933724 0.370323 0.451976
C168  C     C_R   0.433654 0.007274 0.440674 -0.127196
C169  C     C_R   0.476480 0.937876 0.629797 0.455176
C170  C     C_R   0.061882 0.524180 0.370195 0.454982
C171  C     C_R   0.066226 0.494095 0.629677 0.451856
C172  C     C_R   0.494750 0.066278 0.370323 0.451976
C173  C     C_R   0.523521 0.062121 0.629798 0.455171
C174  C     C_R   0.938124 0.475823 0.370195 0.454975
C175  C     C_R   0.933769 0.505902 0.629677 0.451906
C176  C     C_R   0.005856 0.433774 0.870323 0.451893
C177  C     C_R   0.975799 0.438122 0.129806 0.454974
C178  C     C_R   0.562119 0.023454 0.870206 0.455345
C179  C     C_R   0.564513 0.982878 0.559477 -0.129279
C180  C     C_R   0.566268 0.994771 0.129676 0.451991
C181  C     C_R   0.994069 0.566233 0.870322 0.451871
C182  C     C_R   0.024161 0.561879 0.129805 0.454983
C183  C     C_R   0.437887 0.976370 0.870199 0.455043
C184  C     C_R   0.433711 0.005226 0.129678 0.451962
C185  C     C_R   0.503613 0.933941 0.346896 -0.331966
C186  C     C_R   0.478376 0.937470 0.653207 -0.327649
C187  C     C_R   0.062313 0.522229 0.346783 -0.328413
C188  C     C_R   0.066018 0.495772 0.653106 -0.332474
C189  C     C_R   0.496386 0.066061 0.346896 -0.331966
C190  C     C_R   0.017098 0.435481 0.440520 -0.129021
C191  C     C_R   0.521625 0.062528 0.653208 -0.327645
C192  C     C_R   0.937691 0.477773 0.346783 -0.328408
C193  C     C_R   0.933978 0.504227 0.653105 -0.332522
C194  C     C_R   0.004195 0.433981 0.846895 -0.332503
C195  C     C_R   0.977757 0.437690 0.153218 -0.328400
C196  C     C_R   0.562528 0.021587 0.846796 -0.327627
C197  C     C_R   0.566056 0.996408 0.153103 -0.332004
C198  C     C_R   0.995758 0.566023 0.846894 -0.332472
C199  C     C_R   0.022220 0.562310 0.153217 -0.328410
C200  C     C_R   0.437479 0.978316 0.846790 -0.327367
C201  C     C_R   0.992911 0.566367 0.559319 -0.127004
C202  C     C_R   0.433933 0.003593 0.153105 -0.331975
C203  C     C_3   0.425509 0.166522 0.378763 0.085244
C204  C     C_3   0.414369 0.222858 0.397244 -0.325540
C205  C     C_3   0.340164 0.260305 0.395279 -0.931422
C206  C     C_3   0.620383 0.134131 0.620466 0.074438
C207  C     C_3   0.647117 0.184428 0.601860 -0.321361
C208  C     C_3   0.729563 0.195849 0.603081 -0.939330
C209  C     C_3   0.866572 0.378383 0.379333 0.075465
C210  C     C_3   0.816179 0.350998 0.397825 -0.321433
C211  C     C_3   0.805213 0.268519 0.396429 -0.938403
C212  C     C_R   0.566345 0.992727 0.440675 -0.127194
C213  C     C_3   0.833896 0.575893 0.621360 0.086325
C214  C     C_3   0.777535 0.587650 0.602922 -0.326238
C215  C     C_3   0.740511 0.662029 0.605018 -0.929428
C216  C     C_3   0.574491 0.833481 0.378763 0.085244
C217  C     C_3   0.585630 0.777146 0.397245 -0.325537
C218  C     C_3   0.659833 0.739694 0.395279 -0.931423
C219  C     C_3   0.379617 0.865867 0.620465 0.074439
C220  C     C_3   0.352879 0.815571 0.601858 -0.321357
C221  C     C_3   0.270433 0.804151 0.603080 -0.939333
C222  C     C_3   0.133434 0.621621 0.379333 0.075476
C223  C     C_R   0.999999 0.500000 0.189690 0.839163
C224  C     C_R   0.435487 0.017118 0.559476 -0.129279
C225  C     C_3   0.183814 0.649011 0.397829 -0.321424
C226  C     C_3   0.194779 0.731490 0.396432 -0.938404
C227  C     C_3   0.166092 0.424107 0.621354 0.086274
C228  C     C_3   0.222497 0.412394 0.602926 -0.326274
C229  C     C_3   0.259502 0.338002 0.605011 -0.929473
C230  C     C_3   0.924083 0.666103 0.878641 0.086300
C231  C     C_3   0.912346 0.722482 0.897076 -0.326294
C232  C     C_3   0.837957 0.759491 0.894987 -0.929374
C233  C     C_3   0.121603 0.633425 0.120664 0.075468
C234  C     C_3   0.148987 0.683811 0.102170 -0.321432
C235  C     C_R   0.982910 0.564524 0.440521 -0.129019
C236  C     C_3   0.231467 0.694773 0.103565 -0.938421
C237  C     C_3   0.366022 0.879445 0.879550 0.073942
C238  C     C_3   0.315144 0.852801 0.898021 -0.321648
C239  C     C_3   0.303877 0.770332 0.896828 -0.939238
C240  C     C_3   0.333433 0.074425 0.121241 0.085278
C241  C     C_3   0.277093 0.085545 0.102759 -0.325522
C242  C     C_3   0.239609 0.159732 0.104727 -0.931437
C243  C     C_3   0.075823 0.333891 0.878647 0.086297
C244  C     C_3   0.087540 0.277511 0.897082 -0.326264
C245  C     C_3   0.161920 0.240483 0.894995 -0.929438
C246  C     C_R   0.007084 0.433632 0.559319 -0.127015
C247  C     C_3   0.878351 0.366580 0.120668 0.075460
C248  C     C_3   0.850959 0.316183 0.102177 -0.321423
C249  C     C_3   0.768479 0.305225 0.103574 -0.938427
C250  C     C_3   0.634075 0.120339 0.879555 0.074327
C251  C     C_3   0.684374 0.147066 0.898162 -0.321379
C252  C     C_3   0.695775 0.229517 0.896949 -0.939371
C253  C     C_3   0.666547 0.925571 0.121240 0.085300
C254  C     C_3   0.722851 0.914423 0.102750 -0.325511
C255  C     C_3   0.760343 0.840243 0.104723 -0.931429
C256  C     C_3   0.278713 0.095266 0.441947 0.129459
C257  C     C_R   0.933590 0.507101 0.940681 -0.127010
C258  C     C_3   0.212745 0.104271 0.426789 -0.776059
C259  C     C_3   0.738531 0.011464 0.559189 0.129860
C260  C     C_3   0.805489 0.994692 0.573289 -0.788822
C261  C     C_3   0.988655 0.261353 0.440838 0.130141
C262  C     C_3   0.005468 0.194458 0.426716 -0.788797
C263  C     C_3   0.905521 0.721787 0.557987 0.129912
C264  C     C_3   0.896701 0.787619 0.573211 -0.776207
C265  C     C_3   0.721287 0.904735 0.441949 0.129454
C266  C     C_3   0.787249 0.895728 0.426789 -0.776050
C267  C     C_3   0.261469 0.988531 0.559187 0.129857
C268  C     C_R   0.064488 0.482901 0.059479 -0.129019
C269  C     C_3   0.194511 0.005301 0.573287 -0.788812
C270  C     C_3   0.011347 0.738657 0.440842 0.130136
C271  C     C_3   0.994535 0.805548 0.426719 -0.788791
C272  C     C_3   0.094488 0.278242 0.557999 0.129911
C273  C     C_3   0.103289 0.212370 0.573207 -0.776263
C274  C     C_3   0.778182 0.594501 0.942009 0.129873
C275  C     C_3   0.712310 0.603304 0.926800 -0.776167
C276  C     C_3   0.238620 0.511325 0.059159 0.130131
C277  C     C_3   0.305511 0.494506 0.073283 -0.788774
C278  C     C_3   0.488475 0.761536 0.940756 0.129832
C279  C     C_R   0.517152 0.935427 0.940526 -0.129268
C280  C     C_3   0.505296 0.694495 0.926699 -0.789112
C281  C     C_3   0.404599 0.221225 0.058040 0.129432
C282  C     C_3   0.395565 0.287183 0.073200 -0.775988
C283  C     C_3   0.221716 0.405502 0.942005 0.129932
C284  C     C_3   0.287552 0.396680 0.926783 -0.776258
C285  C     C_3   0.761321 0.488662 0.059163 0.130135
C286  C     C_3   0.694427 0.505476 0.073285 -0.788803
C287  C     C_3   0.511323 0.238421 0.940791 0.129834
C288  C     C_3   0.494521 0.305381 0.926696 -0.788865
C289  C     C_3   0.595330 0.778701 0.058051 0.129438
C290  C     C_R   0.492660 0.066311 0.059323 -0.127184
C291  C     C_3   0.604375 0.712771 0.073222 -0.775957
C292  C     C_R   0.066324 0.492917 0.940681 -0.127017
C293  C     C_R   0.935447 0.517100 0.059480 -0.129022
C294  C     C_R   0.482799 0.064420 0.940521 -0.129320
C295  C     C_R   0.999998 0.500000 0.810337 0.842544
C296  C     C_R   0.507278 0.933628 0.059328 -0.127180
C297  C     C_R   0.367824 0.015978 0.452568 0.507933
C298  C     C_R   0.629085 0.967451 0.547576 0.506940
C299  C     C_R   0.032515 0.370904 0.452423 0.506892
C300  C     C_R   0.984408 0.632227 0.547424 0.507978
C301  C     C_R   0.632175 0.984023 0.452569 0.507936
C302  C     C_R   0.370915 0.032545 0.547575 0.506941
C303  C     C_R   0.967493 0.629100 0.452423 0.506894
C304  C     C_R   0.015590 0.367774 0.547423 0.507969
C305  C     C_R   0.867733 0.515610 0.952576 0.507973
C306  C     C_R   0.999999 0.500000 0.689662 0.842542
C307  C     C_R   0.129062 0.467479 0.047576 0.506891
C308  C     C_R   0.532589 0.870863 0.952429 0.506971
C309  C     C_R   0.483918 0.132131 0.047426 0.507942
C310  C     C_R   0.132183 0.484407 0.952575 0.507979
C311  C     C_R   0.870870 0.532520 0.047578 0.506893
C312  C     C_R   0.467330 0.128987 0.952419 0.506949
C313  C     C_R   0.516011 0.867796 0.047437 0.507939
C314  C     C_R   0.500000 0.000001 0.335021 -0.118723
C315  C     C_R   0.500000 0.999999 0.665054 -0.119325
C316  C     C_R   0.000002 0.500001 0.334940 -0.118567
C317  C     C_R   0.000000 0.500000 0.310310 0.839165
C318  C     C_R   0.999998 0.499999 0.664979 -0.118227
C319  C     C_R   0.999985 0.500001 0.835021 -0.118235
C320  C     C_R   0.999993 0.499999 0.165060 -0.118569
C321  C     C_R   0.500002 0.999970 0.834946 -0.119440
C322  C     C_R   0.499996 0.000001 0.164979 -0.118704
C323  C     C_R   0.934351 0.514170 0.011952 0.025625
C324  C     C_R   0.066319 0.489942 0.988209 0.026922
C325  C     C_R   0.510190 0.933610 0.011799 0.026852
C326  C     C_R   0.485679 0.065529 0.988050 0.025553
C327  C     C_R   0.065575 0.485838 0.011951 0.025630
C328  C     C_R   0.500000 1.000000 0.689688 0.839231
C329  C     C_R   0.933602 0.510071 0.988209 0.026924
C330  C     C_R   0.489722 0.066284 0.011794 0.026842
C331  C     C_R   0.514232 0.934344 0.988055 0.025477
C332  C     C_R   0.434399 0.014239 0.511947 0.025560
C333  C     C_R   0.566342 0.989801 0.488204 0.026832
C334  C     C_R   0.010061 0.433642 0.511791 0.026914
C335  C     C_R   0.985842 0.565615 0.488049 0.025630
C336  C     C_R   0.565600 0.985759 0.511948 0.025561
C337  C     C_R   0.433657 0.010198 0.488203 0.026831
C338  C     C_R   0.989942 0.566360 0.511791 0.026933
C339  C     C_R   0.500000 0.000000 0.310338 0.842513
C340  C     C_R   0.014165 0.434389 0.488049 0.025626
C341  C     C_R   0.999964 0.500003 0.023762 0.076192
C342  C     C_R   0.999960 0.500008 0.976397 0.076776
C343  C     C_R   0.499959 0.999952 0.023608 0.076727
C344  C     C_R   0.499960 0.999933 0.976241 0.076129
C345  C     C_R   0.500000 0.999998 0.523758 0.076150
C346  C     C_R   0.499999 1.000000 0.476392 0.076715
C347  C     C_R   0.000001 0.500001 0.523603 0.076776
C348  C     C_R   0.000004 0.500002 0.476237 0.076193
C349  C     C_R   0.871449 0.532840 0.024320 -0.331078
C350  C     C_R   0.499999 0.000001 0.381995 0.149995
C351  C     C_R   0.131740 0.485075 0.975844 -0.334242
C352  C     C_R   0.515301 0.868217 0.024170 -0.334045
C353  C     C_R   0.466975 0.128413 0.975676 -0.330913
C354  C     C_R   0.128478 0.467163 0.024318 -0.331083
C355  C     C_R   0.868180 0.514940 0.975845 -0.334237
C356  C     C_R   0.484616 0.131688 0.024159 -0.334045
C357  C     C_R   0.532922 0.871447 0.975685 -0.330787
C358  C     C_R   0.371500 0.032904 0.524319 -0.330944
C359  C     C_R   0.631743 0.984727 0.475836 -0.334031
C360  C     C_R   0.014924 0.368220 0.524155 -0.334225
H1    H     H_    0.427150 0.668114 0.197148 0.130341
H2    H     H_    0.536118 0.631376 0.222224 0.135405
H3    H     H_    0.458172 0.264722 0.396292 0.233547
H4    H     H_    0.335659 0.289167 0.379043 0.272129
H5    H     H_    0.333893 0.300786 0.408932 0.272501
H6    H     H_    0.295522 0.219534 0.396651 0.269222
H7    H     H_    0.651310 0.081680 0.619303 0.169087
H8    H     H_    0.631914 0.160187 0.636856 0.143121
H9    H     H_    0.633098 0.160053 0.585427 0.218534
H10   H     H_    0.619229 0.238183 0.603226 0.236821
H11   H     H_    0.744741 0.221242 0.619252 0.273828
H12   H     H_    0.747122 0.232568 0.589361 0.275935
H13   H     H_    0.369169 0.535683 0.777395 0.135554
H14   H     H_    0.758571 0.142866 0.601288 0.263987
H15   H     H_    0.919126 0.347626 0.380466 0.169501
H16   H     H_    0.840688 0.367170 0.362897 0.143402
H17   H     H_    0.840253 0.364808 0.414315 0.218633
H18   H     H_    0.762297 0.378632 0.396445 0.236641
H19   H     H_    0.780180 0.253536 0.380188 0.274203
H20   H     H_    0.768353 0.250488 0.410056 0.276110
H21   H     H_    0.858319 0.239759 0.398254 0.263877
H22   H     H_    0.873328 0.622336 0.620930 0.172441
H23   H     H_    0.805348 0.575579 0.637737 0.141442
H24   H     H_    0.668179 0.427126 0.197128 0.129075
H25   H     H_    0.804915 0.583991 0.586418 0.220872
H26   H     H_    0.735432 0.544067 0.603827 0.233359
H27   H     H_    0.711753 0.666426 0.621274 0.272315
H28   H     H_    0.699999 0.668752 0.591394 0.272576
H29   H     H_    0.781522 0.706465 0.603696 0.269159
H30   H     H_    0.621137 0.872665 0.379257 0.172238
H31   H     H_    0.574316 0.804882 0.362394 0.141415
H32   H     H_    0.581865 0.804631 0.413731 0.220662
H33   H     H_    0.541825 0.735285 0.396293 0.233551
H34   H     H_    0.664330 0.710825 0.379043 0.272129
H35   H     H_    0.572410 0.667783 0.802623 0.129111
H36   H     H_    0.666107 0.699218 0.408933 0.272499
H37   H     H_    0.704478 0.780462 0.396648 0.269222
H38   H     H_    0.348689 0.918318 0.619303 0.169088
H39   H     H_    0.368087 0.839809 0.636855 0.143120
H40   H     H_    0.366897 0.839947 0.585426 0.218533
H41   H     H_    0.380767 0.761816 0.603224 0.236818
H42   H     H_    0.255257 0.778764 0.619252 0.273826
H43   H     H_    0.252873 0.767428 0.589361 0.275934
H44   H     H_    0.241426 0.857135 0.601285 0.263989
H45   H     H_    0.080879 0.652379 0.380462 0.169494
H46   H     H_    0.463881 0.368624 0.222226 0.135407
H47   H     H_    0.159329 0.632831 0.362899 0.143404
H48   H     H_    0.159729 0.635202 0.414316 0.218632
H49   H     H_    0.237698 0.621379 0.396453 0.236637
H50   H     H_    0.219823 0.746471 0.380194 0.274206
H51   H     H_    0.231626 0.749525 0.410063 0.276106
H52   H     H_    0.141670 0.760249 0.398252 0.263882
H53   H     H_    0.126659 0.377667 0.620904 0.172499
H54   H     H_    0.194601 0.424379 0.637738 0.141434
H55   H     H_    0.195162 0.416107 0.586416 0.220869
H56   H     H_    0.264606 0.455967 0.603854 0.233369
H57   H     H_    0.630831 0.464320 0.777393 0.135556
H58   H     H_    0.288215 0.333551 0.621273 0.272331
H59   H     H_    0.300049 0.331313 0.591395 0.272581
H60   H     H_    0.218486 0.293578 0.603666 0.269154
H61   H     H_    0.877641 0.626671 0.879080 0.172474
H62   H     H_    0.924378 0.694635 0.862261 0.141443
H63   H     H_    0.916037 0.695123 0.913582 0.220876
H64   H     H_    0.955920 0.764592 0.896159 0.233356
H65   H     H_    0.833526 0.788228 0.878728 0.272325
H66   H     H_    0.831250 0.800017 0.908608 0.272585
H67   H     H_    0.793530 0.718473 0.896320 0.269157
H68   H     H_    0.331817 0.572870 0.197129 0.129076
H69   H     H_    0.152358 0.580869 0.119533 0.169495
H70   H     H_    0.132820 0.659314 0.137099 0.143404
H71   H     H_    0.135174 0.659731 0.085682 0.218634
H72   H     H_    0.121357 0.737695 0.103549 0.236638
H73   H     H_    0.246455 0.719812 0.119804 0.274206
H74   H     H_    0.249499 0.731625 0.089936 0.276101
H75   H     H_    0.260225 0.641664 0.101742 0.263881
H76   H     H_    0.418478 0.848616 0.880899 0.169461
H77   H     H_    0.340513 0.867724 0.863092 0.142980
H78   H     H_    0.338950 0.866985 0.914519 0.218724
H79   H     H_    0.964318 0.130830 0.722607 0.135556
H80   H     H_    0.261399 0.880601 0.896464 0.236929
H81   H     H_    0.279187 0.754965 0.880572 0.273747
H82   H     H_    0.266602 0.752855 0.910418 0.276127
H83   H     H_    0.356818 0.741414 0.898852 0.263841
H84   H     H_    0.372595 0.121090 0.120749 0.172241
H85   H     H_    0.304834 0.074230 0.137610 0.141404
H86   H     H_    0.304579 0.081796 0.086273 0.220671
H87   H     H_    0.235250 0.041722 0.103710 0.233536
H88   H     H_    0.210745 0.164216 0.120964 0.272122
H89   H     H_    0.199125 0.165989 0.091075 0.272489
H90   H     H_    0.072874 0.831820 0.302871 0.129075
H91   H     H_    0.280358 0.204394 0.103357 0.269230
H92   H     H_    0.122272 0.373314 0.879088 0.172463
H93   H     H_    0.075530 0.305358 0.862267 0.141444
H94   H     H_    0.083852 0.304872 0.913588 0.220872
H95   H     H_    0.043956 0.235412 0.896164 0.233367
H96   H     H_    0.166345 0.211739 0.878737 0.272326
H97   H     H_    0.168616 0.199959 0.908618 0.272581
H98   H     H_    0.206357 0.281490 0.896328 0.269152
H99   H     H_    0.847598 0.419136 0.119535 0.169502
H100  H     H_    0.867138 0.340701 0.137105 0.143399
H101  H     H_    0.832216 0.927591 0.697377 0.129113
H102  H     H_    0.864769 0.340252 0.085687 0.218634
H103  H     H_    0.878587 0.262299 0.103558 0.236638
H104  H     H_    0.753495 0.280199 0.119816 0.274202
H105  H     H_    0.750442 0.268363 0.089947 0.276106
H106  H     H_    0.739723 0.358334 0.101748 0.263879
H107  H     H_    0.581608 0.151235 0.880728 0.169044
H108  H     H_    0.660110 0.131918 0.863165 0.143163
H109  H     H_    0.660007 0.133025 0.914594 0.218493
H110  H     H_    0.738134 0.119192 0.896791 0.236866
H111  H     H_    0.721166 0.244714 0.880779 0.273847
H112  H     H_    0.535682 0.369158 0.777398 0.135462
H113  H     H_    0.131376 0.036118 0.277774 0.135406
H114  H     H_    0.732490 0.247071 0.910671 0.275932
H115  H     H_    0.642786 0.258512 0.898744 0.263960
H116  H     H_    0.627385 0.878904 0.120762 0.172215
H117  H     H_    0.695178 0.925794 0.137604 0.141416
H118  H     H_    0.695330 0.918142 0.086268 0.220668
H119  H     H_    0.764692 0.958250 0.103686 0.233533
H120  H     H_    0.789255 0.835796 0.120952 0.272123
H121  H     H_    0.800787 0.833957 0.091061 0.272485
H122  H     H_    0.719592 0.795575 0.103372 0.269232
H123  H     H_    0.322486 0.132412 0.435784 0.134931
H124  H     H_    0.035681 0.869168 0.722606 0.135555
H125  H     H_    0.262681 0.111811 0.459128 0.124245
H126  H     H_    0.167390 0.068890 0.432631 0.246956
H127  H     H_    0.194291 0.162055 0.426989 0.216063
H128  H     H_    0.227369 0.088991 0.409426 0.271983
H129  H     H_    0.709704 0.058870 0.566863 0.140465
H130  H     H_    0.757160 0.026577 0.542124 0.122450
H131  H     H_    0.836696 0.948869 0.565779 0.246291
H132  H     H_    0.841233 0.043568 0.574124 0.202025
H133  H     H_    0.788648 0.979509 0.590468 0.274710
H134  H     H_    0.941141 0.290096 0.433197 0.140292
H135  H     H_    0.927131 0.168182 0.302871 0.129075
H136  H     H_    0.973691 0.242661 0.457908 0.122366
H137  H     H_    0.051419 0.163343 0.434188 0.246354
H138  H     H_    0.956668 0.158606 0.425909 0.202002
H139  H     H_    0.020482 0.211365 0.409528 0.274581
H140  H     H_    0.868038 0.678162 0.564056 0.134523
H141  H     H_    0.889292 0.738123 0.540806 0.124174
H142  H     H_    0.932346 0.832875 0.567446 0.246941
H143  H     H_    0.839006 0.806348 0.572984 0.215853
H144  H     H_    0.911760 0.772720 0.590570 0.271995
H145  H     H_    0.677512 0.867587 0.435788 0.134921
H146  H     H_    0.167779 0.072407 0.697377 0.129112
H147  H     H_    0.737327 0.888196 0.459130 0.124246
H148  H     H_    0.832605 0.931112 0.432629 0.246957
H149  H     H_    0.805705 0.837945 0.426990 0.216059
H150  H     H_    0.772616 0.911002 0.409426 0.271982
H151  H     H_    0.290296 0.941124 0.566861 0.140461
H152  H     H_    0.242839 0.973419 0.542122 0.122449
H153  H     H_    0.163305 0.051126 0.565778 0.246297
H154  H     H_    0.158767 0.956426 0.574121 0.202021
H155  H     H_    0.211354 0.020481 0.590467 0.274708
H156  H     H_    0.058868 0.709919 0.433204 0.140286
H157  H     H_    0.868624 0.963881 0.277776 0.135405
H158  H     H_    0.026299 0.757352 0.457913 0.122364
H159  H     H_    0.948576 0.836659 0.434187 0.246354
H160  H     H_    0.043332 0.841406 0.425915 0.202003
H161  H     H_    0.979533 0.788638 0.409530 0.274581
H162  H     H_    0.131934 0.321866 0.564090 0.134593
H163  H     H_    0.110775 0.261961 0.540817 0.124164
H164  H     H_    0.067675 0.167118 0.567421 0.246944
H165  H     H_    0.160990 0.193661 0.572990 0.215855
H166  H     H_    0.088178 0.227215 0.590566 0.271994
H167  H     H_    0.821798 0.631965 0.935923 0.134584
H168  H     H_    0.963882 0.868623 0.277776 0.135551
H169  H     H_    0.761894 0.610763 0.959192 0.124174
H170  H     H_    0.667067 0.567669 0.932580 0.246952
H171  H     H_    0.693583 0.660999 0.927024 0.215944
H172  H     H_    0.727162 0.588221 0.909439 0.271967
H173  H     H_    0.209884 0.558845 0.066798 0.140286
H174  H     H_    0.257317 0.526280 0.042089 0.122373
H175  H     H_    0.336619 0.448547 0.065813 0.246356
H176  H     H_    0.341371 0.543301 0.074088 0.202000
H177  H     H_    0.288599 0.479503 0.090471 0.274583
H178  H     H_    0.441234 0.790443 0.933013 0.140533
H179  H     H_    0.072417 0.167806 0.697369 0.130226
H180  H     H_    0.473089 0.742996 0.957808 0.122491
H181  H     H_    0.550957 0.663221 0.934276 0.246339
H182  H     H_    0.456359 0.658849 0.925815 0.202028
H183  H     H_    0.520744 0.711246 0.909533 0.274711
H184  H     H_    0.367459 0.177440 0.064198 0.134905
H185  H     H_    0.388065 0.237262 0.040858 0.124252
H186  H     H_    0.430944 0.332548 0.067364 0.246957
H187  H     H_    0.337778 0.305627 0.072995 0.216091
H188  H     H_    0.410829 0.272553 0.090564 0.271969
H189  H     H_    0.178080 0.368042 0.935929 0.134543
H190  H     H_    0.831887 0.072849 0.302852 0.130338
H191  H     H_    0.238038 0.389245 0.959185 0.124177
H192  H     H_    0.332817 0.432303 0.932554 0.246958
H193  H     H_    0.306261 0.338979 0.927004 0.215834
H194  H     H_    0.272664 0.411764 0.909425 0.272005
H195  H     H_    0.790063 0.441148 0.066803 0.140292
H196  H     H_    0.742626 0.473698 0.042092 0.122371
H197  H     H_    0.663311 0.551426 0.065813 0.246352
H198  H     H_    0.658575 0.456675 0.074092 0.202006
H199  H     H_    0.711336 0.520491 0.090473 0.274583
H200  H     H_    0.558709 0.209591 0.933106 0.140472
H201  H     H_    0.130843 0.964317 0.722600 0.135461
H202  H     H_    0.526480 0.257047 0.957852 0.122463
H203  H     H_    0.448723 0.336593 0.934218 0.246293
H204  H     H_    0.543399 0.341118 0.925849 0.202017
H205  H     H_    0.479287 0.288541 0.909520 0.274720
H206  H     H_    0.632486 0.822492 0.064197 0.134886
H207  H     H_    0.611837 0.762628 0.040870 0.124262
H208  H     H_    0.568982 0.667399 0.067397 0.246954
H209  H     H_    0.662160 0.694319 0.073013 0.216100
H210  H     H_    0.589135 0.727437 0.090585 0.271970
H211  H     H_    0.036118 0.131377 0.277774 0.135553
H212  H     H_    0.368623 0.463882 0.222226 0.135553
H213  H     H_    0.927577 0.832191 0.697369 0.130226
H214  H     H_    0.168117 0.927155 0.302852 0.130339
H215  H     H_    0.869156 0.035680 0.722602 0.135463
H216  H     H_    0.274499 0.916537 0.278731 0.112038
H217  H     H_    0.745619 0.063618 0.734482 0.129600
H218  H     H_    0.063793 0.254734 0.265705 0.129147
H219  H     H_    0.916805 0.725576 0.721378 0.112114
H220  H     H_    0.725502 0.083467 0.278732 0.112038
H221  H     H_    0.254382 0.936379 0.734481 0.129596
H222  H     H_    0.936208 0.745266 0.265706 0.129146
H223  H     H_    0.667809 0.572421 0.802631 0.130228
H224  H     H_    0.083192 0.274422 0.721378 0.112114
H225  H     H_    0.274385 0.083166 0.721392 0.111456
H226  H     H_    0.745265 0.936208 0.265706 0.129427
H227  H     H_    0.063612 0.745633 0.734491 0.129692
H228  H     H_    0.916480 0.274584 0.278762 0.111452
H229  H     H_    0.725613 0.916833 0.721392 0.111457
H230  H     H_    0.254735 0.063792 0.265705 0.129428
H231  H     H_    0.936386 0.254366 0.734491 0.129691
H232  H     H_    0.083524 0.725416 0.278763 0.111451
H233  H     H_    0.754366 0.436388 0.765508 0.129694
H234  H     H_    0.572844 0.331884 0.197148 0.130340
H235  H     H_    0.225415 0.583520 0.221238 0.111452
H236  H     H_    0.583169 0.774388 0.778608 0.111455
H237  H     H_    0.436207 0.245265 0.234295 0.129428
H238  H     H_    0.245633 0.563614 0.765510 0.129690
H239  H     H_    0.774584 0.416476 0.221237 0.111451
H240  H     H_    0.416835 0.225615 0.778608 0.111456
H241  H     H_    0.563792 0.754735 0.234294 0.129428
H242  H     H_    0.754734 0.563793 0.234294 0.129146
H243  H     H_    0.225579 0.416807 0.778622 0.112114
H244  H     H_    0.583463 0.225501 0.221268 0.112038
H245  H     H_    0.464319 0.630845 0.777400 0.135461
H246  H     H_    0.436381 0.754382 0.765518 0.129598
H247  H     H_    0.245266 0.436208 0.234295 0.129147
H248  H     H_    0.774423 0.583194 0.778621 0.112115
H249  H     H_    0.416533 0.774499 0.221268 0.112039
H250  H     H_    0.563620 0.245619 0.765518 0.129598
H251  H     H_    0.494849 0.117567 0.338045 0.186304
H252  H     H_    0.537922 0.111397 0.662070 0.184627
H253  H     H_    0.888987 0.461042 0.337911 0.184375
H254  H     H_    0.882500 0.506228 0.661962 0.186068
H255  H     H_    0.505150 0.882434 0.338045 0.186306
H256  H     H_    0.631376 0.536118 0.222224 0.135552
H257  H     H_    0.462078 0.888602 0.662069 0.184626
H258  H     H_    0.111016 0.538960 0.337911 0.184374
H259  H     H_    0.117497 0.493774 0.661962 0.186077
H260  H     H_    0.993770 0.617502 0.838037 0.186082
H261  H     H_    0.038956 0.611012 0.162088 0.184373
H262  H     H_    0.388610 0.962030 0.837925 0.184689
H263  H     H_    0.382428 0.005113 0.161956 0.186302
H264  H     H_    0.006192 0.382502 0.838038 0.186073
H265  H     H_    0.961027 0.388987 0.162089 0.184375
H266  H     H_    0.611394 0.037906 0.837936 0.184628
H267  H     H_    0.332195 0.427581 0.802631 0.130224
H268  H     H_    0.617564 0.994889 0.161953 0.186294
H269  H     H_    0.821294 0.549726 0.016484 0.156683
H270  H     H_    0.184579 0.483379 0.983701 0.155573
H271  H     H_    0.517196 0.815369 0.016325 0.155684
H272  H     H_    0.450069 0.178575 0.983501 0.156774
H273  H     H_    0.178630 0.450275 0.016482 0.156678
H274  H     H_    0.815342 0.516632 0.983702 0.155571
H275  H     H_    0.482717 0.184528 0.016310 0.155682
H276  H     H_    0.549792 0.821277 0.983512 0.156844
H277  H     H_    0.321333 0.049786 0.516491 0.156754
H278  H     H_    0.427595 0.332220 0.802623 0.129112
H279  H     H_    0.684588 0.982855 0.483683 0.155685
H280  H     H_    0.016617 0.315381 0.516298 0.155580
H281  H     H_    0.950290 0.678673 0.483517 0.156674
H282  H     H_    0.678665 0.950210 0.516492 0.156752
H283  H     H_    0.315411 0.017144 0.483682 0.155687
H284  H     H_    0.983392 0.684621 0.516299 0.155555
H285  H     H_    0.049715 0.321330 0.483517 0.156681
H286  H     H_    0.378862 0.127339 0.379256 0.172242
H287  H     H_    0.425685 0.195121 0.362393 0.141411
H288  H     H_    0.418140 0.195374 0.413731 0.220665
N1    N     N_R   0.499999 0.000002 0.406004 -0.320512
N2    N     N_R   0.500000 0.999998 0.594131 -0.320233
N3    N     N_R   0.000004 0.500002 0.405864 -0.320110
N4    N     N_R   0.999996 0.499999 0.593992 -0.320518
N5    N     N_R   0.999955 0.500007 0.906008 -0.320517
N6    N     N_R   0.999972 0.500000 0.094136 -0.320109
N7    N     N_R   0.499992 0.999910 0.905869 -0.320233
N8    N     N_R   0.499981 0.999986 0.093995 -0.320516
O1    O     O_3   0.500000 0.000000 0.250000 -0.480136
O2    O     O_R   0.439130 1.000000 0.799610 -0.641809
O3    O     O_3   0.521617 0.801568 0.058431 -0.562954
O4    O     O_R   0.000000 0.560870 0.200390 -0.641752
O5    O     O_R   0.000000 0.439130 0.799610 -0.644454
O6    O     O_R   0.939130 0.500000 0.700390 -0.644458
O7    O     O_R   0.060870 0.500000 0.299610 -0.641755
O8    O     O_R   0.500000 0.939130 0.700390 -0.641814
O9    O     O_R   0.500000 0.060870 0.299610 -0.644498
O10   O     O_R   0.060870 0.500000 0.700390 -0.644455
O11   O     O_R   0.939130 0.500000 0.299610 -0.641752
O12   O     O_R   0.500000 0.060870 0.700390 -0.641812
O13   O     O_3   0.500000 0.000000 0.750000 -0.481565
O14   O     O_R   0.500000 0.939130 0.299610 -0.644496
O15   O     O_R   0.646010 0.914780 0.237240 -0.639079
O16   O     O_R   0.353990 0.085220 0.762760 -0.635707
O17   O     O_R   0.085220 0.646010 0.237240 -0.637940
O18   O     O_R   0.914780 0.353990 0.762760 -0.637784
O19   O     O_R   0.353990 0.085220 0.237240 -0.639082
O20   O     O_R   0.646010 0.914780 0.762760 -0.635714
O21   O     O_R   0.914780 0.353990 0.237240 -0.637945
O22   O     O_R   0.085220 0.646010 0.762760 -0.637785
O23   O     O_R   0.646010 0.085220 0.762760 -0.639188
O24   O     O_3   1.000000 0.500000 0.250000 -0.481741
O25   O     O_R   0.353990 0.914780 0.237240 -0.636508
O26   O     O_R   0.085220 0.353990 0.762760 -0.637947
O27   O     O_R   0.914780 0.646010 0.237240 -0.636886
O28   O     O_R   0.353990 0.914780 0.762760 -0.639181
O29   O     O_R   0.646010 0.085220 0.237240 -0.636505
O30   O     O_R   0.914780 0.646010 0.762760 -0.637948
O31   O     O_R   0.085220 0.353990 0.237240 -0.636886
O32   O     O_R   0.146010 0.414780 0.737240 -0.637950
O33   O     O_R   0.853990 0.585220 0.262760 -0.636886
O34   O     O_R   0.585220 0.146010 0.737240 -0.639188
O35   O     O_3   0.000000 0.500000 0.750000 -0.480147
O36   O     O_R   0.414780 0.853990 0.262760 -0.636501
O37   O     O_R   0.853990 0.585220 0.737240 -0.637952
O38   O     O_R   0.146010 0.414780 0.262760 -0.636888
O39   O     O_R   0.414780 0.853990 0.737240 -0.639193
O40   O     O_R   0.585220 0.146010 0.262760 -0.636505
O41   O     O_R   0.146010 0.585220 0.262760 -0.637945
O42   O     O_R   0.853990 0.414780 0.737240 -0.637790
O43   O     O_R   0.585220 0.853990 0.262760 -0.639080
O44   O     O_R   0.414780 0.146010 0.737240 -0.635714
O45   O     O_R   0.853990 0.414780 0.262760 -0.637940
O46   O     O_R   0.439130 0.000000 0.200390 -0.644504
O47   O     O_R   0.146010 0.585220 0.737240 -0.637785
O48   O     O_R   0.414780 0.146010 0.262760 -0.639080
O49   O     O_R   0.585220 0.853990 0.737240 -0.635714
O50   O     O_2   0.372564 0.008362 0.405319 -0.534192
O51   O     O_2   0.621785 0.961503 0.594836 -0.533932
O52   O     O_2   0.038445 0.378198 0.405162 -0.534367
O53   O     O_2   0.991963 0.627457 0.594675 -0.534267
O54   O     O_2   0.627435 0.991641 0.405320 -0.534191
O55   O     O_2   0.378215 0.038493 0.594835 -0.533929
O56   O     O_2   0.961566 0.621808 0.405162 -0.534363
O57   O     O_R   0.560870 1.000000 0.799610 -0.641801
O58   O     O_2   0.008016 0.372539 0.594673 -0.534301
O59   O     O_2   0.872497 0.508046 0.905326 -0.534278
O60   O     O_2   0.121773 0.461550 0.094837 -0.534364
O61   O     O_2   0.538731 0.878202 0.905172 -0.534056
O62   O     O_2   0.491546 0.127417 0.094675 -0.534187
O63   O     O_2   0.127414 0.491971 0.905326 -0.534290
O64   O     O_2   0.878170 0.538451 0.094839 -0.534369
O65   O     O_2   0.461338 0.121646 0.905159 -0.533875
O66   O     O_2   0.508421 0.872556 0.094686 -0.534179
O67   O     O_3   0.493172 0.131085 0.382184 -0.630679
O68   O     O_R   0.000000 0.439130 0.200390 -0.641754
O69   O     O_3   0.544391 0.123514 0.617990 -0.626594
O70   O     O_3   0.876943 0.454339 0.382008 -0.627048
O71   O     O_3   0.868980 0.508112 0.617812 -0.631027
O72   O     O_3   0.506827 0.868918 0.382183 -0.630680
O73   O     O_3   0.455608 0.876484 0.617989 -0.626595
O74   O     O_3   0.123063 0.545666 0.382008 -0.627049
O75   O     O_3   0.131016 0.491895 0.617813 -0.631025
O76   O     O_3   0.991867 0.631023 0.882186 -0.631025
O77   O     O_3   0.045646 0.623058 0.117991 -0.627048
O78   O     O_3   0.376492 0.955464 0.881999 -0.626482
O79   O     O_R   0.000000 0.560870 0.799610 -0.644457
O80   O     O_3   0.368901 0.006779 0.117818 -0.630692
O81   O     O_3   0.008044 0.368985 0.882189 -0.631023
O82   O     O_3   0.954307 0.376943 0.117993 -0.627046
O83   O     O_3   0.623503 0.044337 0.882017 -0.626539
O84   O     O_3   0.631072 0.993213 0.117814 -0.630695
O85   O     O_3   0.301588 0.021555 0.441577 -0.562962
O86   O     O_3   0.693089 0.949200 0.558503 -0.566383
O87   O     O_3   0.050831 0.306919 0.441495 -0.566433
O88   O     O_3   0.979095 0.698483 0.558418 -0.562987
O89   O     O_3   0.698411 0.978446 0.441578 -0.562960
O90   O     O_R   0.560870 0.000000 0.200390 -0.644497
O91   O     O_3   0.306911 0.050794 0.558502 -0.566376
O92   O     O_3   0.949175 0.693085 0.441496 -0.566432
O93   O     O_3   0.020904 0.301517 0.558415 -0.562988
O94   O     O_3   0.801475 0.520923 0.941584 -0.562981
O95   O     O_3   0.193046 0.449155 0.058503 -0.566438
O96   O     O_3   0.550825 0.806848 0.941507 -0.566422
O97   O     O_3   0.478316 0.198369 0.058415 -0.562955
O98   O     O_3   0.198438 0.479085 0.941583 -0.562984
O99   O     O_3   0.806887 0.550838 0.058506 -0.566443
O100  O     O_3   0.449059 0.192981 0.941490 -0.566377
Zn1   Zn    Zn3+2 0.500000 0.913460 0.269040 0.961426
Zn2   Zn    Zn3+2 1.000000 0.586540 0.230960 0.962636
Zn3   Zn    Zn3+2 0.586540 1.000000 0.769040 0.962350
Zn4   Zn    Zn3+2 0.413460 1.000000 0.230960 0.961422
Zn5   Zn    Zn3+2 1.000000 0.586540 0.769040 0.961516
Zn6   Zn    Zn3+2 0.000000 0.413460 0.230960 0.962636
Zn7   Zn    Zn3+2 0.413460 1.000000 0.769040 0.962356
Zn8   Zn    Zn3+2 0.586540 1.000000 0.230960 0.961422
Zn9   Zn    Zn3+2 0.500000 0.086540 0.730960 0.962341
Zn10  Zn    Zn3+2 0.086540 0.500000 0.269040 0.962636
Zn11  Zn    Zn3+2 0.913460 0.500000 0.730960 0.961510
Zn12  Zn    Zn3+2 0.500000 0.086540 0.269040 0.961426
Zn13  Zn    Zn3+2 0.500000 0.913460 0.730960 0.962340
Zn14  Zn    Zn3+2 0.913460 0.500000 0.269040 0.962636
Zn15  Zn    Zn3+2 0.086540 0.500000 0.730960 0.961513
Zn16  Zn    Zn3+2 1.000000 0.413460 0.769040 0.961515

loop_
_geom_bond_atom_site_label_1
_geom_bond_atom_site_label_2
_ccdc_geom_bond_type
C17   O34   A    
C77   H90   S    
C42   H232  S    
C249  H105  S    
C51   C123  A    
C209  H15   S    
C295  C319  S    
C120  C144  A    
C340  C348  A    
C238  H80   S    
C47   C128  A    
O34   Zn9   S    
C55   C119  A    
C248  C249  S    
C176  O81   S    
C302  C358  A    
C193  H254  S    
C233  O77   S    
C67   H168  S    
C29   C109  A    
C218  H34   S    
C297  O85   S    
C219  H39   S    
C55   H246  S    
C40   C98   A    
C37   C102  A    
C154  O54   S    
C172  C350  A    
C156  C235  A    
C44   C130  A    
C167  C185  A    
C247  H99   S    
C244  C245  S    
C255  H121  S    
C274  C275  S    
C39   C74   A    
C24   C171  A    
O24   Zn14  S    
C197  C322  A    
C154  C212  A    
C33   H224  S    
C222  H47   S    
C327  C341  A    
C52   C122  A    
C288  H204  S    
C236  H75   S    
C272  C273  S    
O48   Zn12  S    
C170  C187  A    
C269  H155  S    
C267  H151  S    
C323  C329  A    
O14   Zn1   S    
C281  O97   S    
C199  C320  A    
C289  O3    S    
C125  C140  A    
C63   H211  S    
C325  C343  A    
C36   C71   A    
C33   C69   A    
C315  C328  S    
C30   C108  A    
C307  C354  A    
C64   H213  S    
C300  O88   S    
C29   C64   A    
C264  H142  S    
C19   C141  S    
C161  N7    A    
C150  N1    A    
C96   C114  A    
O19   Zn4   S    
C245  H96   S    
C234  C236  S    
C167  O72   S    
C284  H194  S    
C104  C105  A    
C253  H117  S    
C106  C142  A    
C153  C201  A    
C233  H70   S    
C227  H53   S    
C309  C356  A    
C79   C212  A    
C327  C354  A    
C109  C145  A    
C333  C346  A    
C152  O52   S    
C251  C252  S    
C66   C72   A    
C38   C100  A    
C17   O23   A    
O41   Zn10  S    
C23   O30   A    
O11   Zn14  S    
C206  C207  S    
C32   H222  S    
C9    O16   A    
C124  C292  A    
C248  H103  S    
C115  C148  A    
C173  C191  A    
C229  H60   S    
C104  C140  A    
C281  H185  S    
C316  C317  S    
C74   H101  S    
C289  H207  S    
C354  H273  S    
C26   C114  A    
C18   O36   A    
C206  H7    S    
C16   O47   A    
C317  O7    A    
C25   O31   A    
C286  H197  S    
C239  H83   S    
C227  C228  S    
C150  C168  A    
C304  O93   S    
C195  H265  S    
C187  C316  A    
C197  H268  S    
C198  H260  S    
C216  C217  S    
O38   Zn10  S    
C213  H22   S    
C156  N3    A    
C224  C302  A    
C35   N5    S    
O45   Zn14  S    
C188  C318  A    
C301  O89   S    
C124  C257  A    
C152  N3    A    
C278  H178  S    
C43   H233  S    
C260  H131  S    
C299  O87   S    
C262  H139  S    
C250  O83   S    
O90   Zn8   S    
C108  C144  A    
C153  N4    A    
C26   H216  S    
C25   O38   A    
C238  H78   S    
C333  C336  A    
C329  C355  A    
C68   C184  A    
C177  C195  A    
C266  H150  S    
C31   C107  A    
C65   H190  S    
C26   C61   A    
C16   C138  S    
C182  C199  A    
C232  H65   S    
C328  O8    A    
C252  H111  S    
C159  N5    A    
C330  C356  A    
C261  O87   S    
O32   Zn15  S    
C35   C181  A    
C83   C91   A    
O2    Zn7   S    
C43   C131  A    
C217  C218  S    
C124  C342  A    
C111  C148  A    
C285  H195  S    
C48   C127  A    
C205  H5    S    
C243  H93   S    
C57   C178  A    
C324  C327  A    
C241  H87   S    
C259  O86   S    
C236  H74   S    
C180  O84   S    
C198  C319  A    
C325  C331  A    
C204  H3    S    
C278  O96   S    
C263  O88   S    
C207  H9    S    
C14   O20   A    
C61   H214  S    
C329  C342  A    
C271  H159  S    
C100  C137  A    
C2    C169  A    
C60   C95   A    
C242  H88   S    
C264  H144  S    
C290  C309  A    
C22   C144  S    
C278  H180  S    
C165  N7    A    
C240  H85   S    
C175  C193  A    
C205  H4    S    
C223  O4    A    
C222  H45   S    
C304  C360  A    
O24   Zn2   S    
C234  H71   S    
O57   Zn3   S    
C11   O42   A    
C324  C342  A    
C49   H239  S    
C28   H218  S    
C97   C133  A    
C311  C349  A    
C325  C352  A    
C326  C344  A    
C254  H118  S    
C1    C322  S    
C146  C294  A    
C252  H115  S    
C231  H64   S    
C46   N6    S    
C217  H32   S    
C24   N4    S    
C201  C300  A    
C54   H244  S    
C49   C126  A    
C101  C348  A    
C192  C316  A    
C355  H274  S    
C245  H97   S    
C13   N3    S    
C157  C296  A    
C118  C147  A    
C276  H174  S    
O15   Zn8   S    
C23   O37   A    
C273  H164  S    
C60   H250  S    
C313  O3    S    
C259  H130  S    
C253  C254  S    
O35   Zn5   S    
C9    C140  S    
C239  H81   S    
C275  H170  S    
C164  C293  A    
C92   H212  S    
C123  C139  A    
C288  H205  S    
C10   O41   A    
C241  C242  S    
C280  H181  S    
C244  H95   S    
C269  H153  S    
C19   O32   A    
C58   H248  S    
O37   Zn11  S    
C39   C99   A    
C210  H18   S    
O13   Zn13  S    
C247  O82   S    
C61   C77   A    
C305  O94   S    
O39   Zn13  S    
C256  C258  S    
C99   C136  A    
C22   O40   A    
C260  H133  S    
C262  H137  S    
C68   N8    S    
C196  C321  A    
C229  H58   S    
C117  C129  A    
C233  C234  S    
C228  H56   S    
C266  H148  S    
C163  C292  A    
C356  H275  S    
C1    O46   A    
C204  H288  S    
C203  H286  S    
C27   C111  A    
C159  C257  A    
C12   C134  S    
C237  C238  S    
C46   C177  A    
C69   C70   A    
C339  O14   A    
C112  O57   A    
C232  H67   S    
C223  O68   A    
O13   Zn7   S    
C220  C221  S    
C230  H61   S    
C251  H109  S    
C8    O43   A    
C184  O80   S    
C250  H108  S    
C100  C108  A    
C261  H134  S    
C282  H187  S    
C17   C148  S    
C6    H284  S    
C72   H124  S    
C277  H176  S    
C350  N1    S    
C164  N6    A    
C226  H51   S    
C4    H282  S    
C222  C225  S    
C28   C110  A    
C220  H41   S    
C178  C196  A    
C58   C117  A    
C338  C347  A    
C216  H31   S    
C174  O70   S    
C175  O71   S    
C78   H57   S    
C215  H28   S    
C173  O69   S    
C28   C63   A    
C214  H25   S    
C121  C125  A    
C62   H215  S    
C27   H217  S    
C27   C62   A    
C128  C134  A    
C211  H20   S    
C91   H245  S    
C253  O84   S    
C160  N6    A    
C228  H55   S    
C162  C290  A    
C248  H102  S    
C209  C210  S    
C116  C130  A    
C102  C107  A    
C50   C125  A    
C162  N8    A    
C36   H226  S    
C258  H127  S    
C256  H123  S    
C339  O9    A    
C337  C346  A    
C206  O69   S    
C127  C138  A    
C225  H48   S    
C309  O97   S    
C221  H43   S    
C113  C201  A    
C32   C67   A    
C135  C268  A    
C306  C318  S    
C208  H14   S    
C155  N2    A    
C158  N4    A    
O68   Zn6   S    
C212  C301  A    
C268  C307  A    
C18   O25   A    
C295  O5    A    
C182  O77   S    
O1    Zn4   S    
C3    H281  S    
C157  C290  A    
C14   O49   A    
C146  C344  A    
C283  H191  S    
C273  H166  S    
C332  C337  A    
C219  O73   S    
O35   Zn16  S    
C326  C353  A    
C160  C268  A    
C20   O33   A    
C334  C347  A    
C359  H279  S    
C191  C315  A    
C183  C200  A    
C208  H11   S    
C46   C182  A    
C281  H184  S    
C7    C340  A    
C135  C293  A    
O17   Zn2   S    
O43   Zn1   S    
C166  O66   S    
C241  H86   S    
C165  O65   S    
C63   C75   A    
C220  H40   S    
C163  O63   S    
C240  C241  S    
C93   H223  S    
C112  O2    A    
C41   C97   A    
C351  H270  S    
C10   C132  S    
C357  H276  S    
O10   Zn15  S    
O18   Zn16  S    
C87   H256  S    
C334  C340  A    
C331  C344  A    
C5    H283  S    
C204  C205  S    
C42   C77   A    
C215  H27   S    
C283  C284  S    
C90   C345  A    
O26   Zn16  S    
C15   C137  S    
C8    O15   A    
C257  C305  A    
C30   H220  S    
C146  C279  A    
C174  C192  A    
C119  C127  A    
C56   H247  S    
C15   O21   A    
C126  C137  A    
C45   C129  A    
C261  C262  S    
C98   C110  A    
C261  H136  S    
C31   C66   A    
C306  O6    A    
O1    Zn8   S    
C209  H16   S    
C44   H235  S    
C62   C76   A    
C45   C81   A    
C263  C264  S    
C233  H69   S    
C213  C214  S    
C43   C78   A    
C166  C296  A    
C190  C299  A    
C185  C314  A    
C82   H46   S    
C4    C298  A    
C171  C188  A    
C36   C103  A    
C42   C96   A    
C39   H229  S    
C265  H147  S    
C58   C93   A    
C306  O10   A    
C272  O93   S    
C225  H49   S    
C2    C173  A    
C192  H253  S    
C97   C111  A    
C200  H262  S    
C85   C88   A    
C243  C244  S    
C99   C109  A    
C110  C147  A    
C229  H59   S    
C82   C92   A    
C117  C145  A    
C55   C91   A    
C116  C149  A    
C289  H206  S    
O20   Zn3   S    
C277  H177  S    
C274  H167  S    
C206  H8    S    
C6    C338  A    
C50   C85   A    
C291  H208  S    
C90   C179  A    
C52   H242  S    
C286  H198  S    
C275  H171  S    
C38   H228  S    
C16   O22   A    
C59   C116  A    
C326  C330  A    
C243  O81   S    
C191  H252  S    
C59   C94   A    
O47   Zn15  S    
C330  C343  A    
C276  O95   S    
C34   C70   A    
C152  C190  A    
C249  H104  S    
C50   H240  S    
O36   Zn1   S    
C9    O44   A    
C353  H272  S    
O79   Zn5   S    
C15   O45   A    
C246  C304  A    
O29   Zn8   S    
C249  H106  S    
C260  H132  S    
O16   Zn7   S    
C203  O67   S    
C85   H278  S    
C156  O56   S    
C235  C303  A    
C312  C353  A    
C283  H189  S    
C188  H259  S    
C51   C86   A    
C189  C314  A    
C280  H182  S    
C52   C87   A    
C119  C143  A    
C203  H287  S    
C308  C357  A    
C323  C341  A    
C324  C351  A    
C57   N7    S    
C207  C208  S    
C121  C141  A    
C44   C80   A    
C33   C105  A    
C193  C318  A    
C232  H66   S    
C101  C190  A    
C164  O64   S    
C219  C220  S    
C308  O96   S    
C195  C320  A    
O31   Zn6   S    
C250  C251  S    
C247  H100  S    
C84   H24   S    
C130  C132  A    
O5    Zn16  S    
C90   C224  A    
C285  C286  S    
C216  O72   S    
C305  C355  A    
C352  H271  S    
C159  O59   S    
C287  C288  S    
C222  O74   S    
C78   C95   A    
C247  C248  S    
C186  H257  S    
O24   Zn10  S    
O4    Zn2   S    
C267  H152  S    
C216  H30   S    
O49   Zn13  S    
C135  C341  A    
C240  O80   S    
C178  O83   S    
C256  H125  S    
C311  O99   S    
C211  H21   S    
O7    Zn10  S    
C310  O98   S    
C73   H135  S    
C81   H35   S    
C161  C279  A    
C103  C139  A    
C59   H249  S    
C333  C359  A    
C45   H236  S    
C75   H113  S    
C80   C94   A    
C76   H79   S    
C47   H237  S    
C284  H193  S    
C200  C321  A    
C22   O29   A    
C155  O55   S    
C13   C174  A    
C49   C84   A    
C265  H145  S    
C227  H54   S    
C21   O39   A    
C98   C134  A    
C238  C239  S    
O44   Zn9   S    
C79   C346  A    
C194  H264  S    
C186  C315  A    
C86   C87   A    
C56   C118  A    
O13   Zn3   S    
C196  H266  S    
C271  H161  S    
C41   H231  S    
C335  C338  A    
C48   C83   A    
C167  C350  A    
C231  H63   S    
C172  C189  A    
C53   H243  S    
C263  H141  S    
O46   Zn4   S    
C40   C75   A    
O1    Zn1   S    
C88   H267  S    
C11   C133  S    
C53   C121  A    
C259  H129  S    
C95   H112  S    
C267  C269  S    
C169  C186  A    
C295  O79   A    
C279  C308  A    
C86   H2    S    
C14   C136  S    
C163  N5    A    
O23   Zn3   S    
C317  O11   A    
C5    C297  A    
C41   C76   A    
C67   C71   A    
C267  O91   S    
C230  C231  S    
C153  O53   S    
C213  H23   S    
C272  H163  S    
C157  C343  A    
C265  O89   S    
C293  C311  A    
C274  O94   S    
C287  O100  S    
C31   H221  S    
C294  C312  A    
C223  C320  S    
C37   C72   A    
C331  C357  A    
C64   C74   A    
C270  C271  S    
C262  H138  S    
C114  C149  A    
C176  C194  A    
C24   C175  A    
C166  N8    A    
C171  O75   S    
C170  O74   S    
C215  H29   S    
C255  H122  S    
C169  O73   S    
C203  C204  S    
C288  H203  S    
C240  H84   S    
C278  C280  S    
C54   C120  A    
C266  H149  S    
C360  H280  S    
C19   O26   A    
C219  H38   S    
C194  C319  A    
C285  O99   S    
C230  H62   S    
C115  C131  A    
C23   C145  S    
C254  C255  S    
C8    C139  S    
C291  H210  S    
C35   C176  A    
C298  O86   S    
C282  H188  S    
C7    H285  S    
C287  H200  S    
C277  H175  S    
C285  H196  S    
C105  C141  A    
C205  H6    S    
C226  H52   S    
C112  C321  S    
C47   C82   A    
C187  H258  S    
C310  C351  A    
C242  H91   S    
C80   H68   S    
C287  H202  S    
C113  C246  A    
C283  O98   S    
C202  H263  S    
C65   C73   A    
C3    C335  A    
C102  C138  A    
C207  H10   S    
C151  O51   S    
C336  C345  A    
C25   C147  S    
C254  H119  S    
C214  H26   S    
C271  H160  S    
C270  H158  S    
C211  H19   S    
C177  O82   S    
C29   H219  S    
C252  H114  S    
C151  C179  A    
O8    Zn13  S    
C113  C347  A    
C150  O50   S    
C237  O78   S    
C275  H172  S    
C264  H143  S    
C227  O75   S    
C313  C352  A    
C263  H140  S    
C101  C235  A    
O1    Zn12  S    
C180  C197  A    
C230  O76   S    
C79   C168  A    
C103  C106  A    
C18   C149  S    
C301  C359  A    
C265  C266  S    
C151  N2    A    
C258  H128  S    
C332  C345  A    
C291  H209  S    
C154  N1    A    
O35   Zn11  S    
C302  O91   S    
C358  H277  S    
C37   H227  S    
C280  H183  S    
C221  H42   S    
O25   Zn4   S    
C32   C106  A    
C162  O62   S    
C161  O61   S    
C155  C224  A    
C69   H179  S    
C118  C128  A    
C255  H120  S    
C181  C198  A    
C3    C303  A    
C6    C300  A    
C217  H33   S    
C213  O71   S    
C332  C358  A    
C12   O48   A    
O22   Zn5   S    
C184  C202  A    
O27   Zn2   S    
C334  C360  A    
C245  H98   S    
C2    N2    S    
C20   C142  S    
C303  O92   S    
C276  H173  S    
C21   C143  S    
C54   C89   A    
C273  H165  S    
C237  H77   S    
C185  H255  S    
O35   Zn15  S    
C214  C215  S    
C239  H82   S    
C307  O95   S    
C281  C282  S    
C68   C180  A    
C11   O18   A    
C34   C104  A    
C208  H12   S    
C71   H157  S    
C218  H36   S    
C269  H154  S    
C202  C322  A    
C94   H1    S    
C89   H234  S    
C328  O12   A    
O13   Zn9   S    
C129  C136  A    
C81   C93   A    
C210  H17   S    
C1    O90   A    
C181  O76   S    
C270  O92   S    
C225  C226  S    
C335  C348  A    
C172  O67   S    
C276  C277  S    
C237  H76   S    
C256  O85   S    
C120  C126  A    
C13   C170  A    
C189  H251  S    
O9    Zn12  S    
C236  H73   S    
C4    C336  A    
C10   O17   A    
C30   C65   A    
C66   H201  S    
C40   H230  S    
C218  H37   S    
C84   C89   A    
C122  C142  A    
O21   Zn6   S    
C259  C260  S    
C253  H116  S    
C199  H261  S    
C5    C337  A    
C57   C183  A    
C244  H94   S    
O12   Zn9   S    
O33   Zn14  S    
C251  H110  S    
C250  H107  S    
C296  C313  A    
C282  H186  S    
C179  C298  A    
C131  C133  A    
C160  O60   S    
C243  H92   S    
C226  H50   S    
O30   Zn5   S    
C165  C294  A    
C242  H89   S    
C7    C299  A    
C21   O28   A    
O24   Zn6   S    
C70   H146  S    
O28   Zn7   S    
C209  O70   S    
C96   C132  A    
C274  H169  S    
C312  O100  S    
O42   Zn11  S    
C270  H156  S    
C314  C339  S    
C51   H241  S    
C12   O19   A    
C83   H13   S    
O6    Zn11  S    
C349  H269  S    
C183  O78   S    
C158  O58   S    
C168  C297  A    
C289  C291  S    
C53   C88   A    
C48   H238  S    
O40   Zn12  S    
C292  C310  A    
C258  H126  S    
C34   H225  S    
C228  C229  S    
C286  H199  S    
C56   C92   A    
C20   O27   A    
C221  H44   S    
C210  C211  S    
C231  C232  S    
C323  C349  A    
C284  H192  S    
C60   C115  A    
C158  C246  A    
C122  C123  A    
C107  C143  A    
C272  H162  S    
C234  H72   S    
C38   C73   A    
