data_mof_unit_22050.cif
_audit_creation_date              2012-10-26T19:57:23-0400
_audit_creation_method            fapswitch 2.2
_symmetry_space_group_name_H-M    P1
_symmetry_Int_Tables_number       1
_space_group_crystal_system       triclinic
_cell_length_a                    12.993368
_cell_length_b                    10.920792
_cell_length_c                    9.713398
_cell_angle_alpha                 89.007364
_cell_angle_beta                  96.168748
_cell_angle_gamma                 90.467308
_cell_volume                      1370.09656959

loop_
_atom_site_label
_atom_site_type_symbol
_atom_type_description
_atom_site_fract_x
_atom_site_fract_y
_atom_site_fract_z
_atom_type_partial_charge
C1    C     C_R   0.506362 0.266044 0.502165 0.529777
C2    C     C_2   0.527896 0.135413 0.509449 0.286783
C3    C     C_2   0.444434 0.423443 0.914847 0.388460
C4    C     C_R   0.300437 0.497124 0.473828 0.559133
C5    C     C_2   0.433575 0.439415 0.067653 0.071622
C6    C     C_R   0.494903 0.734525 0.497912 0.546956
C7    C     C_R   0.699326 0.499628 0.526005 0.531414
C8    C     C_R   0.812003 0.499427 0.541333 -0.000188
C9    C     C_R   0.187167 0.490210 0.457949 0.030854
C10   C     C_R   0.022593 0.450207 0.322428 -0.131834
C11   C     C_R   0.130410 0.455681 0.331871 0.095833
C12   C     C_R   0.027666 0.508238 0.564017 0.037802
C13   C     C_R   0.134919 0.515787 0.573061 -0.177548
C14   C     C_3   0.686987 0.153703 0.422212 0.014058
C15   C     C_3   0.772401 0.073238 0.376723 -0.261512
C16   C     C_3   0.871851 0.146455 0.365576 -0.485263
C17   C     C_3   0.290156 0.326313 0.840746 0.004520
C18   C     C_3   0.249966 0.213240 0.913634 -0.278306
C19   C     C_3   0.131799 0.208461 0.896203 -0.486422
C20   C     C_R   0.971185 0.476849 0.437171 0.026119
C21   C     C_R   0.863821 0.473025 0.426554 -0.140218
C22   C     C_R   0.868289 0.527464 0.668503 -0.134789
C23   C     C_R   0.975877 0.532256 0.679688 -0.137963
C24   C     C_2   0.491228 0.933156 0.604742 -0.084390
C25   C     C_2   0.477365 0.865990 0.489788 0.120658
C26   C     C_2   0.479934 0.066081 0.598793 -0.092832
Cu1   Cu    Cu3+1 0.500020 0.500020 0.638640 0.967905
Cu2   Cu    Cu3+1 0.499980 0.499980 0.361360 0.940862
H1    H     H_    0.820703 0.449713 0.328556 0.106746
H2    H     H_    0.714547 0.191457 0.525890 0.115555
H3    H     H_    0.672520 0.230115 0.345612 0.163159
H4    H     H_    0.788523 0.996975 0.453103 0.172664
H5    H     H_    0.746096 0.033297 0.274317 0.175209
H6    H     H_    0.858325 0.220122 0.285570 0.141060
H7    H     H_    0.932872 0.084915 0.335276 0.149218
H8    H     H_    0.899552 0.187802 0.466674 0.157603
H9    H     H_    0.259041 0.323243 0.729843 0.170368
H10   H     H_    0.258800 0.411013 0.883455 0.089155
H11   H     H_    0.280096 0.129305 0.869152 0.172413
H12   H     H_    0.518883 0.581200 0.891838 0.209874
H13   H     H_    0.277967 0.214720 0.025701 0.164194
H14   H     H_    0.099565 0.292111 0.938361 0.141003
H15   H     H_    0.104736 0.127230 0.952830 0.148694
H16   H     H_    0.102413 0.201186 0.784910 0.152995
H17   H     H_    0.624979 0.600243 0.155370 0.255852
H18   H     H_    0.644147 0.447684 0.150226 0.248846
H19   H     H_    0.153918 0.479768 0.130738 0.214409
H20   H     H_    0.160873 0.332864 0.189057 0.219067
H21   H     H_    0.490562 0.903223 0.287085 0.263690
H22   H     H_    0.368275 0.877365 0.324879 0.213580
H23   H     H_    0.368342 0.395676 0.109312 0.130396
H24   H     H_    0.829232 0.547811 0.758389 0.132335
H25   H     H_    0.979288 0.424368 0.225440 0.095811
H26   H     H_    0.018392 0.555473 0.778047 0.097899
H27   H     H_    0.177632 0.542258 0.670176 0.112144
H28   H     H_    0.510094 0.890387 0.706001 0.106246
H29   H     H_    0.432786 0.107355 0.671236 0.116358
N1    N     N_2   0.498860 0.498660 0.846770 -0.306826
N2    N     N_2   0.498840 0.498630 0.152900 -0.195861
N3    N     N_3   0.596323 0.519104 0.109994 -0.569981
N4    N     N_3   0.181445 0.423101 0.214297 -0.625320
N5    N     N_3   0.438238 0.920692 0.358873 -0.582716
O1    O     O_R   0.500020 0.321960 0.617050 -0.470920
O2    O     O_3   0.399525 0.322373 0.847373 -0.542390
O3    O     O_R   0.499980 0.321920 0.382890 -0.496916
O4    O     O_R   0.349010 0.500000 0.598060 -0.512134
O5    O     O_R   0.348980 0.499950 0.363910 -0.463058
O6    O     O_R   0.500020 0.678080 0.617110 -0.524618
O7    O     O_R   0.499980 0.678040 0.382950 -0.497766
O8    O     O_R   0.651020 0.500050 0.636090 -0.497494
O9    O     O_R   0.650990 0.500000 0.401940 -0.528628
O10   O     O_3   0.595976 0.082262 0.426407 -0.563400

loop_
_geom_bond_atom_site_label_1
_geom_bond_atom_site_label_2
_ccdc_geom_bond_type
H19   N4    S    
C4    O5    A    
C8    C22   A    
C18   H11   S    
H17   N3    S    
Cu2   O5    S    
Cu1   O6    S    
C14   O10   S    
C24   H28   S    
C6    O7    A    
C1    O3    A    
Cu2   O7    S    
C19   H14   S    
C14   H3    S    
C17   H10   S    
H18   N3    S    
C12   C20   A    
C7    O8    A    
C6    O6    A    
C8    C21   A    
C3    C5    S    
C15   H4    S    
C2    C26   D    
Cu1   O4    S    
C17   H9    S    
C3    O2    S    
C24   C25   D    
C4    O4    A    
C12   C13   A    
C9    C11   A    
C12   C23   A    
H20   N4    S    
C16   H8    S    
Cu1   O8    S    
Cu1   O1    S    
C14   H2    S    
C2    O10   S    
C1    O1    A    
C22   H24   S    
C19   H15   S    
Cu2   O3    S    
C25   N5    S    
C16   H7    S    
C7    O9    A    
H22   N5    S    
C26   H29   S    
C13   H27   S    
C18   H13   S    
Cu2   O9    S    
H12   N1    S    
C10   C11   A    
C5    N2    D    
C15   C16   S    
C6    C25   S    
C3    N1    D    
C19   H16   S    
N2    N3    S    
C17   O2    S    
C20   C21   A    
C23   H26   S    
C17   C18   S    
C1    C2    S    
Cu2   N2    S    
C10   C20   A    
Cu1   Cu2   S    
C10   H25   S    
C7    C8    S    
C9    C13   A    
C14   C15   S    
C18   C19   S    
H21   N5    S    
C16   H6    S    
C4    C9    S    
C22   C23   A    
C21   H1    S    
C15   H5    S    
C5    H23   S    
C24   C26   S    
C11   N4    S    
Cu1   N1    S    
