data_mof_unit_30022.cif
_audit_creation_date              2012-12-10T17:03:54-0500
_audit_creation_method            fapswitch 2.2
_symmetry_space_group_name_H-M    P1
_symmetry_Int_Tables_number       1
_space_group_crystal_system       triclinic
_cell_length_a                    9.807849
_cell_length_b                    10.873833
_cell_length_c                    15.87599
_cell_angle_alpha                 93.590982
_cell_angle_beta                  80.022994
_cell_angle_gamma                 110.027991
_cell_volume                      1566.69759992

loop_
_atom_site_label
_atom_site_type_symbol
_atom_type_description
_atom_site_fract_x
_atom_site_fract_y
_atom_site_fract_z
_atom_type_partial_charge
C1    C     C_R   0.557207 0.746097 0.500056 0.866810
C2    C     C_R   0.448545 0.254629 0.489594 0.833439
C3    C     C_R   0.330363 0.506651 0.076397 -0.187007
C4    C     C_R   0.683183 0.568495 0.925756 -0.199706
C5    C     C_R   0.231141 0.492073 0.020852 -0.216272
C6    C     C_R   0.782953 0.586031 0.981384 -0.215857
C7    C     C_2   0.588041 0.886619 0.489349 -0.279914
C8    C     C_2   0.430295 0.115579 0.476913 -0.418542
C9    C     C_2   0.519295 0.933601 0.438509 0.019422
C10   C     C_2   0.542277 0.074306 0.440056 -0.098513
C11   C     C_2   0.924567 0.492282 0.492521 0.080752
C12   C     C_2   0.075408 0.507339 0.507898 0.077846
C13   C     C_R   0.412301 0.487784 0.662553 0.792010
C14   C     C_R   0.588020 0.513799 0.337492 0.807534
C15   C     C_R   0.362287 0.486672 0.755376 -0.058936
C16   C     C_R   0.640702 0.528720 0.245032 -0.048059
C17   C     C_R   0.173246 0.473877 0.877873 -0.184335
C18   C     C_R   0.837028 0.582767 0.123730 -0.182434
C19   C     C_R   0.216178 0.472171 0.789582 -0.170160
C20   C     C_R   0.790531 0.564193 0.211431 -0.168581
C21   C     C_R   0.464798 0.503958 0.810269 -0.225474
C22   C     C_R   0.538323 0.511776 0.190130 -0.187835
C23   C     C_R   0.425809 0.511238 0.899367 0.083196
C24   C     C_R   0.582653 0.534875 0.101902 0.078576
C25   C     C_R   0.276407 0.492419 0.932867 0.158440
C26   C     C_R   0.734543 0.567860 0.068825 0.158641
C27   C     C_R   0.530246 0.533761 0.955905 0.063415
C28   C     C_R   0.480261 0.524020 0.045726 0.063914
Cu1   Cu    Cu3+1 0.362980 0.479380 0.485080 1.059953
Cu2   Cu    Cu3+1 0.637020 0.520620 0.514920 1.034700
H1    H     H_    0.117465 0.478919 0.047132 0.145669
H2    H     H_    0.899088 0.613190 0.955543 0.147322
H3    H     H_    0.423815 0.478091 0.217775 0.183351
H4    H     H_    0.574233 0.508632 0.781870 0.177515
H5    H     H_    0.871619 0.577931 0.252783 0.170286
H6    H     H_    0.135141 0.459006 0.748279 0.169478
H7    H     H_    0.059231 0.460744 0.903248 0.137214
H8    H     H_    0.953393 0.609762 0.098811 0.135601
H9    H     H_    0.286148 0.507660 0.143323 0.171915
H10   H     H_    0.730749 0.587145 0.859427 0.171985
H11   H     H_    0.323684 0.044462 0.500953 0.174964
H12   H     H_    0.665096 0.954225 0.526623 0.164906
H13   H     H_    0.119997 0.569321 0.559603 0.154073
H14   H     H_    0.879270 0.428454 0.441863 0.146798
N1    N     N_2   0.842890 0.551600 0.537350 -0.021564
N2    N     N_2   0.157110 0.448400 0.462650 -0.016243
O1    O     O_R   0.426810 0.668300 0.492040 -0.569468
O2    O     O_R   0.573190 0.331700 0.507960 -0.603390
O3    O     O_R   0.658240 0.703130 0.517240 -0.526683
O4    O     O_R   0.341760 0.296870 0.482760 -0.524573
O5    O     O_R   0.319390 0.472820 0.610170 -0.605966
O6    O     O_R   0.680610 0.527180 0.389830 -0.619407
O7    O     O_R   0.550820 0.507640 0.635370 -0.539093
O8    O     O_R   0.449180 0.492360 0.364630 -0.513859
C29   C     C_2   0.682624 0.162689 0.392375 0.461096
H15   H     H_    0.693906 0.260977 0.375221 0.059372
O9    O     O_2   0.786310 0.124098 0.368863 -0.483530
C30   C     C_2   0.429260 0.854551 0.375067 0.423410
H16   H     H_    0.342693 0.884052 0.357740 0.069545
O10   O     O_2   0.457100 0.762551 0.337324 -0.527852
Cl1   Cl    Cl    0.102597 0.354783 0.374053 -0.494392
Cl2   Cl    Cl    0.902670 0.654685 0.621330 -0.555498

loop_
_geom_bond_atom_site_label_1
_geom_bond_atom_site_label_2
_ccdc_geom_bond_type
C6    H2    S    
C11   C12   S    
Cu1   Cu2   S    
C14   C16   S    
C23   C27   A    
C9    C10   S    
Cu2   N1    S    
C18   C20   A    
C18   C26   A    
C13   C15   S    
Cu1   N2    S    
C16   C20   A    
C17   C25   A    
C29   H15   S    
C23   C25   A    
C18   H8    S    
C3    H9    S    
C11   H14   S    
C29   O9    D    
C17   H7    S    
C15   C19   A    
C10   C29   S    
C20   H5    S    
C6    C26   A    
C5    H1    S    
Cu1   O1    S    
C5    C25   A    
C8    C10   D    
C3    C28   A    
C14   O8    A    
Cu2   O3    S    
C24   C26   A    
C12   H13   S    
C13   O7    A    
Cu1   O4    S    
C21   C23   A    
C13   O5    A    
Cu2   O7    S    
C22   C24   A    
C11   N1    D    
Cu1   O8    S    
N2    Cl1   S    
C30   O10   D    
C17   C19   A    
C4    H10   S    
N1    Cl2   S    
C15   C21   A    
C4    C27   A    
C8    H11   S    
C4    C6    A    
C9    C30   S    
Cu1   O5    S    
C7    H12   S    
Cu2   O2    S    
C27   C28   A    
C7    C9    D    
C22   H3    S    
Cu2   O6    S    
C1    O1    A    
C2    C8    S    
C16   C22   A    
C21   H4    S    
C2    O4    A    
C2    O2    A    
C19   H6    S    
C1    C7    S    
C30   H16   S    
C1    O3    A    
C14   O6    A    
C24   C28   A    
C3    C5    A    
C12   N2    D    
