data_mof_unit_22820.cif
_audit_creation_date              2012-12-11T16:04:51-0500
_audit_creation_method            fapswitch 2.2
_symmetry_space_group_name_H-M    P1
_symmetry_Int_Tables_number       1
_space_group_crystal_system       triclinic
_cell_length_a                    10.673163
_cell_length_b                    10.658312
_cell_length_c                    16.966427
_cell_angle_alpha                 98.848587
_cell_angle_beta                  98.425955
_cell_angle_gamma                 61.636274
_cell_volume                      1672.14722781

loop_
_atom_site_label
_atom_site_type_symbol
_atom_type_description
_atom_site_fract_x
_atom_site_fract_y
_atom_site_fract_z
_atom_type_partial_charge
C1    C     C_R   0.355006 0.776167 0.399382 0.559957
C2    C     C_3   0.377458 0.699157 0.250387 -0.153510
C3    C     C_3   0.347645 0.817199 0.320911 0.041737
C4    C     C_R   0.371877 0.347028 0.358581 0.563583
C5    C     C_3   0.431251 0.874816 0.284809 0.063345
C6    C     C_3   0.291082 0.977012 0.240653 -0.129439
C7    C     C_3   0.208111 0.917000 0.277422 -0.158074
C8    C     C_3   0.236597 0.800048 0.206446 -0.112978
C9    C     C_3   0.320487 0.858453 0.170838 0.043670
C10   C     C_3   0.459776 0.258705 0.774324 -0.112885
C11   C     C_3   0.400437 0.399748 0.735507 -0.111200
C12   C     C_3   0.738182 0.470533 0.269717 -0.127088
C13   C     C_3   0.336818 0.334855 0.663550 0.054053
C14   C     C_3   0.396204 0.194625 0.701770 -0.111720
C15   C     C_3   0.254268 0.256699 0.740836 -0.111964
C16   C     C_R   0.778232 0.375203 0.402313 0.543412
C17   C     C_3   0.195110 0.397901 0.701453 -0.120496
C18   C     C_3   0.258545 0.461706 0.774943 -0.122320
C19   C     C_3   0.318718 0.320835 0.812685 0.053429
C20   C     C_1   0.817106 0.342048 0.709652 -0.044960
C21   C     C_1   0.844171 0.314601 0.777960 -0.045884
C22   C     C_1   0.337996 0.812055 0.709717 -0.046608
C23   C     C_3   0.817358 0.344525 0.321217 0.033170
C24   C     C_1   0.313348 0.839260 0.778490 -0.044857
C25   C     C_R   0.889850 0.312421 0.090180 0.542289
C26   C     C_R   0.319101 0.299789 0.120156 0.531936
C27   C     C_R   0.292782 0.893540 0.089243 0.549180
C28   C     C_R   0.356547 0.771300 0.627227 0.541773
C29   C     C_R   0.885616 0.299010 0.860720 0.541882
C30   C     C_R   0.308177 0.293641 0.891699 0.537483
C31   C     C_R   0.280144 0.884681 0.859004 0.541620
C32   C     C_R   0.366988 0.345946 0.585349 0.545927
C33   C     C_R   0.773318 0.380037 0.629780 0.539983
C34   C     C_3   0.783602 0.246580 0.254799 -0.110198
C35   C     C_1   0.346143 0.336103 0.274864 0.004449
C36   C     C_1   0.332860 0.326884 0.203737 -0.021274
C37   C     C_3   0.706178 0.372367 0.201795 -0.161877
C38   C     C_2   0.921032 0.544990 0.233376 0.602713
C39   C     C_2   0.539258 0.920044 0.326379 0.587208
C40   C     C_3   0.927128 0.205463 0.222160 -0.156756
C41   C     C_3   0.959795 0.304190 0.290254 -0.148106
C42   C     C_3   0.880573 0.429444 0.238011 0.075663
C43   C     C_3   0.848901 0.331825 0.170509 0.032471
C44   C     C_3   0.460778 0.758525 0.213308 -0.150176
Cr1   Cr    Cr6+3 0.608340 0.611040 0.520430 1.058306
Cr2   Cr    Cr6+3 0.287650 0.601120 0.489350 1.049122
Cr3   Cr    Cr6+3 0.604040 0.287870 0.490280 1.034368
Cr4   Cr    Cr6+3 0.054020 0.052700 0.970850 1.027801
Cr5   Cr    Cr6+3 0.059230 0.375120 0.993390 1.057648
Cr6   Cr    Cr6+3 0.374950 0.061200 0.992340 1.054657
H1    H     H_    0.667550 0.578889 0.296313 0.147156
H2    H     H_    0.204184 0.570321 0.806944 0.132892
H3    H     H_    0.603456 0.401381 0.164556 0.113542
H4    H     H_    0.746118 0.169353 0.264025 0.173213
H5    H     H_    0.997001 0.097334 0.194976 0.152818
H6    H     H_    0.062525 0.275368 0.327492 0.127619
H7    H     H_    0.412203 0.584767 0.256463 0.112442
H8    H     H_    0.559915 0.697913 0.181935 0.155877
H9    H     H_    0.054019 0.630307 0.273399 0.341413
H10   H     H_    0.642719 0.954123 0.430090 0.338230
H11   H     H_    0.256275 0.091262 0.234152 0.113813
H12   H     H_    0.108210 0.978265 0.308119 0.128970
H13   H     H_    0.157279 0.767961 0.172792 0.145844
H14   H     H_    0.461006 0.458883 0.731308 0.114316
H15   H     H_    0.567936 0.203752 0.805733 0.131540
H16   H     H_    0.450656 0.085604 0.670200 0.136155
H17   H     H_    0.193701 0.197661 0.745230 0.114316
H18   H     H_    0.087471 0.452821 0.669512 0.135074
O1    O     O_R   0.751220 0.499230 0.435170 -0.505360
O2    O     O_R   0.412990 0.180750 0.091610 -0.496088
O3    O     O_R   0.366620 0.943130 0.065760 -0.484077
O4    O     O_R   0.477220 0.727600 0.436870 -0.465796
O5    O     O_R   0.160510 0.906330 0.879210 -0.511026
O6    O     O_R   0.930190 0.179050 0.889450 -0.498675
O7    O     O_R   0.909140 0.398170 0.896710 -0.505751
O8    O     O_R   0.186190 0.363460 0.918830 -0.503524
O9    O     O_R   0.401670 0.173200 0.913310 -0.516869
O10   O     O_R   0.356120 0.936130 0.900470 -0.494742
O11   O     O_3   0.162740 0.163010 0.985530 -0.270765
O12   O     O_R   0.297880 0.469080 0.560050 -0.500480
O13   O     O_R   0.258650 0.745120 0.411470 -0.518368
O14   O     O_R   0.297070 0.467240 0.395960 -0.476118
O15   O     O_R   0.488830 0.252610 0.387790 -0.494600
O16   O     O_R   0.724400 0.302390 0.420980 -0.507553
O17   O     O_R   0.752100 0.501210 0.612190 -0.509819
O18   O     O_R   0.478040 0.729440 0.600970 -0.494634
O19   O     O_R   0.259530 0.747110 0.588490 -0.507774
O20   O     O_2   0.847351 0.640864 0.190319 -0.493208
O21   O     O_R   0.038505 0.546331 0.281077 -0.702243
O22   O     O_2   0.601431 0.956624 0.287038 -0.488779
O23   O     O_R   0.489720 0.254590 0.564810 -0.511160
O24   O     O_R   0.567811 0.921485 0.409412 -0.680439
O25   O     O_R   0.725220 0.304230 0.585080 -0.499097
O26   O     O_3   0.500010 0.500010 0.500020 -0.277286
O27   O     O_R   0.171830 0.913880 0.057510 -0.527459
O28   O     O_R   0.940690 0.186050 0.054730 -0.507867
O29   O     O_R   0.920470 0.405720 0.075010 -0.483211
O30   O     O_R   0.196690 0.370460 0.084120 -0.492929

loop_
_geom_bond_atom_site_label_1
_geom_bond_atom_site_label_2
_ccdc_geom_bond_type
C11   C18   S    
Cr4   O27   S    
C34   C37   S    
C41   C42   S    
C13   C32   S    
C27   O27   A    
C35   C36   T    
Cr6   O11   S    
C25   C43   S    
C6    C9    S    
C2    H7    S    
C18   H2    S    
C7    C8    S    
C41   H6    S    
C15   C19   S    
C12   C23   S    
C9    C27   S    
C34   C40   S    
C6    H11   S    
C38   C42   S    
C3    C7    S    
C5    C6    S    
C31   O5    A    
C32   O23   A    
C1    O13   A    
C16   O16   A    
C18   C19   S    
H9    O21   S    
C12   C37   S    
C33   O17   A    
C12   C42   S    
Cr5   O30   S    
Cr2   O14   S    
C30   O9    A    
C40   C43   S    
C2    C44   S    
C8    C9    S    
C9    C44   S    
Cr5   O7    S    
Cr3   O15   S    
C39   O22   D    
C37   H3    S    
C23   C34   S    
C4    C35   S    
C22   C28   S    
C13   C14   S    
Cr1   O4    S    
Cr1   O26   S    
Cr6   O10   S    
H10   O24   S    
Cr3   O25   S    
C1    O4    A    
Cr1   O1    S    
Cr4   O6    S    
C11   H14   S    
C10   C14   S    
C44   H8    S    
C29   O6    A    
C21   C29   S    
Cr5   O11   S    
C38   O20   D    
C1    C3    S    
C37   C43   S    
Cr1   O17   S    
Cr6   O3    S    
C7    H12   S    
C32   O12   A    
Cr2   O13   S    
C30   O8    A    
Cr2   O26   S    
C10   C19   S    
C40   H5    S    
C15   H17   S    
C28   O19   A    
C17   C18   S    
C14   H16   S    
Cr5   O8    S    
Cr3   O16   S    
C26   O30   A    
C20   C33   S    
C26   C36   S    
C40   C41   S    
C5    C44   S    
C34   H4    S    
C16   C23   S    
C5    C39   S    
C28   O18   A    
C26   O2    A    
C22   C24   T    
C42   C43   S    
Cr6   O9    S    
C39   O24   S    
C12   H1    S    
C27   O3    A    
Cr4   O11   S    
C31   O10   A    
Cr2   O19   S    
C10   H15   S    
C25   O29   A    
C15   C17   S    
C17   H18   S    
Cr4   O28   S    
Cr3   O23   S    
Cr4   O5    S    
C2    C8    S    
C16   O1    A    
C3    C5    S    
C33   O25   A    
C6    C7    S    
C29   O7    A    
C23   C41   S    
C13   C17   S    
C38   O21   S    
C2    C3    S    
Cr6   O2    S    
C24   C31   S    
Cr2   O12   S    
C11   C13   S    
C4    O15   A    
Cr3   O26   S    
Cr1   O18   S    
C10   C11   S    
C8    H13   S    
Cr5   O29   S    
C4    O14   A    
C20   C21   T    
C25   O28   A    
C14   C15   S    
C19   C30   S    
