data_mof_unit_12416.cif
_audit_creation_date              2012-12-10T17:48:37-0500
_audit_creation_method            fapswitch 2.2
_symmetry_space_group_name_H-M    P1
_symmetry_Int_Tables_number       1
_space_group_crystal_system       triclinic
_cell_length_a                    15.758353
_cell_length_b                    10.654353
_cell_length_c                    9.927447
_cell_angle_alpha                 91.910706
_cell_angle_beta                  90.246376
_cell_angle_gamma                 91.76187
_cell_volume                      1665.03135098

loop_
_atom_site_label
_atom_site_type_symbol
_atom_type_description
_atom_site_fract_x
_atom_site_fract_y
_atom_site_fract_z
_atom_type_partial_charge
C1    C     C_R   0.496893 0.260584 0.497620 0.906607
C2    C     C_R   0.735679 0.093040 0.498016 -0.096899
C3    C     C_R   0.739997 0.970675 0.539630 -0.048130
C4    C     C_R   0.338573 0.500922 0.499811 0.906173
C5    C     C_R   0.665943 0.897302 0.554921 0.335311
C6    C     C_R   0.585490 0.945095 0.520440 0.001693
C7    C     C_R   0.581485 0.073780 0.495704 0.008453
C8    C     C_R   0.501452 0.128300 0.491733 -0.155193
C9    C     C_R   0.425848 0.056932 0.495167 0.366849
C10   C     C_R   0.429855 0.928570 0.499282 -0.185937
C11   C     C_R   0.508323 0.873040 0.511187 -0.151450
C12   C     C_3   0.952067 0.443987 0.624847 0.176598
C13   C     C_R   0.389104 0.335035 0.134014 -0.205107
C14   C     C_R   0.333244 0.254725 0.061035 0.412395
C15   C     C_R   0.332524 0.255463 0.921525 -0.208715
C16   C     C_R   0.506026 0.739715 0.502799 0.954146
C17   C     C_R   0.387500 0.336198 0.854294 -0.198395
C18   C     C_R   0.444810 0.419125 0.924741 0.167173
C19   C     C_R   0.445193 0.418813 0.069229 0.104664
C20   C     C_R   0.552632 0.577465 0.074627 -0.053436
C21   C     C_R   0.552670 0.577315 0.931663 -0.054693
C22   C     C_R   0.661565 0.498076 0.499885 0.910119
C23   C     C_3   0.917699 0.506398 0.495309 -0.160225
C24   C     C_3   0.049918 0.443929 0.622088 -0.452837
C25   C     C_3   0.050511 0.438710 0.369827 -0.436001
C26   C     C_3   0.952289 0.439180 0.363168 0.707457
C27   C     C_1   0.750568 0.499332 0.499355 -0.038510
C28   C     C_3   0.083632 0.513142 0.497191 -0.104839
C29   C     C_3   0.951907 0.646504 0.506697 0.098425
C30   C     C_3   0.051363 0.651182 0.497278 0.623088
C31   C     C_1   0.825902 0.502137 0.497520 0.169402
C32   C     C_1   0.175079 0.510830 0.498413 0.124094
C33   C     C_1   0.250089 0.506282 0.499234 -0.066230
C34   C     C_R   0.657297 0.145940 0.480079 -0.151653
Cl1   Cl    Cl    0.908692 0.290214 0.656618 -0.501291
Cl2   Cl    Cl    0.899139 0.753153 0.399166 -0.414178
Cl3   Cl    Cl    0.325457 0.125751 0.493262 -0.550499
Cl4   Cl    Cl    0.678415 0.763937 0.649828 -0.632974
Cl5   Cl    Cl    0.263428 0.152849 0.145103 -0.446528
Cl6   Cl    Cl    0.912051 0.280710 0.339210 -0.477341
Cl7   Cl    Cl    0.919875 0.514030 0.212704 -0.418134
Cl8   Cl    Cl    0.094474 0.742185 0.638886 -0.490960
Cl9   Cl    Cl    0.089558 0.729526 0.350046 -0.370109
H1    H     H_    0.289174 0.193101 0.864410 0.223474
H2    H     H_    0.072462 0.345831 0.619301 0.269775
H3    H     H_    0.386854 0.329203 0.240759 0.234950
H4    H     H_    0.382858 0.330691 0.747367 0.235242
H5    H     H_    0.595724 0.640593 0.880785 0.203483
H6    H     H_    0.079028 0.477938 0.277361 0.245172
H7    H     H_    0.072928 0.340667 0.372428 0.250359
H8    H     H_    0.933911 0.684033 0.608245 0.160856
H9    H     H_    0.075799 0.489647 0.716629 0.228012
H10   H     H_    0.933005 0.501099 0.715105 0.172398
H11   H     H_    0.656593 0.243338 0.453726 0.144661
H12   H     H_    0.793049 0.149120 0.486853 0.252778
H13   H     H_    0.801165 0.934732 0.566112 0.229991
H14   H     H_    0.371531 0.871649 0.495079 0.198011
H15   H     H_    0.595674 0.640869 0.130750 0.170588
N1    N     N_R   0.499210 0.498800 0.142780 -0.116671
N2    N     N_R   0.499180 0.498720 0.857170 -0.119630
O1    O     O_R   0.500000 0.316780 0.614690 -0.630960
O2    O     O_R   0.499990 0.316750 0.385360 -0.633735
O3    O     O_R   0.377150 0.500020 0.614720 -0.632865
O4    O     O_R   0.377140 0.499990 0.385380 -0.624126
O5    O     O_R   0.500010 0.683250 0.614640 -0.573612
O6    O     O_R   0.500000 0.683220 0.385310 -0.611848
O7    O     O_R   0.622860 0.500010 0.614620 -0.569845
O8    O     O_R   0.622850 0.499980 0.385280 -0.610132
Zn1   Zn    Zn3+2 0.500010 0.500020 0.653130 1.009339
Zn2   Zn    Zn3+2 0.499990 0.499980 0.346870 0.991951

loop_
_geom_bond_atom_site_label_1
_geom_bond_atom_site_label_2
_ccdc_geom_bond_type
C24   H9    S    
C34   H11   S    
C6    C7    A    
O4    Zn2   S    
C1    C8    S    
C9    C10   A    
C12   C24   S    
C12   H10   S    
C29   Cl2   S    
O3    Zn1   S    
C22   C27   S    
C21   H5    S    
C22   O8    A    
C1    O2    A    
C2    C34   A    
C18   N2    A    
C9    Cl3   S    
C17   C18   A    
C14   Cl5   S    
C3    C5    A    
C7    C8    A    
C14   C15   A    
C5    Cl4   S    
C32   C33   T    
C12   Cl1   S    
O7    Zn1   S    
C4    O3    A    
C26   Cl6   S    
O6    Zn2   S    
N2    Zn1   S    
O5    Zn1   S    
C24   H2    S    
C23   C29   S    
C28   C30   S    
C15   H1    S    
C2    C3    A    
C2    H12   S    
C6    C11   A    
C29   H8    S    
C5    C6    A    
C30   Cl9   S    
C7    C34   A    
C25   H6    S    
C22   O7    A    
C11   C16   S    
C16   O6    A    
C10   C11   A    
C13   C19   A    
N1    Zn2   S    
C29   C30   S    
C23   C31   S    
C17   H4    S    
C28   C32   S    
C10   H14   S    
C20   C21   A    
O2    Zn2   S    
C21   N2    A    
O8    Zn2   S    
C18   C19   A    
C3    H13   S    
C23   C26   S    
O1    Zn1   S    
C13   H3    S    
C15   C17   A    
C4    O4    A    
C25   H7    S    
C30   Cl8   S    
C20   H15   S    
C12   C23   S    
C16   O5    A    
C13   C14   A    
C19   N1    A    
C25   C26   S    
C4    C33   S    
C27   C31   T    
C24   C28   S    
C26   Cl7   S    
C20   N1    A    
C8    C9    A    
C25   C28   S    
C1    O1    A    
