data_mof_unit_28462.cif
_audit_creation_date              2012-12-11T15:35:29-0500
_audit_creation_method            fapswitch 2.2
_symmetry_space_group_name_H-M    P1
_symmetry_Int_Tables_number       1
_space_group_crystal_system       triclinic
_cell_length_a                    17.378822
_cell_length_b                    24.16647
_cell_length_c                    14.920043
_cell_angle_alpha                 89.970681
_cell_angle_beta                  125.044905
_cell_angle_gamma                 89.971975
_cell_volume                      5130.14168966

loop_
_atom_site_label
_atom_site_type_symbol
_atom_type_description
_atom_site_fract_x
_atom_site_fract_y
_atom_site_fract_z
_atom_type_partial_charge
C1    C     C_R   0.349795 0.151843 0.908288 -0.146862
C2    C     C_R   0.596064 0.130521 0.910949 -0.122049
C3    C     C_R   0.250328 0.546103 0.306293 -0.156262
C4    C     C_1   0.845220 0.928000 0.559326 0.053164
C5    C     C_1   0.852902 0.052190 0.591686 0.034191
C6    C     C_1   0.342652 0.431838 0.561016 0.054880
C7    C     C_1   0.347134 0.557108 0.580510 0.044245
C8    C     C_1   0.084713 0.942106 0.506149 0.031732
C9    C     C_1   0.112534 0.037392 0.508524 0.041626
C10   C     C_1   0.590226 0.443532 0.511134 0.033337
C11   C     C_1   0.612047 0.539551 0.512151 0.041578
C12   C     C_3   0.057436 0.894300 0.693298 -1.030227
C13   C     C_R   0.098976 0.375903 0.908869 -0.123503
C14   C     C_3   0.050887 0.114780 0.641159 -1.034957
C15   C     C_3   0.555661 0.393586 0.690917 -1.033963
C16   C     C_3   0.552241 0.614380 0.650760 -1.039753
C17   C     C_R   0.098942 0.624071 0.908815 -0.123219
C18   C     C_R   0.521520 0.000025 0.695489 0.046881
C19   C     C_R   0.934751 0.500041 0.632420 0.051598
C20   C     C_R   0.793423 0.000138 0.371733 0.095364
C21   C     C_R   0.294363 0.500225 0.370934 0.098011
C22   C     C_R   0.685821 0.141234 0.002339 0.041872
C23   C     C_R   0.685894 0.858748 0.002383 0.041899
C24   C     C_R   0.188376 0.636152 0.000257 0.040467
C25   C     C_R   0.349088 0.848452 0.908172 -0.141792
C26   C     C_R   0.188460 0.363826 0.000331 0.040302
C27   C     C_3   0.013751 0.952093 0.649823 0.031703
C28   C     C_3   0.016831 0.055402 0.640863 0.049104
C29   C     C_3   0.513027 0.451833 0.650686 0.031431
C30   C     C_3   0.515703 0.554933 0.642965 0.044386
C31   C     C_3   0.916019 0.945553 0.539956 -0.142539
C32   C     C_3   0.909647 0.051690 0.546863 -0.153176
C33   C     C_3   0.414484 0.446433 0.541232 -0.146160
C34   C     C_3   0.410109 0.552851 0.544135 -0.152858
C35   C     C_3   0.055989 0.996893 0.522107 0.138581
C36   C     C_R   0.851588 0.652353 0.908331 -0.145690
C37   C     C_3   0.557398 0.497303 0.525195 0.142638
C38   C     C_3   0.069443 0.001294 0.637056 0.104390
C39   C     C_3   0.569378 0.501237 0.639562 0.107376
C40   C     C_3   0.889770 0.000437 0.472737 0.137835
C41   C     C_3   0.390311 0.500583 0.472599 0.135869
C42   C     C_R   0.441041 0.847786 0.091204 -0.123351
C43   C     C_R   0.441325 0.152277 0.091204 -0.121830
C44   C     C_R   0.944049 0.346985 0.090908 -0.142185
C45   C     C_R   0.944227 0.653049 0.090875 -0.140969
C46   C     C_3   0.952254 0.006077 0.429812 -0.539350
C47   C     C_R   0.851108 0.347857 0.908278 -0.141544
C48   C     C_3   0.453639 0.504211 0.430899 -0.542961
C49   C     C_R   0.289328 0.731645 0.900715 -0.166246
C50   C     C_R   0.290009 0.268735 0.900812 -0.168799
C51   C     C_R   0.794144 0.230556 0.902542 -0.167702
C52   C     C_R   0.794531 0.769717 0.902514 -0.169107
C53   C     C_R   0.744333 0.186234 0.903481 -0.163274
C54   C     C_R   0.744540 0.813964 0.903477 -0.162761
C55   C     C_R   0.243128 0.685102 0.900965 -0.163603
C56   C     C_R   0.243531 0.315169 0.901079 -0.163282
C57   C     C_R   0.759817 0.169668 0.002701 0.143428
C58   C     C_R   0.688541 0.125033 0.093128 -0.128380
C59   C     C_R   0.759987 0.830395 0.002716 0.142341
C60   C     C_R   0.261565 0.665763 0.000125 0.140812
C61   C     C_R   0.261799 0.334314 0.000235 0.140222
C62   C     C_R   0.839712 0.188299 0.101665 -0.168006
C63   C     C_R   0.840012 0.811743 0.101661 -0.167211
C64   C     C_R   0.340940 0.685068 0.099093 -0.165774
C65   C     C_R   0.341264 0.314964 0.099204 -0.165208
C66   C     C_R   0.387292 0.731567 0.098974 -0.168325
C67   C     C_R   0.387926 0.268591 0.099065 -0.167540
C68   C     C_R   0.890025 0.232236 0.100838 -0.168921
C69   C     C_R   0.688597 0.874941 0.093149 -0.128701
C70   C     C_R   0.890545 0.767901 0.100808 -0.167926
C71   C     C_R   0.354989 0.758302 0.999766 0.138818
C72   C     C_R   0.355773 0.241993 0.999847 0.138355
C73   C     C_R   0.860029 0.257458 0.001022 0.138770
C74   C     C_R   0.860569 0.742759 0.000992 0.137919
C75   C     C_R   0.585621 0.949796 0.609464 -0.173482
C76   C     C_R   0.585798 0.050183 0.609441 -0.170285
C77   C     C_R   0.892986 0.449939 0.465235 -0.166241
C78   C     C_R   0.892871 0.550161 0.465074 -0.163879
C79   C     C_R   0.598974 0.949735 0.527306 -0.149651
C80   C     C_R   0.189584 0.623166 0.091848 -0.124040
C81   C     C_R   0.599410 0.050157 0.527437 -0.153464
C82   C     C_R   0.894621 0.449956 0.373592 -0.165391
C83   C     C_R   0.894504 0.550131 0.373423 -0.166557
C84   C     C_R   0.594561 0.999934 0.477804 0.148527
C85   C     C_R   0.906117 0.500037 0.335181 0.142563
C86   C     C_R   0.546358 0.045898 0.301739 -0.120123
C87   C     C_R   0.546459 0.954049 0.301798 -0.118196
C88   C     C_R   0.980161 0.546087 0.248824 -0.117767
C89   C     C_R   0.980143 0.453933 0.248818 -0.115831
C90   C     C_R   0.567089 0.000012 0.640053 0.147316
C91   C     C_R   0.189643 0.376817 0.091891 -0.124457
C92   C     C_R   0.901801 0.500051 0.517679 0.144058
C93   C     C_R   0.231192 0.953958 0.749175 -0.121840
C94   C     C_R   0.232201 0.046481 0.752777 -0.121438
C95   C     C_R   0.731610 0.454037 0.752541 -0.122339
C96   C     C_R   0.732524 0.546465 0.754849 -0.120922
C97   C     C_R   0.379693 0.183998 0.999773 0.048558
C98   C     C_R   0.378985 0.816256 0.999717 0.047724
C99   C     C_R   0.883701 0.684908 0.999812 0.055482
C100  C     C_R   0.883224 0.315268 0.999824 0.054594
C101  C     C_R   0.563057 0.999957 0.365077 0.040633
C102  C     C_R   0.596095 0.869467 0.910998 -0.122017
C103  C     C_R   0.949091 0.500019 0.275010 0.036676
C104  C     C_R   0.173683 0.000471 0.724459 0.065367
C105  C     C_R   0.673904 0.500529 0.727929 0.065227
C106  C     C_R   0.496906 0.045876 0.728142 -0.126293
C107  C     C_R   0.496845 0.954164 0.728091 -0.128126
C108  C     C_R   0.950625 0.545721 0.696343 -0.135202
C109  C     C_R   0.950649 0.454332 0.696382 -0.137376
C110  C     C_R   0.750792 0.954131 0.306872 -0.156714
C111  C     C_R   0.749767 0.046013 0.306733 -0.156471
C112  C     C_R   0.251271 0.454131 0.306555 -0.156447
H1    H     H_    0.312285 0.165871 0.824521 0.089927
H2    H     H_    0.888186 0.089162 0.494944 0.135205
H3    H     H_    0.416241 0.411693 0.493432 0.141199
H4    H     H_    0.394423 0.589689 0.491785 0.137851
H5    H     H_    0.929164 0.976863 0.360660 0.175618
H6    H     H_    0.941003 0.048083 0.392853 0.177130
H7    H     H_    0.432007 0.472808 0.365467 0.174785
H8    H     H_    0.440938 0.544840 0.388704 0.174799
H9    H     H_    0.266682 0.749058 0.822462 0.110425
H10   H     H_    0.267439 0.251425 0.822555 0.110812
H11   H     H_    0.773832 0.246633 0.824187 0.109396
H12   H     H_    0.310956 0.834670 0.824253 0.090467
H13   H     H_    0.774200 0.753703 0.824150 0.110266
H14   H     H_    0.687987 0.169176 0.825831 0.105866
H15   H     H_    0.688090 0.831055 0.825830 0.106242
H16   H     H_    0.186598 0.668536 0.822956 0.110298
H17   H     H_    0.186936 0.331790 0.823072 0.110485
H18   H     H_    0.857910 0.173531 0.179977 0.107538
H19   H     H_    0.858167 0.826415 0.179977 0.109074
H20   H     H_    0.361415 0.668534 0.177217 0.107565
H21   H     H_    0.361593 0.331348 0.177330 0.108745
H22   H     H_    0.441881 0.748939 0.177136 0.107601
H23   H     H_    0.813710 0.666240 0.824422 0.089009
H24   H     H_    0.442590 0.251158 0.177220 0.107711
H25   H     H_    0.944956 0.249588 0.178812 0.107846
H26   H     H_    0.945608 0.750521 0.178778 0.108223
H27   H     H_    0.580576 0.910375 0.639999 0.104597
H28   H     H_    0.581025 0.089615 0.640124 0.103949
H29   H     H_    0.894070 0.410445 0.499912 0.107645
H30   H     H_    0.893857 0.589653 0.499631 0.107960
H31   H     H_    0.486478 0.833926 0.175078 0.084766
H32   H     H_    0.486774 0.166018 0.175099 0.083822
H33   H     H_    0.991336 0.332888 0.174354 0.087137
H34   H     H_    0.812785 0.334154 0.824270 0.089156
H35   H     H_    0.991521 0.667046 0.174329 0.086313
H36   H     H_    0.601555 0.910179 0.495458 0.109951
H37   H     H_    0.603321 0.089641 0.496281 0.106137
H38   H     H_    0.896888 0.410502 0.341107 0.108613
H39   H     H_    0.896664 0.589580 0.340788 0.108774
H40   H     H_    0.562629 0.088556 0.327480 0.083893
H41   H     H_    0.562920 0.911383 0.327629 0.085845
H42   H     H_    0.970434 0.589122 0.259016 0.093031
H43   H     H_    0.970390 0.410901 0.259000 0.092980
H44   H     H_    0.212672 0.911523 0.726945 0.128260
H45   H     H_    0.002487 0.965592 0.712937 0.146220
H46   H     H_    0.215940 0.089110 0.735349 0.129623
H47   H     H_    0.713184 0.411485 0.731997 0.128647
H48   H     H_    0.716228 0.589116 0.737168 0.129552
H49   H     H_    0.491382 0.087840 0.701262 0.084972
H50   H     H_    0.491234 0.912221 0.701172 0.084843
H51   H     H_    0.932596 0.588169 0.669429 0.087187
H52   H     H_    0.932649 0.411904 0.669530 0.086717
H53   H     H_    0.763421 0.911375 0.332853 0.090156
H54   H     H_    0.760131 0.088823 0.331635 0.082392
H55   H     H_    0.263982 0.411390 0.332638 0.091329
H56   H     H_    0.026096 0.053805 0.721273 0.136083
H57   H     H_    0.260844 0.588905 0.331352 0.086138
H58   H     H_    0.746216 0.128534 0.178180 0.092195
H59   H     H_    0.746311 0.871414 0.178191 0.092050
H60   H     H_    0.247063 0.627757 0.176752 0.091662
H61   H     H_    0.247159 0.372233 0.176800 0.091654
H62   H     H_    0.566703 0.855994 0.828878 0.084446
H63   H     H_    0.566662 0.144018 0.828800 0.084634
H64   H     H_    0.072063 0.370769 0.823842 0.093977
H65   H     H_    0.072028 0.629201 0.823772 0.093945
H66   H     H_    0.119366 0.896513 0.779791 0.259296
H67   H     H_    0.502968 0.464323 0.715229 0.143568
H68   H     H_    0.006590 0.867244 0.694956 0.260689
H69   H     H_    0.073631 0.873199 0.640175 0.259824
H70   H     H_    0.105898 0.128466 0.725731 0.246581
H71   H     H_    0.072882 0.119523 0.585302 0.265794
H72   H     H_    0.994613 0.145796 0.615660 0.248984
H73   H     H_    0.616801 0.394574 0.777979 0.258542
H74   H     H_    0.503787 0.366094 0.689624 0.260120
H75   H     H_    0.572728 0.373757 0.637535 0.260933
H76   H     H_    0.607833 0.625446 0.736915 0.249805
H77   H     H_    0.574224 0.621213 0.595261 0.265291
H78   H     H_    0.520082 0.551873 0.720354 0.136940
H79   H     H_    0.496571 0.645367 0.628319 0.252299
H80   H     H_    0.919864 0.911823 0.491850 0.140585
N1    N     N_R   0.392140 0.102630 0.941800 -0.039638
N2    N     N_R   0.525160 0.972040 0.206160 -0.038855
N3    N     N_R   0.025160 0.527960 0.206160 -0.039265
N4    N     N_R   0.025160 0.472040 0.206160 -0.039074
N5    N     N_R   0.317870 0.971120 0.792790 -0.046863
N6    N     N_R   0.317870 0.028880 0.792790 -0.046576
N7    N     N_R   0.817870 0.471120 0.792790 -0.045649
N8    N     N_R   0.817870 0.528880 0.792790 -0.045602
N9    N     N_R   0.473480 0.027920 0.793480 -0.038084
N10   N     N_R   0.473480 0.972080 0.793480 -0.038317
N11   N     N_R   0.973480 0.527920 0.793480 -0.038333
N12   N     N_R   0.392140 0.897370 0.941800 -0.039877
N13   N     N_R   0.973480 0.472080 0.793480 -0.038190
N14   N     N_R   0.681610 0.971120 0.207570 -0.037069
N15   N     N_R   0.681610 0.028880 0.207570 -0.036048
N16   N     N_R   0.181610 0.471120 0.207570 -0.038219
N17   N     N_R   0.181610 0.528880 0.207570 -0.037571
N18   N     N_R   0.605410 0.102620 0.056870 -0.040079
N19   N     N_R   0.605410 0.897380 0.056870 -0.040076
N20   N     N_R   0.105410 0.602620 0.056870 -0.039912
N21   N     N_R   0.105410 0.397380 0.056870 -0.039880
N22   N     N_R   0.549680 0.896430 0.944180 -0.039484
N23   N     N_R   0.892140 0.602630 0.941800 -0.038807
N24   N     N_R   0.549680 0.103570 0.944180 -0.039354
N25   N     N_R   0.049680 0.396430 0.944180 -0.040868
N26   N     N_R   0.049680 0.603570 0.944180 -0.040795
N27   N     N_1   0.790431 0.913767 0.575044 -0.091495
N28   N     N_1   0.809543 0.052831 0.628219 -0.074317
N29   N     N_1   0.286472 0.420319 0.576331 -0.083603
N30   N     N_1   0.297783 0.560606 0.608900 -0.079693
N31   N     N_1   0.106994 0.899526 0.492499 -0.108708
N32   N     N_1   0.156697 0.068810 0.497351 -0.097997
N33   N     N_1   0.615760 0.401773 0.498952 -0.110539
N34   N     N_R   0.892140 0.397370 0.941800 -0.039006
N35   N     N_1   0.654742 0.572296 0.501327 -0.102215
N36   N     N_R   0.450890 0.896450 0.057150 -0.039770
N37   N     N_R   0.450890 0.103550 0.057150 -0.039452
N38   N     N_R   0.950890 0.396450 0.057150 -0.038764
N39   N     N_R   0.950890 0.603550 0.057150 -0.038486
N40   N     N_R   0.525160 0.027960 0.206160 -0.038628
Ni1   Ni    Ni4+2 0.433410 0.064680 0.868830 0.216304
Ni2   Ni    Ni4+2 0.433410 0.935320 0.868830 0.215212
Ni3   Ni    Ni4+2 0.933410 0.564680 0.868830 0.212244
Ni4   Ni    Ni4+2 0.933410 0.435320 0.868830 0.211594
Ni5   Ni    Ni4+2 0.565650 0.934380 0.131170 0.209491
Ni6   Ni    Ni4+2 0.565650 0.065620 0.131170 0.208250
Ni7   Ni    Ni4+2 0.065650 0.434380 0.131170 0.213613
Ni8   Ni    Ni4+2 0.065650 0.565620 0.131170 0.212533

loop_
_geom_bond_atom_site_label_1
_geom_bond_atom_site_label_2
_ccdc_geom_bond_type
C3    N17   A    
C13   H64   S    
C12   H66   S    
C96   C105  A    
C77   C92   A    
C2    N24   A    
C84   C101  S    
C73   C100  S    
C51   H11   S    
N9    N10   A    
C62   H18   S    
C1    N1    A    
C50   H10   S    
N8    Ni3   S    
N1    N37   A    
C25   N12   A    
C81   C84   A    
C22   C57   S    
C14   H71   S    
C68   H25   S    
C57   C62   A    
C48   H8    S    
C40   C46   S    
C15   H73   S    
C91   H61   S    
C75   C79   A    
C10   C37   S    
N23   N39   A    
N18   Ni6   S    
C52   H13   S    
C13   N25   A    
C58   H58   S    
C26   C61   S    
N26   Ni3   S    
C108  N11   A    
C52   C74   A    
C42   C98   A    
C36   N23   A    
C79   C84   A    
C20   C40   S    
C110  H53   S    
C81   H37   S    
C89   H43   S    
C5    N28   T    
C27   C38   S    
C16   C30   S    
C29   C33   S    
N34   Ni4   S    
C31   C40   S    
C46   H6    S    
C39   C105  S    
C67   C72   A    
C69   H59   S    
C106  H49   S    
C11   C37   S    
C50   C72   A    
C18   C107  A    
C38   C104  S    
C19   C92   S    
C95   C105  A    
C75   C90   A    
C66   H22   S    
C78   C83   A    
C24   C80   A    
C64   H20   S    
C52   C54   A    
N16   N17   A    
C65   C67   A    
C2    C22   A    
C10   N33   T    
N12   Ni2   S    
N17   Ni8   S    
C93   C104  A    
C69   N19   A    
C63   H19   S    
N12   N36   A    
C56   H17   S    
N15   Ni6   S    
C108  H51   S    
C80   N20   A    
C5    C32   S    
C19   C108  A    
C58   N18   A    
C47   H34   S    
C94   C104  A    
N7    N8    A    
C94   H46   S    
C87   C101  A    
C55   C60   A    
C89   C103  A    
N40   Ni6   S    
N24   Ni1   S    
C88   N3    A    
N38   Ni7   S    
N22   Ni2   S    
C34   C41   S    
C1    H1    S    
N25   Ni4   S    
N1    Ni1   S    
C14   H70   S    
C102  N22   A    
N11   Ni3   S    
C15   C29   S    
C48   H7    S    
C83   H39   S    
C72   C97   S    
C19   C109  A    
C95   H47   S    
C15   H74   S    
C44   N38   A    
C33   H3    S    
C17   C24   A    
C30   C34   S    
C12   C27   S    
C27   C31   S    
C18   C90   S    
C43   C97   A    
N3    Ni8   S    
C28   C32   S    
C35   C38   S    
N23   Ni3   S    
C112  N16   A    
C107  N10   A    
C79   H36   S    
C32   H2    S    
C45   C99   A    
C1    C97   A    
C7    N30   T    
N21   N25   A    
N14   N15   A    
C3    H57   S    
C36   C99   A    
C78   C92   A    
C26   C91   A    
C49   C55   A    
C89   N4    A    
C15   H75   S    
C23   C69   A    
C109  H52   S    
C50   C56   A    
C47   C100  A    
C46   H5    S    
N39   Ni8   S    
C51   C53   A    
C8    C35   S    
C88   H42   S    
C93   N5    A    
C18   C106  A    
C66   C71   A    
C70   C74   A    
C16   H79   S    
C86   H40   S    
C2    H63   S    
N10   Ni2   S    
C20   C111  A    
N11   N13   A    
N9    Ni1   S    
C12   H69   S    
C107  H50   S    
C28   C38   S    
C24   C60   S    
C4    N27   T    
C49   H9    S    
C29   C39   S    
C87   H41   S    
C44   H33   S    
C110  N14   A    
C111  H54   S    
C82   H38   S    
C91   N21   A    
C37   C48   S    
C109  N13   A    
N20   Ni8   S    
C8    N31   T    
C21   C41   S    
C95   N7    A    
C96   H48   S    
C70   H26   S    
C32   C40   S    
C41   C48   S    
C7    C34   S    
C20   C110  A    
C13   C26   A    
C3    C21   A    
C27   H45   S    
C80   H60   S    
C76   H28   S    
C14   C28   S    
C93   H44   S    
C36   H23   S    
C111  N15   A    
C88   C103  A    
C17   H65   S    
C96   N8    A    
N16   Ni7   S    
C71   C98   S    
C53   C57   A    
C23   C59   S    
C83   C85   A    
C63   C70   A    
C45   H35   S    
N13   Ni4   S    
C12   H68   S    
C51   C73   A    
C87   N2    A    
N21   Ni7   S    
N6    Ni1   S    
C85   C103  S    
C76   C81   A    
C22   C58   A    
C54   C59   A    
C14   H72   S    
N5    Ni2   S    
C43   N37   A    
C16   H76   S    
C74   C99   S    
C42   N36   A    
C102  H62   S    
C82   C85   A    
C54   H15   S    
C35   C46   S    
C59   C63   A    
C6    C33   S    
C62   C68   A    
C60   C64   A    
C33   C41   S    
C21   C112  A    
C6    N29   T    
C78   H30   S    
C67   H24   S    
C68   C73   A    
C86   N40   A    
N36   Ni5   S    
C37   C39   S    
C75   H27   S    
N7    Ni4   S    
C106  N9    A    
C112  H55   S    
C9    N32   T    
C47   N34   A    
N20   N26   A    
C77   C82   A    
N18   N24   A    
C31   H80   S    
C29   H67   S    
N19   Ni5   S    
C30   C39   S    
N14   Ni5   S    
C30   H78   S    
N2    Ni5   S    
N5    N6    A    
C25   H12   S    
C77   H29   S    
C4    C31   S    
C53   H14   S    
C28   H56   S    
N3    N4    A    
C23   C102  A    
C61   C65   A    
C25   C98   A    
N19   N22   A    
N34   N38   A    
C55   H16   S    
C11   N35   T    
C49   C71   A    
C76   C90   A    
C42   H31   S    
C9    C35   S    
C56   C61   A    
C43   H32   S    
C45   N39   A    
N2    N40   A    
C94   N6    A    
N37   Ni6   S    
C86   C101  A    
C34   H4    S    
C16   H77   S    
C65   H21   S    
C17   N26   A    
C44   C100  A    
C64   C66   A    
N4    Ni7   S    
