data_mof_unit_45081.cif
_audit_creation_date              2012-12-10T18:04:36-0500
_audit_creation_method            fapswitch 2.2
_symmetry_space_group_name_H-M    P1
_symmetry_Int_Tables_number       1
_space_group_crystal_system       triclinic
_cell_length_a                    10.887648
_cell_length_b                    9.72962
_cell_length_c                    15.95681
_cell_angle_alpha                 92.983939
_cell_angle_beta                  98.708902
_cell_angle_gamma                 90.979839
_cell_volume                      1668.05866635

loop_
_atom_site_label
_atom_site_type_symbol
_atom_type_description
_atom_site_fract_x
_atom_site_fract_y
_atom_site_fract_z
_atom_type_partial_charge
C1    C     C_R   0.870295 0.504992 0.503172 -0.053871
C2    C     C_R   0.127512 0.493589 0.506388 -0.099362
C3    C     C_R   0.262191 0.498050 0.501409 0.873403
C4    C     C_R   0.736801 0.501629 0.501898 0.790294
C5    C     C_R   0.502955 0.497158 0.341798 0.835503
C6    C     C_R   0.498658 0.503144 0.658512 0.788656
C7    C     C_R   0.487800 0.632802 0.962543 0.252657
C8    C     C_R   0.485233 0.374273 0.035368 0.257136
C9    C     C_R   0.519092 0.624714 0.051480 0.278668
C10   C     C_R   0.454293 0.383131 0.946466 0.215284
C11   C     C_R   0.467809 0.510637 0.910591 -0.220975
C12   C     C_R   0.509454 0.496232 0.087365 -0.208136
C13   C     C_1   0.477322 0.512990 0.821196 0.212592
C14   C     C_1   0.509074 0.491955 0.177544 0.252953
C15   C     C_1   0.506249 0.491694 0.252589 -0.059873
C16   C     C_1   0.487929 0.510177 0.747018 -0.039994
C17   C     C_R   0.420870 0.068383 0.437028 0.276883
C18   C     C_R   0.561837 0.936097 0.565825 0.326966
C19   C     C_R   0.582218 0.077343 0.555662 0.381030
C20   C     C_R   0.420990 0.917115 0.437568 0.316349
C21   C     C_R   0.044655 0.399144 0.453331 0.073450
C22   C     C_R   0.950355 0.578989 0.568835 0.100115
C23   C     C_R   0.918111 0.426364 0.440325 0.104341
C24   C     C_R   0.079003 0.586153 0.564348 0.086071
Cu1   Cu    Cu3+1 0.500000 0.640660 0.500000 1.094519
Cu2   Cu    Cu3+1 0.500000 0.359340 0.500000 1.109854
N1    N     N_R   0.500000 0.852070 0.500000 -0.311270
N2    N     N_R   0.500000 0.147930 0.500000 -0.304283
O1    O     O_R   0.319640 0.618740 0.499990 -0.519696
O2    O     O_R   0.680360 0.381260 0.500010 -0.509097
O3    O     O_R   0.680360 0.618740 0.500010 -0.580300
O4    O     O_R   0.319640 0.381260 0.499990 -0.552292
O5    O     O_R   0.499970 0.618750 0.380310 -0.511635
O6    O     O_R   0.500030 0.381250 0.619690 -0.524752
O7    O     O_R   0.500030 0.618750 0.619690 -0.517095
O8    O     O_R   0.499970 0.381250 0.380310 -0.501389
S1    S     S_3+6 0.344331 0.147294 0.340377 0.097202
O9    O     O_2   0.439436 0.146562 0.281390 -0.221467
O10   O     O_2   0.230187 0.073962 0.293846 -0.184728
O11   O     O_3   0.292405 0.307470 0.348906 -0.544088
H1    H     H_    0.268337 0.334834 0.289774 0.355164
S2    S     S_3+6 0.561556 0.897235 0.673152 0.117356
O12   O     O_2   0.588218 0.024888 0.730495 -0.154589
O13   O     O_2   0.434642 0.843633 0.682720 -0.282763
O14   O     O_3   0.671050 0.782908 0.703312 -0.526334
H2    H     H_    0.660824 0.762562 0.762020 0.386969
S3    S     S_3+6 0.731753 0.145579 0.603080 0.083362
O15   O     O_2   0.722628 0.278651 0.653461 -0.261536
O16   O     O_2   0.799657 0.045252 0.660853 -0.231444
O17   O     O_3   0.818213 0.168854 0.526170 -0.561232
H3    H     H_    0.901238 0.198510 0.556719 0.368699
S4    S     S_3+6 0.304649 0.821556 0.360177 0.110755
O18   O     O_2   0.180855 0.877232 0.374182 -0.271133
O19   O     O_2   0.332024 0.852698 0.273539 -0.171383
O20   O     O_3   0.279229 0.650703 0.352018 -0.522886
H4    H     H_    0.208150 0.633915 0.305684 0.361409
S5    S     S_3+6 0.584870 0.769824 0.117272 0.095345
O21   O     O_2   0.660636 0.858218 0.068862 -0.177569
O22   O     O_2   0.482398 0.852785 0.146037 -0.174075
O23   O     O_3   0.679098 0.719351 0.203122 -0.547219
H5    H     H_    0.696327 0.803411 0.241175 0.377237
S6    S     S_3+6 0.384977 0.240815 0.879972 0.112932
O24   O     O_2   0.486104 0.154792 0.852499 -0.121613
O25   O     O_2   0.305277 0.153912 0.926541 -0.184133
O26   O     O_3   0.295336 0.293917 0.792899 -0.523651
H6    H     H_    0.229736 0.348317 0.814782 0.352186
S7    S     S_3+6 0.451011 0.792320 0.916385 0.134360
O27   O     O_2   0.396433 0.886588 0.977714 -0.133557
O28   O     O_2   0.566318 0.858336 0.893672 -0.173511
O29   O     O_3   0.344847 0.766283 0.828520 -0.531747
H7    H     H_    0.308495 0.857558 0.817879 0.413352
S8    S     S_3+6 0.510802 0.212262 0.081392 0.144978
O30   O     O_2   0.389937 0.154997 0.100958 -0.147893
O31   O     O_2   0.562428 0.114285 0.020667 -0.129229
O32   O     O_3   0.614259 0.228735 0.171285 -0.531952
H8    H     H_    0.634804 0.133272 0.185963 0.403411
C25   C     C_3   0.079298 0.258250 0.421462 -0.629247
H9    H     H_    0.164852 0.219159 0.457389 0.265767
H10   H     H_    0.007238 0.180836 0.430849 0.231186
H11   H     H_    0.080928 0.256517 0.352304 0.267426
C26   C     C_3   0.900343 0.644286 0.644578 -0.677646
H12   H     H_    0.898485 0.757798 0.640492 0.275834
H13   H     H_    0.806194 0.604661 0.649915 0.242244
H14   H     H_    0.958914 0.617358 0.704353 0.231433
C27   C     C_3   0.833649 0.366045 0.361896 -0.708211
H15   H     H_    0.781089 0.274282 0.376962 0.274855
H16   H     H_    0.767442 0.444568 0.336385 0.209529
H17   H     H_    0.886476 0.336265 0.309870 0.243825
C28   C     C_3   0.165536 0.683786 0.624494 -0.678106
H18   H     H_    0.240881 0.625194 0.660258 0.226056
H19   H     H_    0.205679 0.762350 0.587884 0.267666
H20   H     H_    0.119951 0.742802 0.671713 0.239698

loop_
_geom_bond_atom_site_label_1
_geom_bond_atom_site_label_2
_ccdc_geom_bond_type
Cu1   O3    S    
O20   H4    S    
Cu2   O4    S    
C24   C28   S    
C26   H12   S    
S3    O16   D    
O14   H2    S    
C7    C11   A    
S1    O9    D    
S1    O11   S    
C18   S2    S    
C19   S3    S    
S5    O22   D    
C5    O8    A    
C17   C20   A    
C6    O7    A    
C18   C19   A    
C3    O1    A    
S6    O25   D    
Cu2   O6    S    
C5    O5    A    
O29   H7    S    
C28   H19   S    
S4    O20   S    
C25   H9    S    
C27   H16   S    
C1    C22   A    
C10   S6    S    
S2    O13   D    
S8    O32   S    
C26   H13   S    
S4    O19   D    
S3    O17   S    
C25   H10   S    
Cu1   O1    S    
S1    O10   D    
C8    S8    S    
S7    O27   D    
C22   C26   S    
S8    O31   D    
S5    O23   S    
Cu1   Cu2   S    
C27   H15   S    
C7    S7    S    
C6    O6    A    
O23   H5    S    
S7    O28   D    
S2    O14   S    
O32   H8    S    
S6    O24   D    
S3    O15   D    
C8    C12   A    
C2    C21   A    
O17   H3    S    
C17   S1    S    
C28   H20   S    
C19   N2    A    
Cu1   O7    S    
Cu2   O8    S    
O11   H1    S    
C12   C14   S    
Cu2   O2    S    
C21   C23   A    
C2    C24   A    
C22   C24   A    
S2    O12   D    
C26   H14   S    
S4    O18   D    
C27   H17   S    
C7    C9    A    
S6    O26   S    
C17   N2    A    
C18   N1    A    
S8    O30   D    
C1    C23   A    
C20   N1    A    
Cu1   N1    S    
Cu2   N2    S    
S7    O29   S    
C1    C4    S    
C2    C3    S    
C20   S4    S    
C11   C13   S    
S5    O21   D    
C25   H11   S    
C9    S5    S    
C3    O4    A    
C9    C12   A    
C5    C15   S    
C4    O3    A    
C10   C11   A    
C6    C16   S    
C8    C10   A    
O26   H6    S    
C23   C27   S    
C13   C16   T    
C21   C25   S    
C14   C15   T    
C28   H18   S    
C4    O2    A    
Cu1   O5    S    
