data_mof_unit_64809.cif
_audit_creation_date              2012-12-10T19:33:05-0500
_audit_creation_method            fapswitch 2.2
_symmetry_space_group_name_H-M    P1
_symmetry_Int_Tables_number       1
_space_group_crystal_system       triclinic
_cell_length_a                    21.634426
_cell_length_b                    21.638605
_cell_length_c                    21.981509
_cell_angle_alpha                 119.249334
_cell_angle_beta                  119.25511
_cell_angle_gamma                 89.574813
_cell_volume                      7462.64057033

loop_
_atom_site_label
_atom_site_type_symbol
_atom_type_description
_atom_site_fract_x
_atom_site_fract_y
_atom_site_fract_z
_atom_type_partial_charge
C1    C     C_R   0.500114 0.120292 0.500543 0.882728
C2    C     C_3   0.711975 0.301686 0.049192 -0.391580
C3    C     C_3   0.790623 0.292045 0.082208 0.344733
C4    C     C_3   0.782927 0.208972 0.049545 -0.386756
C5    C     C_3   0.734144 0.160218 0.952434 -0.391575
C6    C     C_1   0.836601 0.337875 0.173682 -0.116383
C7    C     C_1   0.662178 0.163547 0.826316 -0.117746
C8    C     C_1   0.624810 0.125806 0.751232 -0.177131
C9    C     C_R   0.435897 0.200616 0.461487 0.065359
C10   C     C_R   0.501312 0.187012 0.502746 -0.078013
C11   C     C_R   0.569355 0.240204 0.545739 -0.205346
C12   C     C_R   0.580833 0.081093 0.662196 0.901540
C13   C     C_R   0.569266 0.305135 0.546167 -0.209925
C14   C     C_R   0.501238 0.315425 0.501532 -0.087098
C15   C     C_R   0.435870 0.261441 0.459304 0.083156
C16   C     C_3   0.353206 0.241044 0.407750 0.090424
C17   C     C_3   0.353272 0.170518 0.409288 -0.484030
C18   C     C_3   0.252395 0.709952 0.049769 0.135985
C19   C     C_3   0.338721 0.784625 0.047181 -0.471093
C20   C     C_3   0.290016 0.735476 0.950115 -0.477320
C21   C     C_1   0.125459 0.624720 0.751131 -0.154969
C22   C     C_3   0.290392 0.790064 0.082337 0.216465
C23   C     C_R   0.500697 0.880290 0.500754 0.876717
C24   C     C_3   0.202920 0.661795 0.952440 -0.379408
C25   C     C_3   0.207571 0.707838 0.917704 0.220386
C26   C     C_3   0.181472 0.777061 0.951616 0.137720
C27   C     C_3   0.230119 0.825075 0.048947 -0.375772
C28   C     C_1   0.162547 0.662029 0.826185 -0.039108
C29   C     C_1   0.337207 0.836304 0.173825 -0.035694
C30   C     C_1   0.375076 0.874176 0.248867 -0.148329
C31   C     C_R   0.440069 0.750722 0.435804 0.106393
C32   C     C_R   0.501748 0.813720 0.499151 -0.084556
C33   C     C_R   0.567865 0.809259 0.555268 -0.212731
C34   C     C_R   0.419167 0.918938 0.337836 0.906793
C35   C     C_R   0.567870 0.744947 0.555275 -0.217813
C36   C     C_R   0.502343 0.684914 0.497355 -0.095057
C37   C     C_R   0.440660 0.686537 0.434333 0.146043
C38   C     C_3   0.361260 0.669311 0.406931 -0.497369
C39   C     C_3   0.360743 0.740408 0.408830 -0.453198
C40   C     C_R   0.880141 0.500112 0.499832 0.884158
C41   C     C_R   0.919087 0.419176 0.337801 0.902991
C42   C     C_R   0.119850 0.499215 0.499113 0.874331
C43   C     C_R   0.081266 0.580806 0.662162 0.906018
C44   C     C_R   0.620061 0.499818 0.499630 0.880501
C45   C     C_3   0.663181 0.252918 0.952055 -0.388872
C46   C     C_R   0.499795 0.380148 0.500411 0.885994
C47   C     C_R   0.379889 0.500200 0.500429 0.874547
C48   C     C_R   0.499771 0.620149 0.499500 0.873056
C49   C     C_R   0.805399 0.562942 0.549765 0.119893
C50   C     C_R   0.813459 0.498986 0.497328 -0.090370
C51   C     C_R   0.754648 0.432318 0.442504 -0.213094
C52   C     C_R   0.689645 0.432337 0.442014 -0.212676
C53   C     C_R   0.684872 0.498510 0.498250 -0.095013
C54   C     C_R   0.744340 0.562378 0.551431 0.126632
C55   C     C_3   0.772744 0.642835 0.619367 -0.478973
C56   C     C_3   0.777468 0.266049 0.949825 -0.388087
C57   C     C_3   0.843352 0.643292 0.618107 -0.456271
C58   C     C_R   0.248659 0.560864 0.562515 0.103695
C59   C     C_R   0.186480 0.498213 0.500834 -0.084807
C60   C     C_R   0.191912 0.431570 0.446651 -0.209519
C61   C     C_R   0.256194 0.431592 0.446589 -0.214086
C62   C     C_R   0.315209 0.497750 0.502588 -0.098932
C63   C     C_R   0.312859 0.560343 0.564032 0.145839
C64   C     C_3   0.328377 0.638721 0.587898 -0.501062
C65   C     C_3   0.257235 0.639157 0.585914 -0.466853
C66   C     C_3   0.826255 0.314807 0.046946 -0.387226
C67   C     C_1   0.874360 0.375224 0.248767 -0.175482
C68   C     C_3   0.708032 0.209501 0.917791 0.346306
H1    H     H_    0.716028 0.361033 0.071815 0.171579
H2    H     H_    0.612932 0.213421 0.929904 0.171148
H3    H     H_    0.685156 0.285611 0.073693 0.169675
H4    H     H_    0.838810 0.200585 0.072428 0.173855
H5    H     H_    0.621917 0.232034 0.579345 0.163431
H6    H     H_    0.621588 0.346281 0.579826 0.156178
H7    H     H_    0.331279 0.280070 0.442358 0.116004
H8    H     H_    0.331350 0.168773 0.444990 0.188199
H9    H     H_    0.332116 0.117918 0.347634 0.232684
H10   H     H_    0.222072 0.612575 0.928752 0.147394
H11   H     H_    0.643802 0.288844 0.928023 0.170289
H12   H     H_    0.296298 0.684386 0.071192 0.123112
H13   H     H_    0.366505 0.841078 0.069035 0.195600
H14   H     H_    0.383271 0.760507 0.070824 0.184333
H15   H     H_    0.310579 0.687226 0.927238 0.192459
H16   H     H_    0.295278 0.768042 0.925424 0.183811
H17   H     H_    0.195305 0.831183 0.074372 0.245600
H18   H     H_    0.257179 0.882136 0.071635 0.153499
H19   H     H_    0.144204 0.639827 0.928995 0.243174
H20   H     H_    0.810702 0.236143 0.926029 0.173818
H21   H     H_    0.188139 0.811207 0.929120 0.128215
H22   H     H_    0.617831 0.856523 0.601519 0.155784
H23   H     H_    0.617851 0.742783 0.601429 0.159135
H24   H     H_    0.325110 0.618265 0.342660 0.218964
H25   H     H_    0.354676 0.671429 0.454946 0.190542
H26   H     H_    0.324232 0.730398 0.345657 0.222577
H27   H     H_    0.353958 0.783880 0.458092 0.216152
H28   H     H_    0.758730 0.381096 0.400133 0.159040
H29   H     H_    0.644243 0.381087 0.399404 0.163930
H30   H     H_    0.739976 0.675612 0.597184 0.195966
H31   H     H_    0.760120 0.302214 0.925759 0.171006
H32   H     H_    0.782120 0.652213 0.678053 0.223874
H33   H     H_    0.851737 0.676779 0.595779 0.211305
H34   H     H_    0.893345 0.652414 0.675840 0.227788
H35   H     H_    0.145357 0.381043 0.401799 0.162153
H36   H     H_    0.259113 0.381102 0.401858 0.183739
H37   H     H_    0.379288 0.676562 0.651879 0.209719
H38   H     H_    0.325498 0.643109 0.538306 0.192866
H39   H     H_    0.267071 0.677339 0.648743 0.200216
H40   H     H_    0.212977 0.643687 0.535017 0.219477
H41   H     H_    0.832333 0.374388 0.069530 0.173185
H42   H     H_    0.882911 0.308310 0.069790 0.173292
H43   H     H_    0.685153 0.119077 0.930294 0.169771
H44   H     H_    0.766600 0.128420 0.928681 0.172560
H45   H     H_    0.757368 0.191242 0.074048 0.170607
O1    O     O_R   0.448270 0.091610 0.500010 -0.621752
O2    O     O_R   0.908540 0.448310 0.500030 -0.620436
O3    O     O_R   0.938770 0.490290 0.377140 -0.615817
O4    O     O_R   0.938740 0.386860 0.377150 -0.620339
O5    O     O_R   0.091820 0.551690 0.499970 -0.624151
O6    O     O_R   0.091790 0.448250 0.499980 -0.622611
O7    O     O_R   0.061630 0.613140 0.622850 -0.615399
O8    O     O_R   0.061600 0.509710 0.622860 -0.613776
O9    O     O_R   0.626360 0.534710 0.569400 -0.623331
O10   O     O_R   0.557050 0.465350 0.430680 -0.622276
O11   O     O_R   0.534700 0.443070 0.569360 -0.630541
O12   O     O_R   0.551720 0.091610 0.499980 -0.624925
O13   O     O_R   0.465400 0.373710 0.430650 -0.580159
O14   O     O_R   0.443050 0.534650 0.569320 -0.623696
O15   O     O_R   0.373740 0.465290 0.430600 -0.608161
O16   O     O_R   0.534700 0.626290 0.569350 -0.626345
O17   O     O_R   0.465390 0.556930 0.430640 -0.618652
O18   O     O_R   0.509700 0.061430 0.622870 -0.617857
O19   O     O_R   0.613150 0.061430 0.622840 -0.620096
O20   O     O_R   0.448280 0.908390 0.500020 -0.622510
O21   O     O_R   0.551730 0.908390 0.499990 -0.621493
O22   O     O_R   0.386850 0.938570 0.377160 -0.602645
O23   O     O_R   0.490300 0.938570 0.377130 -0.619683
O24   O     O_R   0.908570 0.551750 0.500020 -0.621196
Zn1   Zn    Zn3+2 0.430930 0.000000 0.500020 0.971246
Zn2   Zn    Zn3+2 0.569070 0.000000 0.499980 0.963323
Zn3   Zn    Zn3+2 0.000200 0.569060 0.500000 0.962682
Zn4   Zn    Zn3+2 0.000160 0.430940 0.500000 0.967928
Zn5   Zn    Zn3+2 0.546320 0.546310 0.592620 0.959095
Zn6   Zn    Zn3+2 0.453780 0.453690 0.407380 1.010751
Br1   Br    Br    0.314828 0.220501 0.297244 -0.494055
Br2   Br    Br    0.075997 0.750714 0.909484 -0.513183
Br3   Br    Br    0.194530 0.708549 0.095329 -0.506721

loop_
_geom_bond_atom_site_label_1
_geom_bond_atom_site_label_2
_ccdc_geom_bond_type
O22   Zn1   S    
O2    Zn4   S    
C22   C29   S    
C46   O11   A    
C16   H7    S    
C52   H29   S    
C35   C36   A    
C3    C6    S    
C48   O17   A    
C47   C62   S    
C47   O15   A    
C14   C46   S    
C53   C54   A    
O12   Zn2   S    
C26   H21   S    
C57   H34   S    
C26   C27   S    
C29   C30   T    
C18   C24   S    
C36   C37   A    
C16   Br1   S    
C2    H1    S    
C1    O12   A    
C5    C68   S    
C38   C39   S    
C40   C50   S    
C42   O6    A    
C56   H20   S    
C40   O2    A    
C20   C25   S    
C49   C54   A    
C38   H24   S    
O13   Zn6   S    
C49   C57   S    
C38   H25   S    
C27   H17   S    
C7    C68   S    
C21   C43   S    
C44   C53   S    
C19   C20   S    
C16   C17   S    
C64   C65   S    
C55   H32   S    
C17   H8    S    
C36   C48   S    
O7    Zn3   S    
C60   H35   S    
C9    C10   A    
C43   O8    A    
C65   H40   S    
C43   O7    A    
C59   C60   A    
C13   C14   A    
O11   Zn5   S    
C45   C68   S    
O23   Zn2   S    
O5    Zn3   S    
C24   H19   S    
C2    C45   S    
O24   Zn3   S    
C23   O20   A    
C51   C52   A    
O8    Zn4   S    
C4    H45   S    
C7    C8    T    
C19   C22   S    
C24   C25   S    
C41   C67   S    
C11   H5    S    
C12   O18   A    
O21   Zn2   S    
C30   C34   S    
C42   O5    A    
O16   Zn5   S    
C5    H43   S    
C58   C59   A    
C56   C68   S    
C3    C4    S    
C31   C37   A    
C60   C61   A    
C25   C28   S    
O14   Zn5   S    
C27   H18   S    
O4    Zn4   S    
C39   H26   S    
C37   C38   S    
C58   C65   S    
C31   C32   A    
C34   O23   A    
C8    C12   S    
C40   O24   A    
C61   H36   S    
C62   C63   A    
C17   H9    S    
C50   C51   A    
C45   H11   S    
C66   H42   S    
C64   H38   S    
O17   Zn6   S    
C39   H27   S    
C9    C17   S    
C6    C67   T    
C21   C28   T    
C22   C27   S    
C20   H16   S    
O6    Zn4   S    
C48   O16   A    
C3    C66   S    
C1    O1    A    
O9    Zn5   S    
C41   O3    A    
C2    H3    S    
C19   H14   S    
C4    H4    S    
C52   C53   A    
C24   H10   S    
C58   C63   A    
C54   C55   S    
C12   O19   A    
C23   O21   A    
C64   H37   S    
C45   H2    S    
C18   C22   S    
C46   O13   A    
C1    C10   S    
C26   Br2   S    
C4    C5    S    
C18   Br3   S    
C42   C59   S    
C47   O14   A    
C5    H44   S    
C57   H33   S    
C51   H28   S    
C44   O10   A    
C32   C33   A    
C55   C57   S    
O19   Zn2   S    
C25   C26   S    
O18   Zn1   S    
C33   H22   S    
C23   C32   S    
C11   C13   A    
C34   O22   A    
C56   C66   S    
C55   H30   S    
C44   O9    A    
C33   C35   A    
C31   C39   S    
C2    C3    S    
O1    Zn1   S    
C66   H41   S    
C9    C15   A    
C61   C62   A    
O15   Zn6   S    
C10   C11   A    
C63   C64   S    
O20   Zn1   S    
C13   H6    S    
C18   H12   S    
C49   C50   A    
C20   H15   S    
O10   Zn6   S    
C14   C15   A    
C56   H31   S    
C41   O4    A    
C19   H13   S    
C65   H39   S    
C15   C16   S    
O3    Zn3   S    
C35   H23   S    
