data_mof_unit_40573.cif
_audit_creation_date              2012-12-11T14:46:34-0500
_audit_creation_method            fapswitch 2.2
_symmetry_space_group_name_H-M    P1
_symmetry_Int_Tables_number       1
_space_group_crystal_system       triclinic
_cell_length_a                    17.333158
_cell_length_b                    17.699071
_cell_length_c                    6.93572
_cell_angle_alpha                 89.832369
_cell_angle_beta                  90.657894
_cell_angle_gamma                 90.307384
_cell_volume                      2127.56607768

loop_
_atom_site_label
_atom_site_type_symbol
_atom_type_description
_atom_site_fract_x
_atom_site_fract_y
_atom_site_fract_z
_atom_type_partial_charge
O1    O     O_R   0.796490 0.328940 0.373020 -0.516330
O2    O     O_R   0.203510 0.671060 0.626980 -0.512458
O3    O     O_R   0.203510 0.828940 0.626980 -0.521142
O4    O     O_R   0.796490 0.171060 0.373020 -0.516181
O5    O     O_R   0.805560 0.173330 0.702970 -0.508356
O6    O     O_R   0.194440 0.826670 0.297030 -0.515476
O7    O     O_R   0.194440 0.673330 0.297030 -0.499526
O8    O     O_R   0.805560 0.326670 0.702970 -0.511507
O9    O     O_R   0.658440 0.172360 0.870170 -0.540858
O10   O     O_R   0.341560 0.827640 0.129830 -0.534771
O11   O     O_R   0.341560 0.672360 0.129830 -0.541857
O12   O     O_R   0.658440 0.327640 0.870170 -0.545412
C1    C     C_R   0.827955 0.150370 0.533977 0.916252
C2    C     C_R   0.173145 0.850845 0.463812 0.905255
C3    C     C_R   0.175172 0.646838 0.465784 0.901461
C4    C     C_R   0.824494 0.353469 0.536242 0.890055
O13   O     O_3   0.679200 0.250000 0.537050 -0.403396
O14   O     O_3   0.320800 0.750000 0.462950 -0.404262
V1    V     V_3+5 0.736420 0.250000 0.813120 1.721750
V2    V     V_3+5 0.263580 0.750000 0.186880 1.738381
O15   O     O_R   0.649370 0.327980 0.199650 -0.539703
O16   O     O_R   0.350630 0.672020 0.800350 -0.543556
O17   O     O_R   0.350630 0.827980 0.800350 -0.547514
O18   O     O_R   0.649370 0.172020 0.199650 -0.542108
C5    C     C_R   0.630435 0.354337 0.029666 0.738759
C6    C     C_R   0.369487 0.645598 0.970333 0.740332
C7    C     C_R   0.369611 0.854226 0.969991 0.738359
C8    C     C_R   0.630507 0.145672 0.030030 0.741539
V3    V     V_3+5 0.718510 0.250000 0.312740 1.670517
V4    V     V_3+5 0.281490 0.750000 0.687260 1.663166
O19   O     O_3   0.775740 0.250000 0.038930 -0.331854
O20   O     O_3   0.224260 0.750000 0.961070 -0.329417
C9    C     C_1   0.574179 0.083179 0.017933 -0.119254
C10   C     C_1   0.426094 0.916596 0.982067 -0.104216
C11   C     C_1   0.425839 0.583111 0.982917 -0.123275
C12   C     C_1   0.573969 0.416735 0.017181 -0.103519
C13   C     C_1   0.527589 0.030794 0.006733 0.060244
C14   C     C_1   0.472740 0.968937 0.993176 0.065098
C15   C     C_1   0.472419 0.530820 0.993702 0.058008
C16   C     C_1   0.527346 0.468992 0.006492 0.061193
C17   C     C_R   0.884597 0.088228 0.523836 -0.307038
C18   C     C_R   0.117390 0.913977 0.464076 -0.313219
C19   C     C_R   0.118372 0.583830 0.477347 -0.284926
C20   C     C_R   0.881106 0.416769 0.534034 -0.286524
C21   C     C_R   0.093871 0.048905 0.439480 -0.076669
C22   C     C_R   0.910425 0.953942 0.556981 -0.073407
C23   C     C_R   0.909321 0.551948 0.536577 -0.079108
C24   C     C_R   0.088675 0.449151 0.455939 -0.125885
C25   C     C_R   0.145671 0.988807 0.451789 0.357633
C26   C     C_R   0.860747 0.014972 0.580206 0.367180
C27   C     C_R   0.855560 0.492504 0.518263 0.372559
C28   C     C_R   0.139254 0.509904 0.420084 0.392908
C29   C     C_R   0.036127 0.901550 0.466166 0.407918
C30   C     C_R   0.960833 0.099090 0.450748 0.408529
C31   C     C_R   0.961131 0.403037 0.559654 0.406248
C32   C     C_R   0.044785 0.594886 0.561172 0.413825
C33   C     C_R   0.986785 0.964079 0.496886 -0.090913
C34   C     C_R   0.014057 0.038120 0.463275 -0.089239
C35   C     C_R   0.013322 0.462312 0.518668 -0.105930
C36   C     C_R   0.988767 0.537205 0.539581 -0.087885
H1    H     H_    0.117610 0.104538 0.419679 0.244846
H2    H     H_    0.889853 0.898600 0.596404 0.238119
H3    H     H_    0.889559 0.609800 0.533735 0.237638
H4    H     H_    0.106095 0.392132 0.422299 0.241741
S1    S     S_3+6 0.988333 0.180851 0.312930 0.073781
O21   O     O_2   0.924027 0.235608 0.277769 -0.316600
O22   O     O_2   0.053537 0.221972 0.412023 -0.276599
O23   O     O_3   0.019592 0.150431 0.098097 -0.477030
H5    H     H_    0.041900 0.195726 0.035166 0.420688
S2    S     S_3+6 0.993356 0.817150 0.370757 0.042667
O24   O     O_2   0.051794 0.761864 0.299809 -0.339315
O25   O     O_2   0.943807 0.779206 0.518990 -0.291043
O26   O     O_3   0.936571 0.842630 0.183537 -0.470239
H6    H     H_    0.902211 0.798647 0.160004 0.386303
S3    S     S_3+6 0.036001 0.656342 0.763336 0.092153
O27   O     O_2   0.081508 0.622042 0.927056 -0.313811
O28   O     O_2   0.068469 0.733413 0.722668 -0.301349
O29   O     O_3   0.943886 0.664973 0.833283 -0.463830
H7    H     H_    0.947091 0.685759 0.965561 0.391485
S4    S     S_3+6 0.991033 0.334188 0.732459 0.084151
O30   O     O_2   0.968675 0.362119 0.928500 -0.313705
O31   O     O_2   0.951234 0.259866 0.699704 -0.308563
O32   O     O_3   0.087060 0.320700 0.731884 -0.445606
H8    H     H_    0.108836 0.360399 0.817307 0.373998
S5    S     S_3+6 0.767227 0.996632 0.672506 0.038340
O33   O     O_2   0.750645 0.913173 0.676220 -0.286010
O34   O     O_2   0.763645 0.026849 0.874470 -0.331290
O35   O     O_3   0.700010 0.039636 0.534687 -0.514433
H9    H     H_    0.651125 0.033268 0.605657 0.348786
S6    S     S_3+6 0.245764 0.009053 0.434304 0.035546
O36   O     O_2   0.275003 0.977556 0.248152 -0.342202
O37   O     O_2   0.260380 0.092851 0.438290 -0.281412
O38   O     O_3   0.293346 0.968653 0.619744 -0.505757
H10   H     H_    0.348687 0.976707 0.591582 0.352172
S7    S     S_3+6 0.230303 0.490968 0.317848 0.036393
O39   O     O_2   0.243733 0.407274 0.305866 -0.285743
O40   O     O_2   0.232217 0.524317 0.118412 -0.324206
O41   O     O_3   0.300519 0.530621 0.453675 -0.519243
H11   H     H_    0.348302 0.524145 0.378650 0.350828
S8    S     S_3+6 0.756561 0.514367 0.489111 0.036358
O42   O     O_2   0.744284 0.598352 0.494622 -0.282491
O43   O     O_2   0.728563 0.484277 0.298246 -0.338672
O44   O     O_3   0.706183 0.473330 0.667025 -0.509733
H12   H     H_    0.651326 0.480537 0.630191 0.352414

loop_
_geom_bond_atom_site_label_1
_geom_bond_atom_site_label_2
_ccdc_geom_bond_type
O10   C7    A    
O38   H10   S    
C31   C35   A    
O13   V3    S    
O26   H6    S    
S7    O39   D    
C25   S6    S    
V1    O19   S    
C1    C17   S    
S6    O36   D    
S7    O41   S    
C30   S1    S    
S5    O33   D    
S6    O38   S    
C18   C29   A    
C23   H3    S    
C19   C28   A    
C24   H4    S    
C28   S7    S    
O4    C1    A    
O18   V3    S    
C26   S5    S    
C23   C36   A    
O9    V1    S    
O10   V2    S    
O23   H5    S    
S1    O22   D    
S2    O24   D    
O14   V4    S    
O17   C7    A    
C4    C20   S    
O5    C1    A    
O4    V3    S    
C2    C18   S    
O7    C3    A    
C35   C36   A    
O8    C4    A    
C32   S3    S    
S4    O32   S    
C29   S2    S    
O1    V3    S    
V2    O20   S    
S5    O34   D    
C7    C10   S    
C21   C34   A    
O11   V2    S    
O8    V1    S    
O17   V4    S    
C12   C16   T    
S4    O31   D    
C15   C16   S    
C29   C33   A    
O29   H7    S    
C23   C27   A    
C5    C12   S    
O11   C6    A    
O15   V3    S    
O7    V2    S    
S8    O44   S    
C9    C13   T    
C32   C36   A    
O3    V4    S    
C11   C15   T    
S3    O27   D    
C13   C14   S    
O6    C2    A    
C19   C32   A    
S6    O37   D    
O32   H8    S    
C21   C25   A    
S1    O23   S    
S2    O26   S    
S8    O43   D    
O1    C4    A    
O2    C3    A    
S3    O28   D    
O3    C2    A    
C20   C27   A    
C22   H2    S    
C8    C9    S    
O41   H11   S    
C22   C33   A    
C17   C26   A    
C24   C35   A    
C30   C34   A    
S5    O35   S    
C27   S8    S    
O15   C5    A    
O16   V4    S    
C10   C14   T    
O18   C8    A    
S4    O30   D    
S7    O40   D    
O5    V1    S    
O6    V2    S    
C22   C26   A    
O12   C5    A    
O2    V4    S    
C3    C19   S    
V3    O19   S    
V4    O20   S    
C31   S4    S    
C20   C31   A    
C33   C34   A    
O12   V1    S    
C21   H1    S    
S8    O42   D    
O13   V1    S    
O14   V2    S    
S3    O29   S    
C17   C30   A    
C18   C25   A    
C6    C11   S    
C24   C28   A    
O35   H9    S    
S1    O21   D    
O16   C6    A    
O44   H12   S    
S2    O25   D    
O9    C8    A    
