data_mof_unit_23513.cif
_audit_creation_date              2012-12-10T18:23:14-0500
_audit_creation_method            fapswitch 2.2
_symmetry_space_group_name_H-M    P1
_symmetry_Int_Tables_number       1
_space_group_crystal_system       triclinic
_cell_length_a                    27.825932
_cell_length_b                    10.60208
_cell_length_c                    9.438674
_cell_angle_alpha                 90.001034
_cell_angle_beta                  89.978038
_cell_angle_gamma                 89.91282
_cell_volume                      2784.52581206

loop_
_atom_site_label
_atom_site_type_symbol
_atom_type_description
_atom_site_fract_x
_atom_site_fract_y
_atom_site_fract_z
_atom_type_partial_charge
C1    C     C_R   0.499989 0.259501 0.500137 0.787388
C2    C     C_R   0.500009 0.740499 0.499863 0.787464
C3    C     C_R   0.102216 0.495244 0.498860 -0.062707
C4    C     C_R   0.897877 0.507475 0.497446 -0.062996
C5    C     C_R   0.127691 0.381205 0.472245 -0.084101
C6    C     C_R   0.872299 0.618240 0.537248 -0.083029
C7    C     C_R   0.101176 0.268602 0.444908 0.139595
C8    C     C_R   0.898697 0.728715 0.574652 0.139195
C9    C     C_R   0.127994 0.607574 0.524764 -0.005078
C10   C     C_R   0.872212 0.398749 0.455842 -0.005433
C11   C     C_R   0.354641 0.499933 0.500144 -0.038013
C12   C     C_R   0.645357 0.500123 0.499595 -0.038694
C13   C     C_R   0.973899 0.391897 0.460734 0.064778
C14   C     C_R   0.026232 0.612638 0.529429 0.065437
C15   C     C_R   0.975027 0.613779 0.535786 -0.010959
C16   C     C_R   0.025003 0.387273 0.469196 -0.010935
C17   C     C_R   0.949062 0.504585 0.497934 0.071343
C18   C     C_R   0.051023 0.498245 0.499047 0.070956
C19   C     C_R   0.946616 0.287743 0.413291 -0.216767
C20   C     C_R   0.053712 0.723105 0.550298 -0.213281
C21   C     C_R   0.896942 0.290918 0.412487 -0.159409
C22   C     C_R   0.103385 0.720145 0.549033 -0.159974
C23   C     C_R   0.407566 0.500145 0.500034 0.793907
C24   C     C_R   0.592433 0.499820 0.499945 0.794074
C25   C     C_R   0.050739 0.273992 0.449618 -0.191421
C26   C     C_R   0.949079 0.721531 0.578933 -0.191927
C27   C     C_3   0.499262 0.040709 0.634786 -0.141239
C28   C     C_3   0.500734 0.959291 0.365214 -0.141302
C29   C     C_3   0.539144 0.957861 0.568733 -0.159688
C30   C     C_3   0.460852 0.042138 0.431267 -0.159123
C31   C     C_3   0.500036 0.877468 0.499242 0.017638
C32   C     C_3   0.499960 0.122531 0.500758 0.017715
C33   C     C_3   0.460160 0.958011 0.565134 -0.171980
C34   C     C_3   0.539836 0.041988 0.434866 -0.172613
C35   C     C_3   0.516391 0.605744 0.051070 -0.088996
C36   C     C_3   0.483613 0.394252 0.948932 -0.088725
C37   C     C_3   0.473516 0.589166 0.951317 0.281763
C38   C     C_3   0.526490 0.410844 0.048681 0.280959
C39   C     C_3   0.543127 0.515962 0.949108 -0.075192
C40   C     C_3   0.456874 0.484048 0.050886 -0.074610
C41   C     C_R   0.178871 0.385466 0.476000 0.521799
C42   C     C_R   0.821140 0.612458 0.538632 0.522282
C43   C     C_R   0.178197 0.606111 0.524203 0.530505
C44   C     C_R   0.822006 0.399855 0.456540 0.530090
C45   C     C_R   0.278981 0.505264 0.628439 -0.103398
C46   C     C_R   0.720854 0.503110 0.370475 -0.106667
C47   C     C_R   0.329089 0.505981 0.628568 -0.225784
C48   C     C_R   0.670765 0.501714 0.370785 -0.226308
C49   C     C_R   0.329119 0.493244 0.371805 -0.218961
C50   C     C_R   0.671018 0.499390 0.627912 -0.221502
C51   C     C_R   0.279027 0.492004 0.372080 -0.109341
C52   C     C_R   0.721121 0.500868 0.627251 -0.102730
C53   C     C_R   0.253859 0.498004 0.500286 0.374878
C54   C     C_R   0.746173 0.502967 0.498604 0.369838
Cu1   Cu    Cu3+1 0.500010 0.499990 0.643150 0.926943
Cu2   Cu    Cu3+1 0.499990 0.500010 0.356850 0.926663
H1    H     H_    0.347769 0.488551 0.271244 0.146883
H2    H     H_    0.652467 0.497833 0.728756 0.147243
H3    H     H_    0.498559 0.076524 0.745297 0.130237
H4    H     H_    0.501436 0.923474 0.254703 0.130250
H5    H     H_    0.427649 0.920262 0.618479 0.134727
H6    H     H_    0.572348 0.079734 0.381523 0.134529
H7    H     H_    0.031566 0.186977 0.442027 0.155881
H8    H     H_    0.967855 0.801109 0.620610 0.157348
N1    N     N_R   0.202341 0.496503 0.500214 -0.460684
N2    N     N_R   0.797728 0.505135 0.497963 -0.459759
N3    N     N_3   0.500040 0.499970 0.858290 -0.185031
N4    N     N_3   0.499960 0.500030 0.141710 -0.185073
O1    O     O_R   0.500020 0.316850 0.620870 -0.580706
O2    O     O_R   0.499980 0.683150 0.379130 -0.580721
O3    O     O_R   0.500000 0.316860 0.379090 -0.595967
O4    O     O_R   0.500000 0.683140 0.620910 -0.595847
O5    O     O_R   0.430270 0.500020 0.620880 -0.593865
O6    O     O_R   0.569730 0.499980 0.379120 -0.594309
O7    O     O_R   0.430250 0.500030 0.379090 -0.581054
O8    O     O_R   0.569750 0.499970 0.620910 -0.580946
O9    O     O_2   0.205522 0.280520 0.457980 -0.566639
O10   O     O_2   0.794474 0.711755 0.580759 -0.569900
O11   O     O_2   0.797420 0.295783 0.417470 -0.545813
O12   O     O_2   0.202919 0.713729 0.547004 -0.543319
C55   C     C_3   0.442599 0.697650 0.895268 -0.395469
C56   C     C_3   0.415030 0.762382 0.014748 -0.889452
H9    H     H_    0.389629 0.695361 0.065300 0.255557
H10   H     H_    0.440281 0.798908 0.096045 0.255780
H11   H     H_    0.394147 0.842814 0.971156 0.252648
H12   H     H_    0.466107 0.768686 0.844052 0.217142
H13   H     H_    0.416549 0.661408 0.816443 0.222321
C57   C     C_3   0.557498 0.302534 0.104725 -0.394709
C58   C     C_3   0.584961 0.237622 0.985153 -0.889592
H14   H     H_    0.559637 0.200887 0.904175 0.255505
H15   H     H_    0.610291 0.304589 0.934203 0.254842
H16   H     H_    0.605912 0.157315 0.028752 0.252822
H17   H     H_    0.583628 0.339021 0.183206 0.223320
H18   H     H_    0.534069 0.231538 0.156318 0.217119
H19   H     H_    0.529940 0.694805 0.098173 0.123492
H20   H     H_    0.470066 0.305189 0.901833 0.123670
H21   H     H_    0.579371 0.529686 0.902626 0.121622
H22   H     H_    0.420629 0.470344 0.097352 0.120978
H23   H     H_    0.259691 0.486578 0.272729 0.133212
H24   H     H_    0.740550 0.500321 0.726635 0.137674
C59   C     C_3   0.126209 0.143610 0.409120 -0.302480
C60   C     C_3   0.094214 0.032382 0.366820 -0.910785
H25   H     H_    0.071602 0.002431 0.457561 0.243012
H26   H     H_    0.071316 0.057565 0.274638 0.260100
H27   H     H_    0.117166 0.951103 0.335934 0.267154
H28   H     H_    0.150442 0.159725 0.317310 0.243153
H29   H     H_    0.147702 0.112783 0.502115 0.245299
C61   C     C_3   0.873641 0.854383 0.607506 -0.303996
C62   C     C_3   0.905580 0.970929 0.626395 -0.903597
H30   H     H_    0.927649 0.962656 0.723985 0.253917
H31   H     H_    0.929000 0.984705 0.532287 0.250709
H32   H     H_    0.882534 0.055983 0.637753 0.267267
H33   H     H_    0.849322 0.877325 0.517736 0.245850
H34   H     H_    0.852189 0.843799 0.706085 0.241465
H35   H     H_    0.652022 0.502292 0.270247 0.153210
H36   H     H_    0.347726 0.511213 0.729088 0.151951
H37   H     H_    0.740068 0.504848 0.270706 0.137484
H38   H     H_    0.259614 0.509811 0.727842 0.134913
H39   H     H_    0.877922 0.207712 0.376601 0.188289
H40   H     H_    0.122532 0.807642 0.566868 0.189819
H41   H     H_    0.962372 0.202494 0.372050 0.135932
H42   H     H_    0.038183 0.815100 0.564850 0.130940
H43   H     H_    0.571116 0.920106 0.624949 0.136061
H44   H     H_    0.428880 0.079894 0.375052 0.136052

loop_
_geom_bond_atom_site_label_1
_geom_bond_atom_site_label_2
_ccdc_geom_bond_type
C45   H38   S    
C59   H29   S    
Cu1   Cu2   S    
C59   C60   S    
C16   C25   A    
C27   C29   S    
C8    C26   A    
C14   C18   A    
C11   C47   A    
C12   C48   A    
C55   C56   S    
C36   N3    S    
C27   C33   S    
C22   H40   S    
C1    O3    A    
C3    C18   A    
C11   C49   A    
C35   C37   S    
C37   C40   S    
C62   H31   S    
C40   H22   S    
C38   C39   S    
C41   O9    S    
C9    C22   A    
C39   H21   S    
C37   N3    S    
C34   H6    S    
C49   H1    S    
C61   C62   S    
C60   H27   S    
C25   H7    S    
C61   H34   S    
C26   H8    S    
C44   N2    A    
C49   C51   A    
C50   C52   A    
C31   C33   S    
C58   H15   S    
C53   N1    S    
C20   H42   S    
Cu1   O4    S    
C28   H4    S    
C28   C34   S    
Cu2   O7    S    
C29   C31   S    
C37   C55   S    
C23   O5    A    
C2    O4    A    
C8    C61   S    
C52   C54   A    
C57   H18   S    
C45   C47   A    
C10   C21   A    
C51   H23   S    
C47   H36   S    
C46   C48   A    
C9    C43   A    
Cu2   O6    S    
C13   C19   A    
C10   C44   A    
C50   H2    S    
C14   C20   A    
C36   C40   S    
C4    C6    A    
C62   H32   S    
C23   O7    A    
C5    C7    A    
C24   O8    A    
C15   C26   A    
C6    C8    A    
C43   O12   S    
Cu2   N4    S    
C29   C34   S    
C52   H24   S    
C1    C32   S    
C1    O1    A    
C46   H37   S    
C38   C57   S    
C2    C31   S    
C51   C53   A    
C32   C34   S    
C61   H33   S    
C35   C39   S    
C3    C9    A    
C36   H20   S    
Cu1   N3    S    
C20   C22   A    
C43   N1    A    
Cu2   O3    S    
C46   C54   A    
Cu1   O1    S    
C58   H16   S    
C60   H26   S    
C55   H13   S    
C48   H35   S    
C4    C17   A    
C16   C18   A    
C30   H44   S    
C42   O10   S    
Cu2   O2    S    
C40   N4    S    
C28   C31   S    
C6    C42   A    
Cu1   O8    S    
C4    C10   A    
C59   H28   S    
C15   C17   A    
C5    C41   A    
C57   H17   S    
C19   H41   S    
C30   C33   S    
C19   C21   A    
C27   C32   S    
C39   N3    S    
C44   O11   S    
C55   H12   S    
C38   N4    S    
C3    C5    A    
C12   C50   A    
C54   N2    S    
C35   H19   S    
C56   H11   S    
C12   C24   S    
C56   H10   S    
C7    C25   A    
C13   C17   A    
C36   C38   S    
C28   C30   S    
C21   H39   S    
C27   H3    S    
C62   H30   S    
C30   C32   S    
C24   O6    A    
C35   N4    S    
C29   H43   S    
C11   C23   S    
C41   N1    A    
C60   H25   S    
C45   C53   A    
Cu1   O5    S    
C57   C58   S    
C33   H5    S    
C56   H9    S    
C7    C59   S    
C13   C16   A    
C42   N2    A    
C14   C15   A    
C58   H14   S    
C2    O2    A    
