data_mof_unit_60814.cif
_audit_creation_date              2012-12-10T17:07:10-0500
_audit_creation_method            fapswitch 2.2
_symmetry_space_group_name_H-M    P1
_symmetry_Int_Tables_number       1
_space_group_crystal_system       triclinic
_cell_length_a                    10.06448
_cell_length_b                    10.750012
_cell_length_c                    13.623106
_cell_angle_alpha                 89.99967
_cell_angle_beta                  82.993529
_cell_angle_gamma                 90.062324
_cell_volume                      1462.92091657

loop_
_atom_site_label
_atom_site_type_symbol
_atom_type_description
_atom_site_fract_x
_atom_site_fract_y
_atom_site_fract_z
_atom_type_partial_charge
C1    C     C_R   0.500556 0.737187 0.497891 0.929612
C2    C     C_R   0.499668 0.262796 0.502188 0.927654
C3    C     C_R   0.524002 0.500078 0.314387 0.895463
C4    C     C_1   0.542234 0.500202 0.210535 -0.171381
C5    C     C_2   0.557780 0.500353 0.018784 -0.159381
C6    C     C_2   0.442318 0.499859 0.981198 -0.158171
C7    C     C_1   0.446100 0.499881 0.877285 0.007797
C8    C     C_1   0.553979 0.500295 0.122701 0.011756
C9    C     C_1   0.905559 0.601020 0.444907 0.330866
C10   C     C_1   0.457807 0.499934 0.789454 -0.181040
C11   C     C_2   0.612437 0.067041 0.497489 -0.156460
C12   C     C_2   0.498187 0.131221 0.511382 -0.329943
C13   C     C_2   0.611566 0.933142 0.503268 -0.151952
C14   C     C_2   0.502232 0.868724 0.488732 -0.326136
C15   C     C_2   0.062510 0.477346 0.575678 -0.140503
C16   C     C_2   0.916063 0.456600 0.569199 -0.141904
C17   C     C_R   0.476008 0.500013 0.685609 0.892230
H1    H     H_    0.346447 0.499431 0.027647 0.160734
H2    H     H_    0.653653 0.500775 0.972336 0.159064
H3    H     H_    0.709118 0.112834 0.482627 0.178443
H4    H     H_    0.401304 0.088444 0.532292 0.153210
H5    H     H_    0.703140 0.887550 0.518600 0.180894
H6    H     H_    0.412500 0.911305 0.467386 0.155030
H7    H     H_    0.098174 0.468253 0.647285 0.166236
H8    H     H_    0.116592 0.485022 0.430714 0.183140
H9    H     H_    0.860400 0.403123 0.628024 0.158277
N1    N     N_2   0.147970 0.498670 0.498970 -0.187275
N2    N     N_2   0.852310 0.498640 0.498940 -0.145718
N3    N     N_1   0.949052 0.686296 0.399996 -0.252590
O1    O     O_R   0.386960 0.680940 0.500020 -0.604727
O2    O     O_R   0.613100 0.680900 0.499980 -0.617375
O3    O     O_R   0.370650 0.500000 0.640370 -0.613239
O4    O     O_R   0.596800 0.499960 0.640330 -0.614497
O5    O     O_R   0.386900 0.319100 0.500020 -0.612436
O6    O     O_R   0.613040 0.319060 0.499980 -0.615149
O7    O     O_R   0.403200 0.500040 0.359670 -0.609809
O8    O     O_R   0.629350 0.500000 0.359630 -0.610110
Zn1   Zn    Zn3+2 0.349000 0.500030 0.500020 0.954600
Zn2   Zn    Zn3+2 0.651000 0.499970 0.499980 0.954790

loop_
_geom_bond_atom_site_label_1
_geom_bond_atom_site_label_2
_ccdc_geom_bond_type
C2    O6    A    
C14   H6    S    
C7    C10   T    
O6    Zn2   S    
C11   C12   D    
C16   N2    D    
C6    C7    S    
C5    H2    S    
O3    Zn1   S    
H8    N1    S    
C15   N1    D    
C9    N3    T    
C4    C8    T    
C2    C12   S    
C2    O5    A    
O7    Zn1   S    
O8    Zn2   S    
C13   C14   D    
C11   C13   S    
O1    Zn1   S    
O4    Zn2   S    
C17   O4    A    
C3    O7    A    
C15   H7    S    
O2    Zn2   S    
C13   H5    S    
C16   H9    S    
C5    C6    D    
C6    H1    S    
C11   H3    S    
C5    C8    S    
N1    Zn1   S    
C3    C4    S    
C1    O2    A    
C3    O8    A    
C17   O3    A    
C1    O1    A    
C1    C14   S    
C10   C17   S    
N2    Zn2   S    
O5    Zn1   S    
C12   H4    S    
C15   C16   S    
C9    N2    S    
