data_mof_unit_18060.cif
_audit_creation_date              2012-12-11T17:37:41-0500
_audit_creation_method            fapswitch 2.2
_symmetry_space_group_name_H-M    P1
_symmetry_Int_Tables_number       1
_space_group_crystal_system       triclinic
_cell_length_a                    12.934938
_cell_length_b                    12.901443
_cell_length_c                    15.54047
_cell_angle_alpha                 116.09883
_cell_angle_beta                  64.095221
_cell_angle_gamma                 97.480607
_cell_volume                      2088.76366909

loop_
_atom_site_label
_atom_site_type_symbol
_atom_type_description
_atom_site_fract_x
_atom_site_fract_y
_atom_site_fract_z
_atom_type_partial_charge
C1    C     C_R   0.002553 0.834026 0.048340 -0.139778
C2    C     C_R   0.678545 0.503746 0.319361 0.070853
C3    C     C_R   0.661653 0.457197 0.926051 0.151810
C4    C     C_R   0.017640 0.825024 0.312797 0.074247
C5    C     C_R   0.338038 0.514780 0.950412 -0.112062
C6    C     C_R   0.956178 0.179331 0.786167 -0.144815
C7    C     C_R   0.201433 0.505341 0.695460 -0.112107
C8    C     C_R   0.053856 0.253268 0.085113 -0.125592
C9    C     C_R   0.954682 0.169442 0.990340 -0.123220
C10   C     C_R   0.302079 0.591474 0.791278 -0.171813
C11   C     C_R   0.258823 0.415690 0.048124 -0.156711
C12   C     C_R   0.682100 0.447563 0.218720 -0.131550
C13   C     C_R   0.033513 0.278666 0.687357 -0.137152
C14   C     C_R   0.361135 0.432466 0.974919 0.155353
C15   C     C_R   0.008259 0.169570 0.685423 0.073614
C16   C     C_R   0.299165 0.560880 0.696096 0.079087
C17   C     C_R   0.012678 0.148323 0.038786 0.044012
C18   C     C_R   0.368490 0.080725 0.229425 -0.125842
C19   C     C_R   0.298804 0.019234 0.286323 -0.187587
C20   C     C_R   0.178733 0.026356 0.320721 0.136393
C21   C     C_R   0.130226 0.092581 0.294072 -0.206471
C22   C     C_R   0.199897 0.153537 0.237083 -0.171942
C23   C     C_R   0.754979 0.518301 0.893238 -0.170662
C24   C     C_R   0.319037 0.149897 0.206389 0.112080
C25   C     C_R   0.106330 0.056755 0.501904 -0.236501
C26   C     C_R   0.011269 0.069808 0.594947 0.022942
C27   C     C_R   0.911456 0.010231 0.595091 0.002132
C28   C     C_R   0.907511 0.942476 0.498912 -0.018155
C29   C     C_R   0.006028 0.927280 0.405256 0.000829
C30   C     C_R   0.101692 0.992884 0.406449 0.026372
C31   C     C_R   0.803106 0.904052 0.703899 -0.219286
C32   C     C_R   0.711587 0.895250 0.790676 -0.116876
C33   C     C_R   0.629704 0.988466 0.865198 0.097761
C34   C     C_R   0.984617 0.717436 0.310556 -0.151931
C35   C     C_R   0.639254 0.090767 0.851925 -0.170845
C36   C     C_R   0.730922 0.099596 0.764403 -0.139050
C37   C     C_R   0.814952 0.006771 0.690983 0.130669
C38   C     C_R   0.868077 0.294737 0.361462 -0.117919
C39   C     C_R   0.764051 0.336054 0.375988 -0.114745
C40   C     C_R   0.699763 0.432753 0.469488 0.122277
C41   C     C_R   0.739416 0.483833 0.549348 -0.173216
C42   C     C_R   0.841634 0.440210 0.535445 -0.119009
C43   C     C_R   0.906598 0.346586 0.441118 -0.113551
C44   C     C_R   0.496234 0.501458 0.578975 -0.243591
C45   C     C_R   0.675613 0.421170 0.991466 -0.117444
C46   C     C_R   0.395957 0.558917 0.604781 0.042478
C47   C     C_R   0.387909 0.603357 0.540296 -0.027643
C48   C     C_R   0.481593 0.580365 0.442742 -0.027728
C49   C     C_R   0.581496 0.518695 0.415743 0.034506
C50   C     C_R   0.591507 0.483138 0.486024 -0.004475
C51   C     C_R   0.210249 0.642759 0.531391 -0.250717
C52   C     C_R   0.121631 0.718706 0.558214 0.099549
C53   C     C_R   0.108605 0.833098 0.634047 -0.132129
C54   C     C_R   0.183866 0.872042 0.682434 -0.143628
C55   C     C_R   0.274317 0.797733 0.654412 0.048718
C56   C     C_R   0.067384 0.815102 0.212029 -0.156464
C57   C     C_R   0.287790 0.681648 0.577995 0.080297
C58   C     C_2   0.474142 0.390035 0.947494 -0.202012
C59   C     C_2   0.567577 0.432742 0.895214 -0.209127
C60   C     C_2   0.833381 0.956286 0.082901 0.036777
C61   C     C_2   0.818637 0.035079 0.179981 -0.244439
C62   C     C_R   0.785869 0.535948 0.313195 -0.132208
C63   C     C_R   0.902677 0.747121 0.952654 -0.126373
C64   C     C_R   0.914588 0.852373 0.026207 0.103464
H1    H     H_    0.034463 0.900138 0.100713 0.096952
H2    H     H_    0.920684 0.112385 0.811882 0.109667
H3    H     H_    0.170232 0.476666 0.634989 0.093950
H4    H     H_    0.090944 0.272014 0.139873 0.081087
H5    H     H_    0.900847 0.110163 0.957407 0.107517
H6    H     H_    0.362721 0.644740 0.819125 0.096334
H7    H     H_    0.248621 0.362031 0.087989 0.090321
H8    H     H_    0.066813 0.302592 0.622048 0.100088
H9    H     H_    0.460287 0.078256 0.207211 0.108539
H10   H     H_    0.337433 0.971668 0.308954 0.122397
H11   H     H_    0.613413 0.406706 0.196691 0.102000
H12   H     H_    0.037630 0.101542 0.322209 0.117887
H13   H     H_    0.160747 0.207568 0.220841 0.101964
H14   H     H_    0.178781 0.109146 0.504764 0.138704
H15   H     H_    0.864073 0.829908 0.645787 0.129385
H16   H     H_    0.704236 0.815716 0.799819 0.107210
H17   H     H_    0.575416 0.162745 0.909108 0.109797
H18   H     H_    0.737015 0.178396 0.754295 0.131166
H19   H     H_    0.986897 0.314605 0.429896 0.109954
H20   H     H_    0.777653 0.545785 0.831104 0.090443
H21   H     H_    0.919446 0.222904 0.288307 0.109536
H22   H     H_    0.691731 0.558492 0.622108 0.107486
H23   H     H_    0.871216 0.479999 0.597372 0.100909
H24   H     H_    0.499697 0.468964 0.631445 0.139900
H25   H     H_    0.220493 0.554319 0.472208 0.116372
H26   H     H_    0.957797 0.691133 0.373676 0.097801
H27   H     H_    0.476428 0.346653 0.992527 0.116139
H28   H     H_    0.566098 0.472837 0.847334 0.127569
H29   H     H_    0.628754 0.358755 0.020049 0.082070
H30   H     H_    0.117257 0.874957 0.182308 0.114903
H31   H     H_    0.840346 0.729173 0.920057 0.099723
H32   H     H_    0.397509 0.553080 0.900296 0.087760
N1    N     N_R   0.037320 0.720000 0.995830 -0.040939
N2    N     N_R   0.946240 0.290870 0.848020 -0.039452
N3    N     N_R   0.146160 0.501170 0.788610 -0.041089
N4    N     N_R   0.025750 0.332680 0.063570 -0.036753
N5    N     N_R   0.962680 0.280000 0.004170 -0.043107
N6    N     N_R   0.209230 0.553860 0.848010 -0.036982
N7    N     N_R   0.175100 0.482030 0.063570 -0.041559
N8    N     N_R   0.996810 0.351820 0.788610 -0.040625
N9    N     N_R   0.790770 0.446140 0.151990 -0.043060
N10   N     N_R   0.824900 0.517970 0.936430 -0.040595
N11   N     N_R   0.003190 0.648180 0.211390 -0.037457
N12   N     N_R   0.774330 0.457010 0.995830 -0.043163
N13   N     N_R   0.053760 0.709130 0.151980 -0.037922
N14   N     N_R   0.853840 0.498830 0.211390 -0.039932
N15   N     N_R   0.974250 0.667320 0.936430 -0.041762
N16   N     N_R   0.225670 0.542990 0.004170 -0.046322
Ni1   Ni    Ni4+2 0.130310 0.630310 0.000000 0.215443
Ni2   Ni    Ni4+2 0.869690 0.369690 0.000000 0.210179
Ni3   Ni    Ni4+2 0.985660 0.509480 0.863750 0.210111
Ni4   Ni    Ni4+2 0.014340 0.490520 0.136250 0.213985
N17   N     N_3   0.389497 0.219666 0.155580 -0.238938
H33   H     H_    0.377363 0.199515 0.087848 0.079949
H34   H     H_    0.359676 0.306324 0.206830 0.092109
N18   N     N_3   0.800369 0.895683 0.497659 -0.205370
H35   H     H_    0.797175 0.813644 0.496113 0.105603
H36   H     H_    0.793174 0.889535 0.431142 0.120327
N19   N     N_3   0.537605 0.978326 0.954425 -0.227621
H37   H     H_    0.545023 0.041398 0.021923 0.102086
H38   H     H_    0.459796 0.996403 0.956600 0.108466
H39   H     H_    0.734923 0.294293 0.313834 0.121593
N20   N     N_3   0.479934 0.625309 0.373472 -0.209598
H40   H     H_    0.413957 0.589721 0.350207 0.107650
H41   H     H_    0.463141 0.715208 0.414758 0.119154
N21   N     N_3   0.046463 0.680921 0.506609 -0.232783
H42   H     H_    0.005466 0.610855 0.520393 0.099255
H43   H     H_    0.097326 0.650787 0.425122 0.104470
H44   H     H_    0.041294 0.892777 0.654827 0.121134
H45   H     H_    0.173235 0.961141 0.740386 0.131578
N22   N     N_3   0.353721 0.843266 0.701361 -0.217738
H46   H     H_    0.436823 0.830185 0.640811 0.112184
H47   H     H_    0.351056 0.797543 0.743393 0.109547
N23   N     N_3   0.763715 0.968007 0.036049 -0.215101
H48   H     H_    0.715341 0.048023 0.082549 0.112183
H49   H     H_    0.704477 0.904663 0.036687 0.101190
H50   H     H_    0.865972 0.027496 0.220124 0.129940
H51   H     H_    0.812656 0.575342 0.376691 0.104353

loop_
_geom_bond_atom_site_label_1
_geom_bond_atom_site_label_2
_ccdc_geom_bond_type
N9    N14   A    
C43   H19   S    
C41   C42   A    
C3    C23   A    
C35   C36   A    
N4    Ni4   S    
C45   H29   S    
C34   H26   S    
C35   H17   S    
N22   H46   S    
C20   C30   S    
C53   C54   A    
C52   C53   A    
C56   H30   S    
C41   H22   S    
C21   H12   S    
C24   N17   S    
C7    N3    A    
C18   C24   A    
C34   N11   A    
C6    N2    A    
C28   C29   A    
C9    H5    S    
N17   H34   S    
N3    Ni3   S    
C38   C39   A    
N1    N15   A    
C11   C14   A    
C11   H7    S    
N2    Ni2   S    
C47   C57   S    
C54   H45   S    
C63   H31   S    
C31   C32   A    
C18   C19   A    
N12   Ni2   S    
C6    C15   A    
C46   C47   A    
C19   C20   A    
N18   H36   S    
C36   C37   A    
C1    H1    S    
C51   C57   A    
C58   H27   S    
C4    C29   S    
C45   N12   A    
N13   Ni1   S    
N19   H37   S    
C2    C12   A    
C39   H39   S    
C21   C22   A    
C4    C56   A    
C63   N15   A    
N5    Ni2   S    
N11   N13   A    
C62   H51   S    
N16   Ni1   S    
C44   C46   A    
C55   N22   S    
C14   C58   S    
C4    C34   A    
C23   H20   S    
C38   H21   S    
C51   C52   A    
N9    Ni2   S    
C10   N6    A    
C53   H44   S    
C28   N18   S    
C1    N1    A    
C39   C40   A    
C15   C26   S    
C25   C26   A    
C23   N10   A    
C25   H14   S    
C3    C45   A    
C31   C37   A    
C60   C61   D    
N21   H43   S    
N20   H41   S    
C29   C30   A    
C2    C49   S    
C32   H16   S    
N8    Ni3   S    
C47   C48   A    
C62   N14   A    
C61   H50   S    
C26   C27   A    
C13   N8    A    
C5    C14   A    
N23   H49   S    
C10   H6    S    
C9    C17   A    
C40   C41   A    
C13   H8    S    
C8    H4    S    
C18   H9    S    
C13   C15   A    
C22   C24   A    
C42   C43   A    
C16   C46   S    
N20   H40   S    
C1    C64   A    
N14   Ni4   S    
C56   N13   A    
C5    H32   S    
N18   H35   S    
C44   C50   A    
C25   C30   A    
N22   H47   S    
C54   C55   A    
C48   C49   A    
C19   H10   S    
C7    C16   A    
C22   H13   S    
N15   Ni3   S    
C31   H15   S    
C5    N16   A    
C8    C17   A    
N10   Ni3   S    
C60   C64   S    
C52   N21   S    
C32   C33   A    
C55   C57   A    
N7    Ni4   S    
C58   C59   D    
C38   C43   A    
N6    Ni1   S    
C10   C16   A    
N17   H33   S    
C51   H25   S    
C48   N20   S    
C12   N9    A    
N10   N12   A    
C27   C37   S    
C40   C50   S    
N4    N5    A    
C33   C35   A    
N21   H42   S    
C59   H28   S    
C8    N4    A    
N11   Ni4   S    
N19   H38   S    
N23   H48   S    
C7    H3    S    
C63   C64   A    
C6    H2    S    
N3    N6    A    
C20   C21   A    
C9    N5    A    
C49   C50   A    
C12   H11   S    
C27   C28   A    
C33   N19   S    
N7    N16   A    
C11   N7    A    
C42   H23   S    
C36   H18   S    
C44   H24   S    
N1    Ni1   S    
N2    N8    A    
C2    C62   A    
C60   N23   S    
C3    C59   S    
