data_mof_unit_48696.cif
_audit_creation_date              2012-12-11T17:34:17-0500
_audit_creation_method            fapswitch 2.2
_symmetry_space_group_name_H-M    P1
_symmetry_Int_Tables_number       1
_space_group_crystal_system       triclinic
_cell_length_a                    23.892996
_cell_length_b                    7.210438
_cell_length_c                    20.639704
_cell_angle_alpha                 89.996681
_cell_angle_beta                  105.490419
_cell_angle_gamma                 89.998739
_cell_volume                      3426.62335609

loop_
_atom_site_label
_atom_site_type_symbol
_atom_type_description
_atom_site_fract_x
_atom_site_fract_y
_atom_site_fract_z
_atom_type_partial_charge
O1    O     O_R   0.449110 0.494310 0.552140 -0.538583
O2    O     O_R   0.550890 0.994310 0.447860 -0.538582
O3    O     O_R   0.440010 0.824420 0.415850 -0.534099
O4    O     O_R   0.559990 0.324420 0.584150 -0.534085
C1    C     C_R   0.425408 0.656058 0.390827 0.684663
C2    C     C_R   0.574592 0.156042 0.609170 0.684674
O5    O     O_R   0.442260 0.824040 0.549660 -0.540608
O6    O     O_R   0.557740 0.324040 0.450340 -0.540612
O7    O     O_R   0.553160 0.993960 0.582620 -0.531809
O8    O     O_R   0.446840 0.493960 0.417380 -0.531815
C3    C     C_R   0.428778 0.655438 0.567693 0.680765
C4    C     C_R   0.571220 0.155443 0.432305 0.680739
O9    O     O_3   0.536380 0.660670 0.510660 -0.373266
O10   O     O_3   0.463620 0.160670 0.489340 -0.373278
V1    V     V_3+5 0.493250 0.935680 0.498020 1.412246
V2    V     V_3+5 0.506750 0.435680 0.501980 1.412251
C5    C     C_R   0.799021 0.930367 0.142655 0.275645
C6    C     C_R   0.200952 0.430281 0.857325 0.275705
C7    C     C_R   0.838419 0.917236 0.101399 0.005086
C8    C     C_R   0.161597 0.417290 0.898639 0.005253
C9    C     C_R   0.882607 0.057622 0.106611 -0.162344
C10   C     C_R   0.117400 0.557654 0.893402 -0.162362
C11   C     C_R   0.883003 0.209183 0.151149 0.235807
C12   C     C_R   0.117002 0.709205 0.848854 0.235865
C13   C     C_R   0.843171 0.218808 0.189637 -0.178900
C14   C     C_R   0.156822 0.718774 0.810348 -0.178797
H1    H     H_    0.844859 0.335408 0.223297 0.181016
H2    H     H_    0.155139 0.835382 0.776688 0.181059
C15   C     C_R   0.801910 0.081277 0.186493 -0.005995
C16   C     C_R   0.198061 0.581177 0.813473 -0.006065
C17   C     C_1   0.762562 0.098126 0.229142 0.086176
C18   C     C_1   0.237405 0.598001 0.770817 0.086207
C19   C     C_1   0.729851 0.110981 0.264842 -0.007996
C20   C     C_1   0.270117 0.610866 0.735119 -0.007996
C21   C     C_R   0.668314 0.961585 0.328700 -0.117992
C22   C     C_R   0.331666 0.461515 0.671267 -0.118003
H3    H     H_    0.680372 0.826790 0.313495 0.127490
H4    H     H_    0.319607 0.326710 0.686465 0.127490
C23   C     C_R   0.630018 0.972105 0.369490 -0.171608
C24   C     C_R   0.369970 0.472064 0.630489 -0.171594
H5    H     H_    0.613493 0.843989 0.384607 0.125953
H6    H     H_    0.386499 0.343958 0.615371 0.125953
C25   C     C_R   0.613154 0.145187 0.390054 -0.051082
C26   C     C_R   0.386838 0.645161 0.609936 -0.051076
C27   C     C_R   0.636093 0.307292 0.368703 -0.163671
C28   C     C_R   0.363892 0.807250 0.631286 -0.163678
H7    H     H_    0.624236 0.442991 0.383200 0.123084
H8    H     H_    0.375751 0.942958 0.616797 0.123076
C29   C     C_R   0.674445 0.296260 0.327818 -0.125951
C30   C     C_R   0.325531 0.796189 0.672160 -0.125937
H9    H     H_    0.691309 0.422801 0.311870 0.126151
H10   H     H_    0.308663 0.922718 0.688109 0.126169
C31   C     C_R   0.690634 0.123363 0.307517 0.115286
C32   C     C_R   0.309339 0.623277 0.692450 0.115277
C33   C     C_R   0.645413 0.241363 0.792562 -0.152143
C34   C     C_R   0.354519 0.742266 0.207506 -0.152198
H11   H     H_    0.559248 0.264760 0.727633 0.115102
H12   H     H_    0.440681 0.765715 0.272431 0.115132
H13   H     H_    0.731867 0.275386 0.902874 0.129844
H14   H     H_    0.268033 0.776625 0.097240 0.129833
H15   H     H_    0.632425 0.296274 0.835234 0.127899
H16   H     H_    0.367472 0.797625 0.164874 0.127856
C35   C     C_R   0.618521 0.153298 0.675055 -0.040789
C36   C     C_R   0.381476 0.653397 0.324942 -0.040862
C37   C     C_R   0.897933 0.974155 0.770131 -0.127019
C38   C     C_R   0.102120 0.473492 0.229820 -0.126910
C39   C     C_R   0.858524 0.953231 0.707573 -0.120685
C40   C     C_R   0.141552 0.452285 0.292347 -0.120724
C41   C     C_R   0.800631 0.003124 0.697694 -0.160724
C42   C     C_R   0.199426 0.502406 0.302244 -0.160731
C43   C     C_R   0.780518 0.077989 0.750633 0.079311
C44   C     C_R   0.219494 0.577799 0.249356 0.079256
C45   C     C_R   0.821984 0.105619 0.814577 0.067536
C46   C     C_R   0.178002 0.605725 0.185446 0.067471
C47   C     C_R   0.720514 0.123713 0.742376 0.072381
C48   C     C_R   0.279482 0.623759 0.257626 0.072357
C49   C     C_R   0.703600 0.194805 0.798486 0.140345
C50   C     C_R   0.296353 0.695404 0.201564 0.140373
C51   C     C_R   0.744865 0.222109 0.860024 -0.199802
C52   C     C_R   0.255065 0.722960 0.140058 -0.199784
C53   C     C_R   0.803170 0.182109 0.867606 -0.217404
C54   C     C_R   0.196776 0.682705 0.132464 -0.217424
C55   C     C_R   0.676534 0.102740 0.680557 -0.214826
C56   C     C_R   0.323486 0.602517 0.319416 -0.214848
C57   C     C_R   0.603523 0.222516 0.731369 -0.157964
C58   C     C_R   0.396428 0.723186 0.268674 -0.157891
C59   C     C_R   0.881048 0.050773 0.824267 -0.096770
C60   C     C_R   0.118957 0.550642 0.175735 -0.096762
H17   H     H_    0.686069 0.053766 0.635356 0.098202
H18   H     H_    0.313981 0.553122 0.364584 0.098263
H19   H     H_    0.941948 0.927380 0.776418 0.174561
H20   H     H_    0.058128 0.426477 0.223508 0.174575
H21   H     H_    0.772624 0.979150 0.648118 0.112695
H22   H     H_    0.227455 0.478178 0.351789 0.112706
H23   H     H_    0.872802 0.894061 0.666478 0.134724
H24   H     H_    0.127310 0.392694 0.333398 0.134737
H25   H     H_    0.833403 0.209974 0.915882 0.112025
H26   H     H_    0.166526 0.710735 0.084211 0.112211
O11   O     O_R   0.053190 0.709680 0.082610 -0.531310
O12   O     O_R   0.946810 0.209680 0.917390 -0.531308
O13   O     O_R   0.057740 0.380240 0.950340 -0.536725
O14   O     O_R   0.942260 0.880240 0.049660 -0.536770
C61   C     C_R   0.072337 0.548720 0.933094 0.726367
C62   C     C_R   0.927666 0.048710 0.066910 0.726317
O15   O     O_R   0.060000 0.379940 0.084150 -0.527978
O16   O     O_R   0.940000 0.879940 0.915850 -0.527965
O17   O     O_R   0.949110 0.210100 0.052140 -0.510359
O18   O     O_R   0.050890 0.710100 0.947860 -0.510356
C63   C     C_R   0.075200 0.548149 0.109006 0.702274
C64   C     C_R   0.924800 0.048169 0.890996 0.702299
O19   O     O_3   0.963630 0.543720 0.989330 -0.371182
O20   O     O_3   0.036370 0.043720 0.010670 -0.371116
V3    V     V_3+5 0.006750 0.268680 0.001980 1.484399
V4    V     V_3+5 0.993250 0.768680 0.998020 1.484347
Br1   Br    Br    0.739422 0.746170 0.140508 -0.580940
Br2   Br    Br    0.260477 0.245871 0.859389 -0.580944
C65   C     C_3   0.830555 0.758494 0.050621 -0.287711
C66   C     C_3   0.808730 0.829533 0.978222 -0.329085
C67   C     C_3   0.795906 0.670671 0.927711 -0.711270
H27   H     H_    0.835318 0.584345 0.932545 0.233091
H28   H     H_    0.760332 0.583550 0.936359 0.225028
H29   H     H_    0.782029 0.727452 0.875850 0.225046
H30   H     H_    0.768470 0.912283 0.972817 0.215661
H31   H     H_    0.841912 0.919259 0.965998 0.179615
H32   H     H_    0.870862 0.676626 0.057874 0.223674
H33   H     H_    0.799205 0.653530 0.057990 0.223048
C68   C     C_3   0.169542 0.258825 0.949540 -0.287846
C69   C     C_3   0.191334 0.330315 0.021878 -0.329198
C70   C     C_3   0.204329 0.171766 0.072518 -0.711529
H34   H     H_    0.165016 0.085026 0.067751 0.233026
H35   H     H_    0.240005 0.085004 0.063947 0.225050
H36   H     H_    0.218134 0.228852 0.124332 0.225119
H37   H     H_    0.231513 0.413403 0.027191 0.215636
H38   H     H_    0.158082 0.419831 0.034057 0.179557
H39   H     H_    0.129275 0.176795 0.942361 0.223594
H40   H     H_    0.200953 0.153957 0.942260 0.223085
Br3   Br    Br    0.937321 0.411349 0.165939 -0.603630
Br4   Br    Br    0.062728 0.911501 0.834112 -0.603446

loop_
_geom_bond_atom_site_label_1
_geom_bond_atom_site_label_2
_ccdc_geom_bond_type
C38   C40   A    
O12   C64   A    
C21   C31   A    
C5    C15   A    
O1    C3    A    
C44   C48   A    
O2    C4    A    
C69   C70   S    
C48   C56   A    
C2    O7    A    
C34   C50   A    
C23   H5    S    
C59   C64   S    
O5    C3    A    
C40   H24   S    
O16   V4    S    
O15   V3    S    
C7    C9    A    
C48   C50   A    
C4    C25   S    
C41   H21   S    
C38   C60   A    
C33   C49   A    
C50   C52   A    
C37   C39   A    
O11   C63   A    
O13   V3    S    
C13   C15   A    
C27   H7    S    
O18   V4    S    
C41   C43   A    
C66   C67   S    
O17   V3    S    
C9    C62   S    
C45   C59   A    
C29   H9    S    
C30   H10   S    
C17   C19   T    
C61   O18   A    
C6    C16   A    
C65   H33   S    
C6    C8    A    
C70   H36   S    
C24   H6    S    
O6    V2    S    
C35   C57   A    
C39   H23   S    
C54   H26   S    
C56   H18   S    
C46   C54   A    
H12   C58   S    
C36   C58   A    
O20   V3    S    
C26   C28   A    
C37   C59   A    
C49   C51   A    
C19   C31   S    
C55   H17   S    
C28   H8    S    
C43   C47   A    
C22   C24   A    
C68   H40   S    
C8    C68   S    
C44   C46   A    
C6    Br2   S    
C43   C45   A    
C38   H20   S    
C12   Br4   S    
C10   C61   S    
C1    C36   S    
C35   C55   A    
C39   C41   A    
C18   C20   T    
C2    C35   S    
C33   C57   A    
C21   C23   A    
O14   V4    S    
C69   H38   S    
C25   C27   A    
C34   C58   A    
C27   C29   A    
O6    C4    A    
C3    C26   S    
O1    V2    S    
C66   H31   S    
O14   C62   A    
O2    V1    S    
C47   C49   A    
C67   H28   S    
C45   C53   A    
C60   C63   S    
C52   C54   A    
C8    C10   A    
C20   C32   S    
C9    C11   A    
C34   H16   S    
O4    C2    A    
O4    V2    S    
H13   C51   S    
C68   C69   S    
C30   C32   A    
O11   V4    S    
O3    V1    S    
C5    Br1   S    
C51   C53   A    
C70   H34   S    
O16   C64   A    
C67   H29   S    
C37   H19   S    
O15   C63   A    
H14   C52   S    
C21   H3    S    
C11   Br3   S    
O12   V3    S    
C12   C14   A    
O3    C1    A    
C23   C25   A    
C67   H27   S    
C14   C16   A    
C13   H1    S    
C28   C30   A    
C14   H2    S    
C36   C56   A    
C22   H4    S    
O7    V1    S    
C1    O8    A    
C15   C17   S    
O8    V2    S    
C65   C66   S    
C16   C18   S    
C47   C55   A    
C53   H25   S    
C29   C31   A    
C33   H15   S    
O5    V1    S    
C5    C7    A    
H11   C57   S    
O19   V4    S    
C10   C12   A    
C66   H30   S    
C11   C13   A    
C68   H39   S    
C22   C32   A    
C24   C26   A    
C7    C65   S    
O13   C61   A    
O9    V2    S    
C42   H22   S    
C40   C42   A    
O10   V1    S    
C42   C44   A    
C46   C60   A    
C69   H37   S    
C65   H32   S    
C62   O17   A    
C70   H35   S    
