data_mof_unit_57625.cif
_audit_creation_date              2012-12-10T19:38:24-0500
_audit_creation_method            fapswitch 2.2
_symmetry_space_group_name_H-M    P1
_symmetry_Int_Tables_number       1
_space_group_crystal_system       triclinic
_cell_length_a                    15.906501
_cell_length_b                    15.98257
_cell_length_c                    16.951683
_cell_angle_alpha                 91.898936
_cell_angle_beta                  94.969267
_cell_angle_gamma                 95.891648
_cell_volume                      4266.85217392

loop_
_atom_site_label
_atom_site_type_symbol
_atom_type_description
_atom_site_fract_x
_atom_site_fract_y
_atom_site_fract_z
_atom_type_partial_charge
C1    C     C_R   0.508783 0.498708 0.651699 0.801261
C2    C     C_3   0.570751 0.063829 0.593113 -0.023640
C3    C     C_3   0.494640 0.081983 0.525235 0.153468
C4    C     C_3   0.527485 0.051624 0.444308 -0.485045
C5    C     C_3   0.529827 0.955570 0.434531 -0.171866
C6    C     C_1   0.490176 0.174038 0.516727 -0.078250
C7    C     C_1   0.513171 0.824459 0.509710 -0.069132
C8    C     C_1   0.509495 0.749060 0.505473 -0.199190
C9    C     C_R   0.509661 0.495953 0.738735 -0.122859
C10   C     C_R   0.441190 0.455166 0.776915 -0.075556
C11   C     C_R   0.448257 0.452526 0.860760 0.097940
C12   C     C_R   0.502575 0.659722 0.501112 0.828113
C13   C     C_R   0.518628 0.497726 0.905061 0.293786
C14   C     C_R   0.583854 0.541230 0.866598 -0.032392
C15   C     C_R   0.579308 0.538337 0.784262 -0.308314
C16   C     C_R   0.577315 0.520210 0.150124 0.148140
C17   C     C_R   0.565499 0.497735 0.227399 -0.251997
C18   C     C_R   0.510825 0.554460 0.104884 0.291471
C19   C     C_R   0.492891 0.515082 0.263341 -0.094052
C20   C     C_R   0.431487 0.557131 0.221441 -0.236221
C21   C     C_R   0.439654 0.577105 0.142195 0.120477
C22   C     C_R   0.261514 0.542818 0.545531 0.006934
C23   C     C_R   0.491105 0.502260 0.348541 0.835662
C24   C     C_R   0.175599 0.554650 0.549298 -0.004329
C25   C     C_R   0.112287 0.503669 0.500254 0.286679
C26   C     C_R   0.140425 0.446409 0.443782 -0.004921
C27   C     C_R   0.229412 0.446807 0.435739 0.080840
C28   C     C_R   0.819322 0.450333 0.438765 -0.010666
C29   C     C_R   0.735093 0.453816 0.455513 -0.012739
C30   C     C_R   0.884315 0.508401 0.476802 0.275820
C31   C     C_R   0.772839 0.568226 0.547948 0.287439
C32   C     C_R   0.858973 0.573194 0.526966 0.041677
C33   C     C_R   0.497627 0.339582 0.501150 0.826502
C34   C     C_3   0.571104 0.961939 0.585062 -0.212425
C35   C     C_3   0.409172 0.926493 0.528999 0.053669
C36   C     C_3   0.398026 0.029890 0.531367 0.126257
C37   C     C_1   0.492079 0.249455 0.508467 -0.256942
C38   C     C_3   0.507842 0.915938 0.514555 0.143326
Cu1   Cu    Cu3+1 0.584780 0.504030 0.503820 0.922520
Cu2   Cu    Cu3+1 0.415220 0.495970 0.496180 0.940159
H1    H     H_    0.492596 0.075169 0.391657 0.148844
H2    H     H_    0.615449 0.469235 0.260893 0.158401
H3    H     H_    0.629245 0.572491 0.755332 0.179312
H4    H     H_    0.378545 0.576594 0.250994 0.164202
H5    H     H_    0.540678 0.938455 0.634839 0.168420
H6    H     H_    0.686293 0.412062 0.421784 0.163827
H7    H     H_    0.308907 0.580118 0.585156 0.154438
H8    H     H_    0.478691 0.933110 0.391084 0.157028
H9    H     H_    0.592338 0.078949 0.438004 0.186517
N1    N     N_2   0.524559 0.494155 0.988411 -0.264495
N2    N     N_2   0.511249 0.561519 0.021823 -0.278148
N3    N     N_R   0.287860 0.489910 0.490440 -0.206107
N4    N     N_2   0.024351 0.505660 0.515997 -0.253428
N5    N     N_2   0.970871 0.505725 0.457025 -0.226663
N6    N     N_R   0.712150 0.510100 0.509550 -0.211558
O1    O     O_R   0.579470 0.503770 0.617500 -0.581762
O2    O     O_R   0.436280 0.496960 0.611050 -0.578431
O3    O     O_R   0.571630 0.623970 0.503220 -0.593101
O4    O     O_R   0.428430 0.617160 0.496770 -0.590087
O5    O     O_R   0.563720 0.503040 0.388950 -0.596234
O6    O     O_R   0.420530 0.496230 0.382500 -0.563824
O7    O     O_R   0.571570 0.382840 0.503230 -0.586727
O8    O     O_R   0.428370 0.376030 0.496780 -0.572801
C39   C     C_R   0.557870 0.098120 0.679309 0.088524
C40   C     C_R   0.561230 0.186695 0.694859 -0.143120
C41   C     C_R   0.557733 0.221654 0.770953 -0.159280
C42   C     C_R   0.557569 0.170446 0.835548 -0.112388
C43   C     C_R   0.564818 0.085085 0.824331 -0.115064
C44   C     C_R   0.568745 0.050171 0.748211 -0.186178
H10   H     H_    0.568126 0.230328 0.648347 0.141173
H11   H     H_    0.557211 0.289003 0.779878 0.137280
H12   H     H_    0.555915 0.197483 0.894697 0.122181
H13   H     H_    0.570423 0.046094 0.875146 0.118415
H14   H     H_    0.583728 0.986193 0.746196 0.113708
C45   C     C_R   0.657806 0.926298 0.595963 0.105112
C46   C     C_R   0.724017 0.947951 0.547681 -0.099888
C47   C     C_R   0.803210 0.918100 0.562263 -0.152533
C48   C     C_R   0.818157 0.866575 0.625604 -0.137744
C49   C     C_R   0.753475 0.843608 0.673648 -0.145798
C50   C     C_R   0.673761 0.872018 0.658442 -0.181086
H15   H     H_    0.715923 0.990726 0.500310 0.151318
H16   H     H_    0.853411 0.936015 0.524989 0.133572
H17   H     H_    0.879742 0.844092 0.637279 0.131363
H18   H     H_    0.764946 0.803270 0.722605 0.135826
H19   H     H_    0.624830 0.852292 0.696521 0.111091
C51   C     C_R   0.662862 0.111588 0.585563 0.108762
C52   C     C_R   0.729362 0.100025 0.645326 -0.093746
C53   C     C_R   0.810345 0.143223 0.646993 -0.143055
C54   C     C_R   0.828072 0.202551 0.591223 -0.116243
C55   C     C_R   0.764388 0.219540 0.534613 -0.131401
C56   C     C_R   0.683161 0.176281 0.532223 -0.181264
H20   H     H_    0.719143 0.056065 0.691444 0.140984
H21   H     H_    0.859238 0.131021 0.692356 0.125397
H22   H     H_    0.890707 0.236534 0.592738 0.120527
H23   H     H_    0.777618 0.267676 0.492855 0.122498
H24   H     H_    0.638795 0.197032 0.487974 0.141723
C57   C     C_3   0.663856 0.512602 0.121127 -0.381964
C58   C     C_3   0.729558 0.580908 0.161006 -0.840400
H25   H     H_    0.711865 0.644153 0.145459 0.261029
H26   H     H_    0.792796 0.573286 0.140326 0.245949
H27   H     H_    0.734053 0.576959 0.226455 0.249387
H28   H     H_    0.683736 0.449479 0.134268 0.186865
H29   H     H_    0.664446 0.518960 0.056659 0.247400
C59   C     C_R   0.658903 0.588627 0.910546 0.130236
C60   C     C_R   0.738304 0.557378 0.911613 -0.178430
C61   C     C_R   0.810147 0.603573 0.950784 -0.138403
C62   C     C_R   0.803274 0.681486 0.988284 -0.117563
C63   C     C_R   0.724584 0.713449 0.986463 -0.159521
C64   C     C_R   0.652580 0.667400 0.947435 -0.113141
H30   H     H_    0.744394 0.497341 0.882265 0.133182
H31   H     H_    0.871175 0.579076 0.951907 0.125827
H32   H     H_    0.858927 0.717155 0.018619 0.118726
H33   H     H_    0.719419 0.773968 0.015187 0.121703
H34   H     H_    0.592169 0.693308 0.945463 0.129166
C65   C     C_3   0.383663 0.399333 0.904708 -0.384055
C66   C     C_3   0.416098 0.315853 0.926670 -0.852645
H35   H     H_    0.425042 0.278867 0.872069 0.245513
H36   H     H_    0.477234 0.326330 0.964292 0.261091
H37   H     H_    0.368966 0.279006 0.959998 0.235953
H38   H     H_    0.370159 0.434044 0.959214 0.216614
H39   H     H_    0.321473 0.384750 0.870110 0.200626
C67   C     C_3   0.373669 0.625639 0.099714 -0.389531
C68   C     C_3   0.287696 0.573212 0.084891 -0.866282
H40   H     H_    0.294221 0.512822 0.052896 0.248581
H41   H     H_    0.260179 0.560455 0.141799 0.240451
H42   H     H_    0.243345 0.608518 0.048154 0.239905
H43   H     H_    0.366539 0.683178 0.136144 0.194535
H44   H     H_    0.393530 0.647331 0.041945 0.214687
C69   C     C_R   0.362384 0.416503 0.730321 0.145366
C70   C     C_R   0.284779 0.449775 0.737911 -0.180619
C71   C     C_R   0.210432 0.412874 0.694905 -0.134404
C72   C     C_R   0.213628 0.345915 0.640863 -0.120033
C73   C     C_R   0.290745 0.314332 0.631348 -0.110241
C74   C     C_R   0.364676 0.348102 0.676861 -0.093912
H45   H     H_    0.281767 0.503025 0.778395 0.119282
H46   H     H_    0.150217 0.436112 0.702959 0.138848
H47   H     H_    0.156395 0.318522 0.606345 0.118317
H48   H     H_    0.292729 0.262875 0.589431 0.129793
H49   H     H_    0.423969 0.322369 0.669460 0.090329
C75   C     C_3   0.835320 0.388388 0.374133 -0.406830
C76   C     C_3   0.831393 0.428782 0.293825 -0.828753
H50   H     H_    0.875695 0.487328 0.295511 0.261133
H51   H     H_    0.848320 0.384073 0.247760 0.235402
H52   H     H_    0.765943 0.444147 0.277390 0.244571
H53   H     H_    0.896476 0.363352 0.387614 0.224549
H54   H     H_    0.786752 0.332861 0.370360 0.177600
C77   C     C_3   0.079428 0.377466 0.400730 -0.369732
C78   C     C_3   0.046562 0.401971 0.318183 -0.813579
H55   H     H_    0.022461 0.464560 0.320348 0.271038
H56   H     H_    0.096752 0.403659 0.277039 0.242338
H57   H     H_    0.995148 0.353890 0.293103 0.236271
H58   H     H_    0.110490 0.318684 0.394924 0.184091
H59   H     H_    0.026535 0.360115 0.437293 0.204226
C79   C     C_R   0.259362 0.401365 0.368247 0.189648
C80   C     C_R   0.289502 0.323434 0.379017 -0.119040
C81   C     C_R   0.321496 0.280893 0.316626 -0.169673
C82   C     C_R   0.320686 0.315373 0.242002 -0.118646
C83   C     C_R   0.288599 0.392543 0.230116 -0.144593
C84   C     C_R   0.259040 0.436226 0.293290 -0.149976
H60   H     H_    0.288322 0.297438 0.436525 0.128481
H61   H     H_    0.346840 0.221360 0.325896 0.135297
H62   H     H_    0.344829 0.282356 0.193434 0.123710
H63   H     H_    0.287727 0.418714 0.172164 0.142823
H64   H     H_    0.235885 0.496864 0.283967 0.107773
C85   C     C_3   0.748919 0.625730 0.612922 -0.366916
C86   C     C_3   0.784672 0.599914 0.694141 -0.905641
H65   H     H_    0.757685 0.534987 0.705461 0.266783
H66   H     H_    0.854754 0.601446 0.698090 0.247999
H67   H     H_    0.767945 0.643800 0.741023 0.243733
H68   H     H_    0.771785 0.691827 0.603411 0.200243
H69   H     H_    0.679655 0.624309 0.613233 0.247417
C87   C     C_3   0.155376 0.629004 0.599667 -0.389965
C88   C     C_3   0.110069 0.604412 0.672640 -0.837140
H70   H     H_    0.155511 0.581346 0.718075 0.239122
H71   H     H_    0.055670 0.555695 0.658337 0.265533
H72   H     H_    0.085759 0.660901 0.698588 0.229595
H73   H     H_    0.214402 0.669826 0.620954 0.179633
H74   H     H_    0.118124 0.669740 0.562071 0.194777
C89   C     C_3   0.916583 0.654838 0.543621 -0.398023
C90   C     C_3   0.893080 0.720734 0.484566 -0.877359
H75   H     H_    0.826371 0.734317 0.487348 0.252594
H76   H     H_    0.901230 0.698031 0.423316 0.258046
H77   H     H_    0.935262 0.780135 0.498256 0.239079
H78   H     H_    0.915201 0.680173 0.605018 0.201976
H79   H     H_    0.982920 0.645623 0.537430 0.243910
C91   C     C_R   0.347601 0.868248 0.460734 0.073039
C92   C     C_R   0.311287 0.784532 0.475983 -0.129007
C93   C     C_R   0.260740 0.732176 0.418991 -0.112392
C94   C     C_R   0.244740 0.758198 0.342762 -0.123084
C95   C     C_R   0.280332 0.836358 0.322955 -0.125466
C96   C     C_R   0.330976 0.889200 0.379454 -0.186982
H80   H     H_    0.321921 0.754308 0.531068 0.104173
H81   H     H_    0.234820 0.670088 0.433867 0.129529
H82   H     H_    0.206043 0.717179 0.298685 0.117063
H83   H     H_    0.269460 0.856230 0.262794 0.119913
H84   H     H_    0.355919 0.946191 0.355012 0.103520
C97   C     C_3   0.387370 0.880988 0.611344 -0.403967
C98   C     C_3   0.409881 0.915696 0.697552 -0.867707
H85   H     H_    0.462852 0.884562 0.726919 0.218624
H86   H     H_    0.425695 0.983457 0.703681 0.283799
H87   H     H_    0.355224 0.900509 0.733155 0.247460
H88   H     H_    0.318090 0.863273 0.608963 0.194724
H89   H     H_    0.413566 0.819551 0.613217 0.201399
C99   C     C_R   0.347540 0.053356 0.603034 0.200819
C100  C     C_R   0.369212 0.125502 0.653292 -0.177997
C101  C     C_R   0.324543 0.141084 0.718855 -0.128973
C102  C     C_R   0.251157 0.089816 0.731048 -0.114913
C103  C     C_R   0.220957 0.024825 0.676108 -0.166870
C104  C     C_R   0.267118 0.008237 0.611960 -0.125317
H90   H     H_    0.416133 0.173403 0.639639 0.142298
H91   H     H_    0.344878 0.195234 0.758382 0.143165
H92   H     H_    0.215712 0.102865 0.780924 0.123377
H93   H     H_    0.161409 0.987561 0.682716 0.125162
H94   H     H_    0.239444 0.959717 0.568718 0.117029
C105  C     C_3   0.334127 0.055240 0.459953 -0.410161
C106  C     C_3   0.288380 0.134432 0.469459 -0.914540
H95   H     H_    0.238860 0.126883 0.511612 0.258082
H96   H     H_    0.333913 0.188499 0.489235 0.267837
H97   H     H_    0.254725 0.147058 0.411672 0.238694
H98   H     H_    0.364770 0.065204 0.405182 0.203164
H99   H     H_    0.279720 0.006310 0.448911 0.216928
C107  C     C_R   0.602308 0.930920 0.385264 0.111309
C108  C     C_R   0.614263 0.973866 0.314607 -0.167961
C109  C     C_R   0.673460 0.952051 0.263377 -0.135002
C110  C     C_R   0.721157 0.885479 0.280032 -0.113309
C111  C     C_R   0.709332 0.840368 0.347719 -0.148284
C112  C     C_R   0.650171 0.861849 0.399235 -0.122572
H100  H     H_    0.576707 0.024248 0.297926 0.115325
H101  H     H_    0.681617 0.986404 0.210125 0.119241
H102  H     H_    0.766838 0.868438 0.240196 0.117787
H103  H     H_    0.746159 0.788309 0.360439 0.133225
H104  H     H_    0.646352 0.824888 0.450611 0.156184

loop_
_geom_bond_atom_site_label_1
_geom_bond_atom_site_label_2
_ccdc_geom_bond_type
C87   H73   S    
C85   H69   S    
C13   N1    S    
C52   C53   A    
C103  H93   S    
C65   H39   S    
C18   C21   A    
C62   H32   S    
C67   H43   S    
C19   C20   A    
C28   C75   S    
C106  H97   S    
C45   C46   A    
C3    C6    S    
C109  C110  A    
C57   C58   S    
C7    C8    T    
C88   H70   S    
C66   H35   S    
C30   N5    S    
C35   C97   S    
C26   C27   A    
C85   C86   S    
Cu2   O8    S    
C95   H83   S    
C47   H16   S    
C28   C29   A    
C1    O1    A    
C25   N4    S    
C89   H78   S    
C106  H96   S    
C77   H58   S    
C51   C56   A    
C76   H51   S    
C36   C105  S    
C59   C64   A    
C16   C57   S    
C68   H41   S    
C16   C17   A    
C61   C62   A    
C101  H91   S    
C40   H10   S    
C91   C96   A    
C63   C64   A    
C3    C4    S    
C42   H12   S    
C21   C67   S    
Cu1   O7    S    
C96   H84   S    
C107  C112  A    
C56   H24   S    
C17   H2    S    
C12   O4    A    
C14   C59   S    
C48   H17   S    
C82   C83   A    
Cu1   N6    S    
C77   C78   S    
C90   H76   S    
C72   C73   A    
C99   C104  A    
C62   C63   A    
C78   H57   S    
C32   C89   S    
C2    C51   S    
C98   H85   S    
C65   C66   S    
C97   C98   S    
C11   C65   S    
C45   C50   A    
C57   H28   S    
C90   H77   S    
C8    C12   S    
C34   C45   S    
C12   O3    A    
C2    C34   S    
C27   C79   S    
C112  H104  S    
C73   H48   S    
Cu2   O4    S    
C34   C38   S    
C13   C14   A    
C86   H66   S    
C86   H65   S    
C94   C95   A    
C77   H59   S    
C105  H99   S    
C59   C60   A    
C20   H4    S    
C2    C39   S    
C18   N2    S    
N1    N2    D    
C109  H101  S    
C61   H31   S    
C88   H71   S    
C75   C76   S    
C23   O5    A    
C5    H8    S    
C42   C43   A    
C108  H100  S    
C31   C85   S    
C68   H40   S    
C35   C38   S    
C41   C42   A    
C24   C25   A    
C27   N3    A    
C108  C109  A    
C71   H46   S    
C76   H52   S    
C75   H54   S    
C74   H49   S    
C101  C102  A    
C33   O7    A    
C68   H42   S    
C29   N6    A    
C25   C26   A    
C47   C48   A    
Cu1   O3    S    
C33   C37   S    
Cu2   O6    S    
C49   C50   A    
C93   C94   A    
C35   C36   S    
C63   H33   S    
C75   H53   S    
C19   C23   S    
C105  C106  S    
C95   C96   A    
C50   H19   S    
C1    O2    A    
C70   C71   A    
Cu1   O1    S    
C14   C15   A    
C23   O6    A    
C33   O8    A    
C106  H95   S    
C20   C21   A    
C98   H87   S    
C110  C111  A    
C94   H82   S    
C6    C37   T    
C1    C9    S    
C44   H14   S    
C111  C112  A    
C34   H5    S    
C39   C44   A    
C99   C100  A    
C103  C104  A    
C92   H80   S    
C57   H29   S    
C41   H11   S    
C83   H63   S    
C70   H45   S    
C81   H61   S    
C65   H38   S    
C58   H26   S    
C83   C84   A    
C73   C74   A    
C22   C24   A    
C87   C88   S    
C54   C55   A    
Cu1   Cu2   S    
C52   H20   S    
C90   H75   S    
C51   C52   A    
C22   N3    A    
C69   C70   A    
C9    C10   A    
C88   H72   S    
C87   H74   S    
C85   H68   S    
C5    C107  S    
C100  C101  A    
C53   H21   S    
C81   C82   A    
Cu2   O2    S    
C80   H60   S    
C48   C49   A    
C43   C44   A    
C31   C32   A    
C110  H102  S    
C78   H56   S    
C4    C5    S    
C71   C72   A    
C55   H23   S    
C46   H15   S    
C54   H22   S    
C93   H81   S    
C102  H92   S    
C67   H44   S    
N4    N5    D    
C89   H79   S    
C58   H27   S    
C36   C99   S    
C60   C61   A    
C4    H9    S    
C104  H94   S    
C60   H30   S    
C66   H37   S    
C97   H88   S    
C29   H6    S    
C3    C36   S    
C39   C40   A    
C28   C30   A    
C2    C3    S    
C43   H13   S    
C10   C69   S    
C15   H3    S    
C79   C84   A    
Cu2   N3    S    
C76   H50   S    
C30   C32   A    
C46   C47   A    
C11   C13   A    
C55   C56   A    
C49   H18   S    
C100  H90   S    
C35   C91   S    
C64   H34   S    
Cu1   O5    S    
C105  H98   S    
C17   C19   A    
C7    C38   S    
C66   H36   S    
C97   H89   S    
C78   H55   S    
C40   C41   A    
C9    C15   A    
C107  C108  A    
C24   C87   S    
C22   H7    S    
C69   C74   A    
C10   C11   A    
C89   C90   S    
C79   C80   A    
C92   C93   A    
C53   C54   A    
C86   H67   S    
C16   C18   A    
C58   H25   S    
C4    H1    S    
C80   C81   A    
C67   C68   S    
C102  C103  A    
C84   H64   S    
C98   H86   S    
C72   H47   S    
C26   C77   S    
C31   N6    A    
C91   C92   A    
C5    C38   S    
C82   H62   S    
C111  H103  S    
