data_mof_unit_56158.cif
_audit_creation_date              2012-12-11T16:51:18-0500
_audit_creation_method            fapswitch 2.2
_symmetry_space_group_name_H-M    P1
_symmetry_Int_Tables_number       1
_space_group_crystal_system       triclinic
_cell_length_a                    24.413477
_cell_length_b                    17.204808
_cell_length_c                    15.548226
_cell_angle_alpha                 90.218536
_cell_angle_beta                  128.938865
_cell_angle_gamma                 89.757828
_cell_volume                      5079.64529022

loop_
_atom_site_label
_atom_site_type_symbol
_atom_type_description
_atom_site_fract_x
_atom_site_fract_y
_atom_site_fract_z
_atom_type_partial_charge
C1    C     C_R   0.833307 0.889924 0.201348 -0.115548
C2    C     C_R   0.155080 0.865309 0.773424 -0.129725
C3    C     C_R   0.333160 0.390405 0.200983 -0.116850
C4    C     C_R   0.666615 0.391403 0.800713 -0.132294
C5    C     C_R   0.884582 0.103526 0.591310 -0.129147
C6    C     C_R   0.097128 0.137362 0.409309 -0.124072
C7    C     C_R   0.384349 0.603491 0.590855 -0.130871
C8    C     C_R   0.591191 0.641664 0.407777 -0.125495
C9    C     C_R   0.815742 0.118580 0.498936 0.079621
C10   C     C_R   0.150400 0.178361 0.502543 0.070597
C11   C     C_R   0.315612 0.618652 0.498011 0.076952
C12   C     C_R   0.644911 0.682937 0.500872 0.071773
C13   C     C_R   0.876939 0.177128 0.197818 0.149784
C14   C     C_R   0.121821 0.174944 0.806902 0.150350
C15   C     C_R   0.353940 0.629468 0.139150 0.153029
C16   C     C_R   0.622835 0.673399 0.809600 0.150987
C17   C     C_R   0.776209 0.840788 0.604625 0.165617
C18   C     C_R   0.147169 0.710287 0.392874 0.165107
C19   C     C_R   0.278661 0.339007 0.607282 0.162725
C20   C     C_R   0.646402 0.208649 0.394624 0.165609
C21   C     C_R   0.760859 0.862309 0.504826 0.030638
C22   C     C_R   0.166290 0.739252 0.492647 0.035986
C23   C     C_R   0.262308 0.362328 0.507281 0.030911
C24   C     C_R   0.664671 0.237032 0.494251 0.033128
C25   C     C_R   0.692162 0.849248 0.406307 -0.203138
C26   C     C_R   0.219470 0.700093 0.590885 -0.197442
C27   C     C_R   0.193605 0.349133 0.409036 -0.203153
C28   C     C_R   0.719014 0.198781 0.592648 -0.198496
C29   C     C_R   0.151575 0.294116 0.408558 -0.199130
C30   C     C_R   0.765184 0.149657 0.593400 -0.203107
C31   C     C_R   0.648506 0.796840 0.406184 -0.198918
C32   C     C_R   0.264730 0.649532 0.591577 -0.200968
C33   C     C_R   0.178764 0.253505 0.506380 0.037670
C34   C     C_R   0.756237 0.138599 0.495503 0.031570
C35   C     C_R   0.674025 0.757892 0.504460 0.034200
C36   C     C_R   0.255938 0.638457 0.493845 0.031710
C37   C     C_R   0.237250 0.284708 0.606719 0.166197
C38   C     C_R   0.691534 0.159703 0.395337 0.162709
C39   C     C_R   0.733567 0.788532 0.604488 0.166549
C40   C     C_R   0.191571 0.660239 0.393476 0.157519
C41   C     C_3   0.795337 0.750270 0.708104 -0.530331
C42   C     C_3   0.175048 0.696471 0.291997 -0.520077
C43   C     C_3   0.299398 0.246600 0.709741 -0.530743
C44   C     C_3   0.674579 0.196011 0.293706 -0.526037
C45   C     C_R   0.086781 0.856404 0.406005 -0.144625
C46   C     C_R   0.885763 0.899110 0.592390 -0.154240
C47   C     C_R   0.585918 0.355262 0.406903 -0.144834
C48   C     C_R   0.386511 0.398903 0.593262 -0.146568
C49   C     C_3   0.841708 0.807733 0.708539 -0.523058
C50   C     C_3   0.126627 0.751258 0.291493 -0.523398
C51   C     C_3   0.344772 0.305873 0.710566 -0.520245
C52   C     C_3   0.625592 0.249854 0.293120 -0.523092
C53   C     C_2   0.147586 0.752642 0.869603 -0.217703
C54   C     C_2   0.806769 0.844129 0.023611 -0.222374
C55   C     C_2   0.690635 0.344259 0.976066 -0.220248
C56   C     C_2   0.306427 0.345294 0.022784 -0.220723
C57   C     C_2   0.195428 0.709529 0.875339 -0.108086
C58   C     C_2   0.737053 0.844002 0.966207 -0.111389
C59   C     C_2   0.760596 0.346000 0.036664 -0.113447
C60   C     C_2   0.236693 0.344953 0.965400 -0.108648
C61   C     C_2   0.850459 0.248601 0.133456 -0.219720
C62   C     C_2   0.147472 0.246723 0.870822 -0.218496
C63   C     C_2   0.307649 0.656736 0.025020 -0.221463
C64   C     C_2   0.648644 0.744988 0.873747 -0.217456
C65   C     C_2   0.802496 0.291694 0.127426 -0.107112
C66   C     C_2   0.194853 0.289698 0.875694 -0.106830
C67   C     C_2   0.237825 0.655493 0.966296 -0.107262
C68   C     C_2   0.695278 0.788361 0.877197 -0.107609
C69   C     C_R   0.166470 0.859020 0.589603 -0.124362
C70   C     C_R   0.812030 0.896280 0.409006 -0.120072
C71   C     C_R   0.662884 0.356148 0.591258 -0.124341
C72   C     C_R   0.312136 0.396538 0.409653 -0.122457
C73   C     C_R   0.060202 0.862951 0.765764 -0.148618
C74   C     C_R   0.923172 0.892642 0.197312 -0.168810
C75   C     C_R   0.574763 0.390781 0.800057 -0.148014
C76   C     C_R   0.423037 0.393045 0.197026 -0.166690
C77   C     C_R   0.853208 0.871849 0.137686 0.155055
C78   C     C_R   0.121840 0.824254 0.805670 0.151588
C79   C     C_R   0.352961 0.372601 0.137124 0.155908
C80   C     C_R   0.645242 0.371596 0.861905 0.151877
C81   C     C_R   0.140507 0.814576 0.496431 0.070586
C82   C     C_R   0.817500 0.882250 0.501687 0.077519
C83   C     C_R   0.638022 0.312095 0.497949 0.071020
C84   C     C_R   0.318204 0.382540 0.502956 0.076244
C85   C     C_R   0.811062 0.101247 0.408038 -0.157393
C86   C     C_R   0.170012 0.136434 0.593089 -0.142082
C87   C     C_R   0.311186 0.601751 0.407328 -0.145191
C88   C     C_R   0.667094 0.639235 0.591966 -0.141352
C89   C     C_R   0.935353 0.135055 0.228764 -0.146315
C90   C     C_R   0.060308 0.136355 0.766139 -0.147449
C91   C     C_R   0.423822 0.608284 0.199041 -0.159795
C92   C     C_R   0.560852 0.635503 0.767634 -0.146051
C93   C     C_R   0.154914 0.133480 0.774608 -0.128375
C94   C     C_R   0.847447 0.138049 0.237310 -0.124130
C95   C     C_R   0.655672 0.632191 0.776670 -0.130592
C96   C     C_R   0.333910 0.610531 0.202154 -0.117679
H1    H     H_    0.780987 0.889470 0.176954 0.080872
H2    H     H_    0.208068 0.856496 0.803000 0.084976
H3    H     H_    0.280815 0.390239 0.176495 0.079601
H4    H     H_    0.719790 0.393356 0.828727 0.081478
H5    H     H_    0.102528 0.277348 0.330054 0.125401
H6    H     H_    0.811817 0.129079 0.672194 0.124099
H7    H     H_    0.599503 0.780192 0.327581 0.125720
H8    H     H_    0.310873 0.628186 0.670317 0.123387
H9    H     H_    0.795030 0.758303 0.778793 0.184635
H10   H     H_    0.220648 0.726948 0.307617 0.204999
H11   H     H_    0.298933 0.253276 0.780445 0.184890
H12   H     H_    0.719865 0.227149 0.309128 0.200540
H13   H     H_    0.805182 0.689866 0.694956 0.200583
H14   H     H_    0.146490 0.656021 0.220207 0.186901
H15   H     H_    0.309750 0.186727 0.695738 0.200720
H16   H     H_    0.646426 0.155358 0.222162 0.188977
H17   H     H_    0.867611 0.849327 0.778863 0.188901
H18   H     H_    0.145160 0.812485 0.307048 0.201159
H19   H     H_    0.370404 0.346766 0.781647 0.188343
H20   H     H_    0.643629 0.311268 0.308501 0.200945
H21   H     H_    0.877346 0.779040 0.696457 0.202099
H22   H     H_    0.070227 0.742409 0.219348 0.190661
H23   H     H_    0.380570 0.278648 0.697783 0.204104
H24   H     H_    0.569304 0.240491 0.220871 0.190851
H25   H     H_    0.212058 0.723856 0.826835 0.123747
H26   H     H_    0.712800 0.872352 0.997255 0.125659
H27   H     H_    0.785631 0.374949 0.007638 0.126784
H28   H     H_    0.212463 0.372895 0.996737 0.123994
H29   H     H_    0.866404 0.262795 0.083941 0.127455
H30   H     H_    0.131164 0.261583 0.919787 0.128725
H31   H     H_    0.331217 0.685824 0.993416 0.127326
H32   H     H_    0.632801 0.759661 0.923395 0.129061
H33   H     H_    0.131247 0.738313 0.918538 0.130786
H34   H     H_    0.830309 0.815088 0.991595 0.128916
H35   H     H_    0.666376 0.314460 0.006066 0.133279
H36   H     H_    0.329951 0.316694 0.990467 0.128194
H37   H     H_    0.053691 0.839343 0.320510 0.110432
H38   H     H_    0.905400 0.908687 0.676075 0.099888
H39   H     H_    0.553102 0.338244 0.321415 0.110543
H40   H     H_    0.406817 0.408121 0.677365 0.099325
H41   H     H_    0.022843 0.848017 0.778582 0.098360
H42   H     H_    0.951527 0.896112 0.165089 0.094294
H43   H     H_    0.544341 0.392034 0.828857 0.093253
H44   H     H_    0.451445 0.396613 0.164899 0.093448
H45   H     H_    0.763480 0.092268 0.324421 0.099225
H46   H     H_    0.212793 0.147646 0.677818 0.099361
H47   H     H_    0.263893 0.593249 0.323313 0.097012
H48   H     H_    0.709407 0.651532 0.676445 0.099642
H49   H     H_    0.965375 0.145562 0.200941 0.086921
H50   H     H_    0.022783 0.151104 0.778831 0.098239
H51   H     H_    0.452810 0.605186 0.167850 0.092132
H52   H     H_    0.523370 0.650113 0.780474 0.097544
H53   H     H_    0.208400 0.141117 0.806244 0.084562
H54   H     H_    0.799551 0.151557 0.224500 0.089360
H55   H     H_    0.709412 0.639073 0.809003 0.084592
H56   H     H_    0.281518 0.610941 0.177522 0.080175
H57   H     H_    0.675391 0.870449 0.327660 0.123450
H58   H     H_    0.232072 0.715687 0.669016 0.120715
H59   H     H_    0.175980 0.371953 0.330609 0.123081
H60   H     H_    0.731728 0.214138 0.670897 0.127647
N1    N     N_R   0.888400 0.921830 0.294620 -0.044346
N2    N     N_R   0.111600 0.921830 0.705380 -0.043284
N3    N     N_R   0.388400 0.421830 0.294620 -0.043656
N4    N     N_R   0.611600 0.421830 0.705380 -0.043416
N5    N     N_R   0.079940 0.922160 0.443410 -0.040769
N6    N     N_R   0.920060 0.922160 0.556590 -0.037001
N7    N     N_R   0.579940 0.422160 0.443410 -0.040991
N8    N     N_R   0.420060 0.422160 0.556590 -0.037803
N9    N     N_R   0.125650 0.922400 0.556620 -0.040106
N10   N     N_R   0.874350 0.922400 0.443380 -0.038396
N11   N     N_R   0.625650 0.422400 0.556620 -0.041566
N12   N     N_R   0.374350 0.422400 0.443380 -0.039343
N13   N     N_R   0.054230 0.922730 0.705400 -0.042136
N14   N     N_R   0.945770 0.922730 0.294600 -0.040078
N15   N     N_R   0.554230 0.422730 0.705400 -0.040659
N16   N     N_R   0.445770 0.422730 0.294600 -0.039142
N17   N     N_R   0.873790 0.077030 0.443380 -0.037205
N18   N     N_R   0.126210 0.077030 0.556620 -0.039793
N19   N     N_R   0.373790 0.577030 0.443380 -0.038020
N20   N     N_R   0.626210 0.577030 0.556620 -0.040414
N21   N     N_R   0.945200 0.076700 0.294600 -0.039447
N22   N     N_R   0.054800 0.076700 0.705400 -0.042209
N23   N     N_R   0.445200 0.576700 0.294600 -0.038739
N24   N     N_R   0.554800 0.576700 0.705400 -0.040972
N25   N     N_R   0.111030 0.077600 0.705380 -0.043139
N26   N     N_R   0.888970 0.077600 0.294620 -0.044549
N27   N     N_R   0.611030 0.577600 0.705380 -0.041923
N28   N     N_R   0.388970 0.577600 0.294620 -0.043378
N29   N     N_R   0.919490 0.077280 0.556590 -0.036790
N30   N     N_R   0.080510 0.077280 0.443410 -0.039483
N31   N     N_R   0.419490 0.577280 0.556590 -0.037727
N32   N     N_R   0.580510 0.577280 0.443410 -0.040563
Ni1   Ni    Ni4+2 0.882160 0.999430 0.370180 0.205761
Ni2   Ni    Ni4+2 0.117840 0.999430 0.629820 0.213319
Ni3   Ni    Ni4+2 0.382160 0.499430 0.370180 0.203333
Ni4   Ni    Ni4+2 0.617840 0.499430 0.629820 0.209900
Ni5   Ni    Ni4+2 0.012460 0.999430 0.370180 0.212489
Ni6   Ni    Ni4+2 0.987540 0.999430 0.629820 0.208665
Ni7   Ni    Ni4+2 0.512460 0.499430 0.370180 0.210299
Ni8   Ni    Ni4+2 0.487540 0.499430 0.629820 0.207152
H61   H     H_    0.785540 0.277604 0.175477 0.128596
H62   H     H_    0.211309 0.274829 0.826952 0.126740
H63   H     H_    0.213562 0.627141 0.997024 0.124382
H64   H     H_    0.711232 0.773639 0.827734 0.126176
H65   H     H_    0.212461 0.846530 0.672735 0.084711
H66   H     H_    0.764271 0.899664 0.324302 0.081278
H67   H     H_    0.703783 0.340631 0.676533 0.092391
H68   H     H_    0.264180 0.399908 0.325120 0.081445
H69   H     H_    0.904416 0.099588 0.675849 0.081646
H70   H     H_    0.074921 0.149625 0.325387 0.085790
H71   H     H_    0.403929 0.599495 0.675255 0.081932
H72   H     H_    0.561894 0.657692 0.322180 0.092275

loop_
_geom_bond_atom_site_label_1
_geom_bond_atom_site_label_2
_ccdc_geom_bond_type
C25   C31   A    
C49   H17   S    
C90   N22   A    
C69   H65   S    
C55   C59   D    
N31   Ni8   S    
C92   H52   S    
C1    C77   A    
N30   Ni5   S    
C93   H53   S    
C76   C79   A    
C5    N29   A    
N29   Ni6   S    
C3    C79   A    
N27   Ni4   S    
C66   H62   S    
C91   H51   S    
C47   H39   S    
C39   C41   S    
N23   Ni7   S    
C8    N32   A    
C26   C32   A    
N11   Ni4   S    
N22   Ni6   S    
N17   N29   A    
N12   Ni3   S    
N21   Ni5   S    
C63   H31   S    
C32   C36   A    
C7    N31   A    
C11   C36   S    
C24   C83   S    
C57   C67   S    
C4    C80   A    
C67   H63   S    
N2    Ni2   S    
N19   Ni3   S    
N20   Ni4   S    
C27   C29   A    
N18   N30   A    
N21   N26   A    
C14   C62   S    
C29   C33   A    
C60   H28   S    
C17   C39   A    
C53   H33   S    
C8    H72   S    
C45   N5    A    
C14   C90   A    
C36   C40   A    
C18   C40   A    
C19   C37   A    
C9    C85   A    
C46   C82   A    
C93   N25   A    
C49   H21   S    
C20   C24   A    
N32   Ni7   S    
C11   C87   A    
C64   H32   S    
C74   C77   A    
C91   N23   A    
C51   H23   S    
C73   C78   A    
C32   H8    S    
N20   N32   A    
N26   Ni1   S    
C47   C83   A    
N1    Ni1   S    
C92   N24   A    
C75   C80   A    
C14   C93   A    
N24   Ni8   S    
N24   N27   A    
C2    N2    A    
C72   H68   S    
C54   C77   S    
C47   N7    A    
C44   C52   S    
C52   H20   S    
C89   H49   S    
C60   C66   S    
C34   C38   A    
C3    N3    A    
C72   N12   A    
C76   N16   A    
C43   H15   S    
C96   N28   A    
C41   C49   S    
C5    H69   S    
C38   C44   S    
C7    C11   A    
C71   C83   A    
C44   H12   S    
C59   H27   S    
C54   H34   S    
C63   C67   D    
C58   H26   S    
C6    H70   S    
C23   C84   S    
C30   C34   A    
C71   H67   S    
C25   H57   S    
C22   C81   S    
N3    Ni3   S    
N8    N12   A    
N4    Ni4   S    
C7    H71   S    
N3    N16   A    
C17   C49   S    
C15   C96   A    
C62   H30   S    
C62   C66   D    
C19   C23   A    
N15   Ni8   S    
N19   N31   A    
C70   H66   S    
C33   C37   A    
C56   C60   D    
C86   N18   A    
C31   H7    S    
C37   C43   S    
C35   C39   A    
C17   C21   A    
C5    C9    A    
C2    C78   A    
C3    H3    S    
N1    N14   A    
C46   H38   S    
C20   C38   A    
N25   Ni2   S    
C85   N17   A    
N7    Ni7   S    
N7    N11   A    
C8    C12   A    
C12   C88   A    
N6    Ni6   S    
N9    Ni2   S    
N28   Ni3   S    
C29   H5    S    
C1    N1    A    
C43   H11   S    
C12   C35   S    
C56   C79   S    
C72   C84   A    
C41   H9    S    
C30   H6    S    
C42   C50   S    
C65   H61   S    
C44   H16   S    
C58   C68   S    
N18   Ni2   S    
C16   C92   A    
C23   C27   A    
C89   N21   A    
C4    H4    S    
C75   N15   A    
C9    C34   S    
C31   C35   A    
C26   H58   S    
C95   H55   S    
C76   H44   S    
C1    H1    S    
C64   C68   D    
C52   H24   S    
C18   C50   S    
C86   H46   S    
N23   N28   A    
C54   C58   D    
C21   C25   A    
C10   C86   A    
C16   C95   A    
C53   C57   D    
C56   H36   S    
C13   C89   A    
C18   C22   A    
C45   H37   S    
C48   H40   S    
C45   C81   A    
C24   C28   A    
C40   C42   S    
C57   H25   S    
C6    C10   A    
N14   Ni5   S    
C61   H29   S    
N8    Ni8   S    
N2    N13   A    
N13   Ni6   S    
C48   N8    A    
C94   H54   S    
C87   N19   A    
C6    N30   A    
C55   H35   S    
C88   N20   A    
C51   H19   S    
C13   C94   A    
C68   H64   S    
N10   Ni1   S    
C87   H47   S    
C70   N10   A    
C53   C78   S    
C42   H14   S    
C28   C30   A    
C20   C52   S    
C75   H43   S    
C59   C65   S    
C55   C80   S    
C74   H42   S    
C95   N27   A    
C4    N4    A    
C73   H41   S    
C43   C51   S    
C19   C51   S    
C71   N11   A    
N17   Ni1   S    
N4    N15   A    
C94   N26   A    
N6    N10   A    
C10   C33   S    
C61   C65   D    
C70   C82   A    
C69   N9    A    
C74   N14   A    
N22   N25   A    
C69   C81   A    
N5    Ni5   S    
C15   C91   A    
C42   H10   S    
C48   C84   A    
C85   H45   S    
C13   C61   S    
C21   C82   S    
C2    H2    S    
C90   H50   S    
C22   C26   A    
C28   H60   S    
C15   C63   S    
N16   Ni7   S    
C41   H13   S    
C16   C64   S    
C50   H18   S    
C50   H22   S    
C73   N13   A    
C88   H48   S    
N5    N9    A    
C46   N6    A    
C27   H59   S    
C96   H56   S    
