data_mof_unit_43934.cif
_audit_creation_date              2012-10-26T21:02:57-0400
_audit_creation_method            fapswitch 2.2
_symmetry_space_group_name_H-M    P1
_symmetry_Int_Tables_number       1
_space_group_crystal_system       triclinic
_cell_length_a                    12.304505
_cell_length_b                    13.13957
_cell_length_c                    23.531064
_cell_angle_alpha                 77.74084
_cell_angle_beta                  101.089452
_cell_angle_gamma                 116.585537
_cell_volume                      3303.89847409

loop_
_atom_site_label
_atom_site_type_symbol
_atom_type_description
_atom_site_fract_x
_atom_site_fract_y
_atom_site_fract_z
_atom_type_partial_charge
C1    C     C_R   0.854838 0.286459 0.504399 0.532553
C2    C     C_R   0.031556 0.605754 0.871254 0.427501
C3    C     C_R   0.911996 0.517728 0.751955 -0.038718
C4    C     C_R   0.999445 0.500075 0.609017 0.564238
C5    C     C_R   0.908577 0.518665 0.691991 0.246023
C6    C     C_R   0.999947 0.502075 0.671706 0.012463
C7    C     C_R   0.094706 0.488738 0.712183 -0.190369
C8    C     C_R   0.098364 0.490579 0.771475 -0.072912
C9    C     C_R   0.007025 0.504879 0.791537 0.191595
C10   C     C_R   0.096130 0.484235 0.251273 -0.059365
C11   C     C_R   0.094637 0.483880 0.310387 -0.142269
C12   C     C_R   0.968743 0.302116 0.049576 -0.123142
C13   C     C_R   0.001574 0.499457 0.328740 0.000287
C14   C     C_R   0.909803 0.514783 0.286923 -0.155728
C15   C     C_R   0.911492 0.515017 0.227838 -0.062660
C16   C     C_R   0.145270 0.713747 0.491236 0.550321
C17   C     C_R   0.004758 0.500020 0.209798 0.239791
C18   C     C_R   0.271590 0.023667 0.420828 0.295649
C19   C     C_R   0.228309 0.835301 0.477896 -0.045140
C20   C     C_R   0.815224 0.082653 0.537220 -0.116224
C21   C     C_R   0.736984 0.966544 0.544808 -0.129982
C22   C     C_R   0.613938 0.929769 0.523586 -0.102769
C23   C     C_R   0.969483 0.303196 0.990340 -0.117844
C24   C     C_R   0.566893 0.009098 0.492286 0.025343
C25   C     C_R   0.650369 0.124734 0.477820 -0.020199
C26   C     C_R   0.439911 0.977200 0.474881 -0.057494
C27   C     C_R   0.398930 0.056496 0.437022 0.066699
C28   C     C_R   0.000458 0.499928 0.391113 0.544976
C29   C     C_R   0.486514 0.165006 0.415009 0.281742
C30   C     C_R   0.609833 0.197878 0.435854 -0.121763
C31   C     C_R   0.352416 0.869054 0.495879 -0.145851
C32   C     C_R   0.187585 0.913481 0.442196 -0.130871
C33   C     C_R   0.772912 0.163248 0.504991 0.004099
C34   C     C_R   0.990340 0.404548 0.950546 0.029269
C35   C     C_R   0.346638 0.329242 0.594705 0.251703
C36   C     C_R   0.760197 0.646341 0.421407 0.049732
C37   C     C_R   0.663861 0.678409 0.404493 -0.154781
C38   C     C_R   0.560074 0.623024 0.434121 -0.123941
C39   C     C_R   0.551430 0.534321 0.481399 0.005150
C40   C     C_R   0.028810 0.601914 0.111242 0.403069
C41   C     C_R   0.652738 0.504673 0.497157 0.184014
C42   C     C_R   0.447046 0.474673 0.513810 -0.047873
C43   C     C_R   0.446606 0.387490 0.561389 0.041753
C44   C     C_R   0.546450 0.360161 0.575697 -0.121865
C45   C     C_R   0.011140 0.506175 0.970713 -0.075112
C46   C     C_R   0.646755 0.417426 0.544482 -0.065232
C47   C     C_R   0.342354 0.497642 0.501229 0.025126
C48   C     C_R   0.245949 0.355344 0.579020 0.067519
C49   C     C_R   0.987427 0.402795 0.129707 0.398937
C50   C     C_R   0.988837 0.402366 0.070296 0.037915
C51   C     C_R   0.010295 0.504752 0.030800 -0.041824
C52   C     C_R   0.030543 0.605390 0.051373 -0.004364
C53   C     C_3   0.486032 0.254766 0.320827 -0.105594
C54   C     C_3   0.170067 0.063792 0.333095 -0.090287
C55   C     C_3   0.371081 0.286220 0.693493 -0.121070
C56   C     C_R   0.032312 0.608658 0.930971 0.063390
C57   C     C_3   0.826069 0.641323 0.643724 -0.103497
C58   C     C_R   0.053202 0.710041 0.951990 0.245699
C59   C     C_R   0.052045 0.707028 0.011996 -0.122214
C60   C     C_R   0.990016 0.406447 0.890803 0.401658
Cu1   Cu    Cu3+1 0.098270 0.475410 0.513370 0.932716
Cu2   Cu    Cu3+1 0.901730 0.524590 0.486630 0.932315
H1    H     H_    0.952128 0.222418 0.079015 0.164799
H2    H     H_    0.953365 0.224205 0.975840 0.168685
H3    H     H_    0.673391 0.281016 0.417086 0.158711
H4    H     H_    0.167027 0.309573 0.603129 0.133616
H5    H     H_    0.548315 0.294203 0.611915 0.174450
H6    H     H_    0.334585 0.561979 0.465883 0.127913
H7    H     H_    0.840549 0.689897 0.398264 0.123698
H8    H     H_    0.488579 0.651731 0.419211 0.099786
H9    H     H_    0.669714 0.746526 0.368358 0.109338
H10   H     H_    0.718583 0.391076 0.559948 0.200021
H11   H     H_    0.067839 0.784735 0.027768 0.154068
H12   H     H_    0.166624 0.471983 0.341584 0.141316
H13   H     H_    0.840065 0.526384 0.767908 0.132853
H14   H     H_    0.166605 0.476983 0.698106 0.135173
H15   H     H_    0.172209 0.480668 0.801961 0.144045
H16   H     H_    0.168679 0.472917 0.237580 0.131622
H17   H     H_    0.454648 0.169718 0.306227 0.105855
H18   H     H_    0.586548 0.304160 0.320246 0.103445
H19   H     H_    0.441945 0.303752 0.288608 0.148758
H20   H     H_    0.224401 0.035751 0.312387 0.103279
H21   H     H_    0.159284 0.136701 0.302808 0.164124
H22   H     H_    0.077049 0.993717 0.338023 0.104397
H23   H     H_    0.836713 0.526532 0.299780 0.126761
H24   H     H_    0.461947 0.361500 0.695886 0.125047
H25   H     H_    0.374914 0.218309 0.729916 0.169679
H26   H     H_    0.298488 0.309604 0.700245 0.108906
H27   H     H_    0.086922 0.872801 0.935599 0.321928
H28   H     H_    0.751497 0.648103 0.610402 0.135589
H29   H     H_    0.914328 0.700244 0.625846 0.137169
H30   H     H_    0.819682 0.669125 0.683948 0.123763
H31   H     H_    0.840309 0.526810 0.195986 0.130259
H32   H     H_    0.090594 0.888131 0.429737 0.127159
H33   H     H_    0.378339 0.808656 0.527049 0.137465
H34   H     H_    0.908833 0.109494 0.557390 0.139529
H35   H     H_    0.558936 0.838302 0.531088 0.100963
H36   H     H_    0.771104 0.904796 0.568831 0.113953
N1    N     N_R   0.007103 0.501589 0.148919 -0.395435
N2    N     N_R   0.010139 0.505793 0.852676 -0.412994
N3    N     N_R   0.246280 0.438190 0.533650 -0.266926
N4    N     N_R   0.754320 0.561190 0.466710 -0.237027
O1    O     O_R   0.972510 0.318130 0.516820 -0.496004
O2    O     O_R   0.082990 0.479280 0.429170 -0.497350
O3    O     O_R   0.917010 0.520800 0.406580 -0.515534
O4    O     O_2   0.049466 0.698148 0.131777 -0.503127
O5    O     O_3   0.451443 0.243306 0.376474 -0.509727
O6    O     O_3   0.229257 0.101703 0.387307 -0.507270
O7    O     O_3   0.344193 0.242390 0.640231 -0.574794
O8    O     O_3   0.074232 0.810942 0.913715 -0.625720
O9    O     O_3   0.810460 0.526123 0.654294 -0.573815
O10   O     O_2   0.965473 0.305129 0.167915 -0.508698
O11   O     O_2   0.968455 0.309458 0.870748 -0.490580
O12   O     O_2   0.052541 0.701704 0.831856 -0.419014
O13   O     O_R   0.806530 0.359650 0.494230 -0.533207
O14   O     O_R   0.082990 0.479200 0.593420 -0.516337
O15   O     O_R   0.917010 0.520720 0.570830 -0.471558
O16   O     O_R   0.193470 0.640350 0.505770 -0.507132
O17   O     O_R   0.027490 0.681870 0.483180 -0.508164

loop_
_geom_bond_atom_site_label_1
_geom_bond_atom_site_label_2
_ccdc_geom_bond_type
C32   H32   S    
C38   H8    S    
C47   N3    A    
C57   H30   S    
C27   C29   A    
C2    O12   S    
C19   C31   A    
C40   N1    A    
C54   H22   S    
C10   H16   S    
C1    C33   S    
C7    C8    A    
C39   C41   A    
Cu2   O3    S    
C57   O9    S    
C12   C23   A    
C26   C27   A    
C29   C30   A    
C36   N4    A    
C36   C37   A    
Cu1   O1    S    
C24   C26   A    
C38   C39   A    
C35   C48   A    
C10   C17   A    
C41   N4    A    
C53   H19   S    
C55   H26   S    
C28   O2    A    
Cu2   O15   S    
C45   C56   A    
C8    C9    A    
C41   C46   A    
C13   C28   S    
C35   C43   A    
C1    O1    A    
C46   H10   S    
C35   O7    S    
C20   H34   S    
C2    N2    A    
C26   C31   A    
C22   H35   S    
C21   C22   A    
C55   O7    S    
C34   C60   A    
C60   O11   S    
C19   C32   A    
C54   H21   S    
C44   C46   A    
C39   C42   A    
C57   H28   S    
C51   C52   A    
C53   H18   S    
C24   C25   A    
C4    C6    S    
C16   O17   A    
C12   H1    S    
C5    O9    S    
C3    C5    A    
C58   C59   A    
C40   C52   A    
H27   O8    S    
Cu1   N3    S    
C43   C44   A    
C37   C38   A    
C3    C9    A    
C52   C59   A    
C16   O16   A    
C49   N1    A    
C53   O5    S    
C28   O3    A    
C23   C34   A    
Cu1   O2    S    
Cu1   O14   S    
C50   C51   A    
C34   C45   A    
C17   N1    S    
Cu2   O17   S    
C7    H14   S    
C49   O10   S    
C20   C33   A    
C23   H2    S    
C9    N2    S    
C37   H9    S    
C8    H15   S    
C22   C24   A    
C4    O15   A    
C18   C32   A    
C42   C43   A    
C47   H6    S    
C54   H20   S    
C3    H13   S    
C36   H7    S    
C40   O4    S    
C25   C30   A    
C15   C17   A    
C59   H11   S    
C57   H29   S    
C53   H17   S    
Cu1   O16   S    
C58   O8    S    
C4    O14   A    
C18   C27   A    
C14   H23   S    
C60   N2    A    
C11   H12   S    
C15   H31   S    
C12   C50   A    
C6    C7    A    
C54   O6    S    
C55   H24   S    
Cu2   O13   S    
C2    C56   A    
C21   H36   S    
C11   C13   A    
C5    C6    A    
C16   C19   S    
C31   H33   S    
C48   N3    A    
C56   C58   A    
C42   C47   A    
C55   H25   S    
Cu1   Cu2   S    
C18   O6    S    
C30   H3    S    
C10   C11   A    
C20   C21   A    
C49   C50   A    
C45   C51   A    
C14   C15   A    
C29   O5    S    
C44   H5    S    
C1    O13   A    
C48   H4    S    
C13   C14   A    
C25   C33   A    
Cu2   N4    S    
