data_mof_unit_8841.cif
_audit_creation_date              2012-12-11T17:37:44-0500
_audit_creation_method            fapswitch 2.2
_symmetry_space_group_name_H-M    P1
_symmetry_Int_Tables_number       1
_space_group_crystal_system       triclinic
_cell_length_a                    13.00913
_cell_length_b                    13.077569
_cell_length_c                    15.55754
_cell_angle_alpha                 117.374835
_cell_angle_beta                  63.735431
_cell_angle_gamma                 97.647053
_cell_volume                      2099.47220603

loop_
_atom_site_label
_atom_site_type_symbol
_atom_type_description
_atom_site_fract_x
_atom_site_fract_y
_atom_site_fract_z
_atom_type_partial_charge
C1    C     C_R   0.009158 0.834679 0.048524 -0.122855
C2    C     C_R   0.673341 0.536134 0.320831 -0.009252
C3    C     C_R   0.638013 0.559172 0.018616 0.087393
C4    C     C_R   0.087703 0.788274 0.296007 0.073267
C5    C     C_R   0.323705 0.577577 0.008550 -0.106467
C6    C     C_R   0.960118 0.179151 0.780936 -0.124067
C7    C     C_R   0.214953 0.468585 0.686338 -0.121484
C8    C     C_R   0.075459 0.251310 0.065936 -0.133203
C9    C     C_R   0.968744 0.166802 0.977633 -0.086156
C10   C     C_R   0.313973 0.564324 0.782977 -0.143500
C11   C     C_R   0.245399 0.479447 0.104658 -0.149231
C12   C     C_R   0.681522 0.453705 0.221061 0.164592
C13   C     C_R   0.036456 0.277262 0.684666 0.002758
C14   C     C_R   0.337882 0.539978 0.072125 0.158690
C15   C     C_R   0.018240 0.167409 0.677448 0.009177
C16   C     C_R   0.317933 0.513117 0.681366 0.061904
C17   C     C_R   0.041603 0.144505 0.012358 0.034172
C18   C     C_R   0.432681 0.908635 0.119691 -0.127814
C19   C     C_R   0.352169 0.894746 0.209186 -0.150366
C20   C     C_R   0.258606 0.978157 0.287738 0.113593
C21   C     C_R   0.246706 0.074979 0.274770 -0.180675
C22   C     C_R   0.327044 0.088139 0.185097 -0.081576
C23   C     C_R   0.739612 0.576494 0.946925 -0.012132
C24   C     C_R   0.420132 0.005259 0.107817 -0.052253
C25   C     C_R   0.147043 0.062181 0.484999 -0.222290
C26   C     C_R   0.059372 0.059696 0.578226 0.068117
C27   C     C_R   0.016437 0.953577 0.574042 0.031248
C28   C     C_R   0.063120 0.855045 0.477943 -0.219324
C29   C     C_R   0.121572 0.864847 0.382078 0.042616
C30   C     C_R   0.175373 0.966737 0.385000 0.035905
C31   C     C_R   0.908689 0.874832 0.706109 -0.205190
C32   C     C_R   0.805303 0.858225 0.779633 -0.066275
C33   C     C_R   0.701126 0.908096 0.804537 -0.088686
C34   C     C_R   0.024971 0.694690 0.296178 -0.133386
C35   C     C_R   0.700071 0.975691 0.756714 -0.115102
C36   C     C_R   0.803233 0.992559 0.683110 -0.130378
C37   C     C_R   0.908339 0.942438 0.657627 0.095297
C38   C     C_R   0.893200 0.340039 0.326869 -0.047583
C39   C     C_R   0.774423 0.366295 0.373867 -0.114256
C40   C     C_R   0.724840 0.476551 0.457921 0.079103
C41   C     C_R   0.793904 0.557177 0.499024 -0.043714
C42   C     C_R   0.912986 0.531409 0.449587 -0.035826
C43   C     C_R   0.962914 0.423834 0.362158 -0.072293
C44   C     C_R   0.518053 0.510805 0.573951 -0.233463
C45   C     C_R   0.661328 0.480078 0.043928 -0.108183
C46   C     C_R   0.405502 0.527335 0.591895 0.062932
C47   C     C_R   0.380312 0.555082 0.524504 0.041404
C48   C     C_R   0.471126 0.566818 0.440301 -0.218164
C49   C     C_R   0.583483 0.545266 0.420259 0.101168
C50   C     C_R   0.607758 0.515245 0.486175 0.019971
C51   C     C_R   0.232410 0.458647 0.460648 -0.246130
C52   C     C_R   0.116915 0.435153 0.489733 -0.347350
C53   C     C_R   0.030888 0.512098 0.587560 0.644896
C54   C     C_R   0.060405 0.617579 0.650763 -0.296568
C55   C     C_R   0.175910 0.640504 0.623128 -0.218178
C56   C     C_R   0.100961 0.797466 0.206331 -0.144339
C57   C     C_R   0.262905 0.556979 0.531811 0.144193
C58   C     C_2   0.432480 0.561897 0.100639 -0.217645
C59   C     C_2   0.526019 0.599720 0.044861 -0.191146
C60   C     C_2   0.859570 0.965709 0.069600 -0.205173
C61   C     C_2   0.843468 0.051371 0.165738 -0.121723
C62   C     C_R   0.781561 0.568957 0.310207 -0.150482
C63   C     C_R   0.915552 0.752330 0.946142 -0.159075
C64   C     C_R   0.929925 0.857045 0.020551 0.125917
H1    H     H_    0.040374 0.896430 0.105075 0.098437
H2    H     H_    0.930609 0.112814 0.805826 0.119092
H3    H     H_    0.189863 0.425450 0.622635 0.117277
H4    H     H_    0.127896 0.267993 0.108097 0.094010
H5    H     H_    0.917910 0.104304 0.943120 0.099259
H6    H     H_    0.376602 0.615699 0.808661 0.105524
H7    H     H_    0.223814 0.450499 0.165052 0.092929
H8    H     H_    0.069678 0.299700 0.619382 0.105110
H9    H     H_    0.482687 0.016374 0.039036 0.110414
H10   H     H_    0.505394 0.845154 0.059846 0.103612
H11   H     H_    0.363337 0.820069 0.217995 0.129830
H12   H     H_    0.174899 0.139978 0.333815 0.119029
H13   H     H_    0.317376 0.162914 0.175788 0.119366
H14   H     H_    0.189322 0.140213 0.488667 0.124090
H15   H     H_    0.030555 0.775115 0.478452 0.118726
H16   H     H_    0.989051 0.835609 0.686782 0.128319
H17   H     H_    0.805521 0.805974 0.816718 0.123254
H18   H     H_    0.621261 0.893591 0.860285 0.096470
H19   H     H_    0.619254 0.014083 0.775893 0.118956
H20   H     H_    0.801314 0.043514 0.645126 0.130832
H21   H     H_    0.055291 0.404706 0.322990 0.083172
H22   H     H_    0.746741 0.620157 0.900746 0.138136
H23   H     H_    0.931637 0.255845 0.261497 0.105165
H24   H     H_    0.722112 0.303459 0.340974 0.146230
H25   H     H_    0.757015 0.642991 0.563030 0.123429
H26   H     H_    0.966604 0.595208 0.478935 0.087662
H27   H     H_    0.535947 0.486614 0.624383 0.148695
H28   H     H_    0.454674 0.585058 0.385897 0.140981
H29   H     H_    0.298291 0.393155 0.389883 0.179396
H30   H     H_    0.095910 0.353130 0.440004 0.178540
H31   H     H_    0.994849 0.678150 0.725424 0.149420
H32   H     H_    0.014170 0.649654 0.341843 0.086729
H33   H     H_    0.197678 0.716887 0.678718 0.142326
H34   H     H_    0.433421 0.524659 0.149831 0.143569
H35   H     H_    0.524429 0.640294 0.998510 0.125865
H36   H     H_    0.812894 0.973693 0.029602 0.144255
H37   H     H_    0.884046 0.047118 0.211886 0.123714
H38   H     H_    0.600756 0.439081 0.088634 0.139312
H39   H     H_    0.153937 0.853615 0.174316 0.113303
H40   H     H_    0.805626 0.631705 0.371616 0.117820
H41   H     H_    0.864881 0.742132 0.904620 0.090498
H42   H     H_    0.369808 0.640127 0.981653 0.086856
N1    N     N_R   0.037320 0.720000 0.995830 -0.049989
N2    N     N_R   0.946240 0.290870 0.848020 -0.046128
N3    N     N_R   0.146160 0.501170 0.788610 -0.045280
N4    N     N_R   0.025750 0.332680 0.063570 -0.040690
N5    N     N_R   0.962680 0.280000 0.004170 -0.043144
N6    N     N_R   0.209230 0.553860 0.848010 -0.045367
N7    N     N_R   0.175100 0.482030 0.063570 -0.042542
N8    N     N_R   0.996810 0.351820 0.788610 -0.028211
N9    N     N_R   0.790770 0.446140 0.151990 -0.056710
N10   N     N_R   0.824900 0.517970 0.936430 -0.024724
N11   N     N_R   0.003190 0.648180 0.211390 -0.040532
N12   N     N_R   0.774330 0.457010 0.995830 -0.049723
N13   N     N_R   0.053760 0.709130 0.151980 -0.043269
N14   N     N_R   0.853840 0.498830 0.211390 -0.047640
N15   N     N_R   0.974250 0.667320 0.936430 -0.039344
N16   N     N_R   0.225670 0.542990 0.004170 -0.047042
Ni1   Ni    Ni4+2 0.130310 0.630310 0.000000 0.201831
Ni2   Ni    Ni4+2 0.869690 0.369690 0.000000 0.249006
Ni3   Ni    Ni4+2 0.985660 0.509480 0.863750 0.287686
Ni4   Ni    Ni4+2 0.014340 0.490520 0.136250 0.204682
I1    I     I_    0.577453 0.312298 0.195556 -0.546265
S1    S     S_3+6 0.889556 0.471452 0.637270 -0.113437
O1    O     O_2   0.873557 0.436033 0.720656 -0.339867
O2    O     O_2   0.803889 0.572322 0.688415 -0.368433
O3    O     O_3   0.865895 0.358231 0.539517 -0.553814
H43   H     H_    0.782794 0.348640 0.573044 0.373972

loop_
_geom_bond_atom_site_label_1
_geom_bond_atom_site_label_2
_ccdc_geom_bond_type
C45   N12   A    
C9    N5    A    
C41   H25   S    
S1    O3    S    
C59   H35   S    
C41   C42   A    
C3    C23   A    
C19   C20   A    
C58   H34   S    
N1    Ni1   S    
C2    C12   A    
S1    O1    D    
C31   H16   S    
C12   I1    S    
C20   C30   S    
C53   C54   A    
C32   H17   S    
C21   H12   S    
C26   C27   A    
C18   C24   A    
C28   C29   A    
C53   S1    S    
C34   H32   S    
N11   N13   A    
C38   C39   A    
C11   C14   A    
C11   H7    S    
C24   H9    S    
C44   C50   A    
C18   C19   A    
N2    N8    A    
C49   C50   A    
C28   H15   S    
N4    N5    A    
C36   H20   S    
C6    C15   A    
C54   C55   A    
N7    N16   A    
C35   C36   A    
C23   H22   S    
C1    H1    S    
C52   H30   S    
C51   C57   A    
C63   H41   S    
N11   Ni4   S    
C62   N14   A    
C13   N8    A    
C12   N9    A    
C34   N11   A    
C23   N10   A    
C18   H10   S    
C21   C22   A    
C4    C56   A    
C39   H24   S    
N2    Ni2   S    
C63   N15   A    
C44   C46   A    
C62   H40   S    
C5    H42   S    
C14   C58   S    
C4    C34   A    
C51   C52   A    
C43   H21   S    
C56   H39   S    
N6    Ni1   S    
N3    N6    A    
C16   C46   S    
C39   C40   A    
N8    Ni3   S    
C35   H19   S    
C15   C26   S    
N7    Ni4   S    
C58   C59   D    
C25   H14   S    
C3    C45   A    
C31   C37   A    
C60   C61   D    
C42   H26   S    
C61   H37   S    
N15   Ni3   S    
C29   C30   A    
C2    C49   S    
C8    N4    A    
C47   C57   S    
C47   C48   A    
C55   H33   S    
C54   H31   S    
N12   Ni2   S    
C10   N6    A    
C5    C14   A    
C44   H27   S    
N4    Ni4   S    
C10   H6    S    
N3    Ni3   S    
C48   C49   A    
C1    N1    A    
C8    H4    S    
N10   Ni3   S    
C55   C57   A    
C56   N13   A    
C22   C24   A    
C42   C43   A    
N1    N15   A    
O3    H43   S    
C1    C64   A    
C52   C53   A    
C33   H18   S    
C9    C17   A    
C25   C30   A    
C46   C47   A    
C40   C41   A    
N9    Ni2   S    
N5    Ni2   S    
C31   C32   A    
C7    C16   A    
C4    C29   S    
C22   H13   S    
C9    H5    S    
C60   H36   S    
S1    O2    D    
C13   H8    S    
N13   Ni1   S    
C8    C17   A    
C51   H29   S    
C38   H23   S    
C60   C64   S    
C32   C33   A    
C13   C15   A    
C25   C26   A    
C38   C43   A    
C10   C16   A    
C27   C37   S    
C40   C50   S    
C5    N16   A    
C19   H11   S    
C33   C35   A    
N10   N12   A    
N14   Ni4   S    
C11   N7    A    
C45   H38   S    
C7    H3    S    
C63   C64   A    
C7    N3    A    
C6    H2    S    
C20   C21   A    
C36   C37   A    
N9    N14   A    
C48   H28   S    
C27   C28   A    
C6    N2    A    
N16   Ni1   S    
C2    C62   A    
C3    C59   S    
