data_mof_unit_21584.cif
_audit_creation_date              2012-12-10T17:22:10-0500
_audit_creation_method            fapswitch 2.2
_symmetry_space_group_name_H-M    P1
_symmetry_Int_Tables_number       1
_space_group_crystal_system       triclinic
_cell_length_a                    15.865241
_cell_length_b                    10.862059
_cell_length_c                    9.617812
_cell_angle_alpha                 89.345082
_cell_angle_beta                  89.073981
_cell_angle_gamma                 93.317095
_cell_volume                      1654.30977954

loop_
_atom_site_label
_atom_site_type_symbol
_atom_type_description
_atom_site_fract_x
_atom_site_fract_y
_atom_site_fract_z
_atom_type_partial_charge
C1    C     C_R   0.502602 0.262106 0.502136 0.787813
C2    C     C_3   0.946154 0.392791 0.601641 -0.385233
C3    C     C_3   0.916616 0.490029 0.496238 0.280791
C4    C     C_3   0.953673 0.618197 0.542619 -0.447716
C5    C     C_3   0.051345 0.620251 0.545466 -0.385352
C6    C     C_1   0.824423 0.490518 0.497584 -0.095358
C7    C     C_1   0.174798 0.496246 0.502448 -0.098590
C8    C     C_1   0.250483 0.497886 0.502777 -0.182676
C9    C     C_R   0.495572 0.107798 0.771021 -0.187117
C10   C     C_R   0.463461 0.042412 0.887684 -0.168510
C11   C     C_R   0.424603 0.925735 0.872644 -0.121551
C12   C     C_R   0.340310 0.499289 0.501002 0.819534
C13   C     C_R   0.425589 0.869630 0.743335 -0.147782
C14   C     C_R   0.464936 0.930852 0.626420 0.096101
C15   C     C_R   0.488256 0.057715 0.635531 0.099996
C16   C     C_R   0.503113 0.126895 0.508910 -0.113433
C17   C     C_R   0.508774 0.064747 0.382578 -0.218783
C18   C     C_R   0.501762 0.937565 0.379607 -0.234830
C19   C     C_R   0.482742 0.869357 0.501228 -0.117122
C20   C     C_R   0.589860 0.700755 0.130829 0.288337
C21   C     C_R   0.606338 0.808110 0.050251 -0.278149
C22   C     C_R   0.614316 0.797891 0.908384 -0.224031
C23   C     C_R   0.492606 0.736326 0.499900 0.772858
C24   C     C_R   0.593352 0.685898 0.847770 -0.129062
C25   C     C_R   0.545624 0.592422 0.921638 0.164383
C26   C     C_R   0.545036 0.595326 0.070910 0.161302
C27   C     C_R   0.456574 0.411503 0.076212 -0.071701
C28   C     C_R   0.455946 0.412275 0.928593 -0.084200
C29   C     C_R   0.659500 0.497818 0.499354 0.840260
C30   C     C_3   0.043757 0.392442 0.600313 -0.385304
C31   C     C_3   0.050913 0.466498 0.351494 -0.401472
C32   C     C_3   0.952873 0.465950 0.347003 0.136233
C33   C     C_1   0.748941 0.493179 0.498651 -0.200873
C34   C     C_3   0.082497 0.494014 0.500170 0.287086
Cu1   Cu    Cu3+1 0.499990 0.499990 0.640660 0.922401
Cu2   Cu    Cu3+1 0.500010 0.500010 0.359340 0.950698
H1    H     H_    0.918371 0.299176 0.578706 0.154340
H2    H     H_    0.067281 0.407962 0.707480 0.169078
H3    H     H_    0.923585 0.414956 0.708179 0.169390
H4    H     H_    0.933919 0.691448 0.470202 0.155508
H5    H     H_    0.520602 0.114402 0.285212 0.159980
H6    H     H_    0.529591 0.193939 0.791918 0.171570
H7    H     H_    0.394499 0.778776 0.735905 0.156566
H8    H     H_    0.511710 0.892722 0.281471 0.162728
H9    H     H_    0.420722 0.338978 0.132917 0.136265
H10   H     H_    0.063500 0.300417 0.567200 0.161243
H11   H     H_    0.633636 0.891010 0.097401 0.147673
H12   H     H_    0.643381 0.873493 0.846903 0.162287
H13   H     H_    0.615393 0.676819 0.743374 0.198603
H14   H     H_    0.419205 0.340731 0.875644 0.141129
H15   H     H_    0.078803 0.537614 0.277252 0.141383
H16   H     H_    0.073424 0.376271 0.317218 0.176175
H17   H     H_    0.936882 0.544037 0.277795 0.124615
H18   H     H_    0.073219 0.641854 0.652312 0.170885
H19   H     H_    0.078444 0.694690 0.474737 0.163093
H20   H     H_    0.928853 0.639970 0.647914 0.177964
N1    N     N_R   0.500800 0.501210 0.147910 -0.189804
N2    N     N_R   0.500820 0.501290 0.852040 -0.192634
O1    O     O_R   0.499990 0.319640 0.618810 -0.596725
O2    O     O_R   0.500000 0.319660 0.381240 -0.587233
O3    O     O_R   0.379430 0.499990 0.618840 -0.576978
O4    O     O_R   0.379440 0.500020 0.381260 -0.572598
O5    O     O_R   0.500000 0.680340 0.618760 -0.604405
O6    O     O_R   0.500010 0.680360 0.381190 -0.576325
O7    O     O_R   0.620560 0.499980 0.618740 -0.602302
O8    O     O_R   0.620570 0.500010 0.381160 -0.531598
H21   H     H_    0.468104 0.083002 0.989797 0.127690
H22   H     H_    0.396685 0.876640 0.962182 0.133710
N3    N     N_2   0.645204 0.690282 0.243699 -0.356370
H23   H     H_    0.647387 0.766459 0.307046 0.232082
C35   C     C_3   0.729699 0.659991 0.200875 -0.702314
H24   H     H_    0.771319 0.659681 0.292157 0.215897
H25   H     H_    0.757998 0.729872 0.125882 0.211553
H26   H     H_    0.727843 0.567614 0.152302 0.238323
N4    N     N_2   0.919480 0.350173 0.288222 -0.426472
H27   H     H_    0.921563 0.271529 0.348589 0.255189
C36   C     C_3   0.848495 0.353823 0.195888 -0.718827
H28   H     H_    0.841028 0.265107 0.140001 0.226075
H29   H     H_    0.859225 0.428930 0.117137 0.224158
H30   H     H_    0.789470 0.366891 0.255669 0.240489

loop_
_geom_bond_atom_site_label_1
_geom_bond_atom_site_label_2
_ccdc_geom_bond_type
C22   H12   S    
Cu1   Cu2   S    
C31   H16   S    
C3    C6    S    
C32   N4    S    
C7    C8    T    
C10   H21   S    
C9    H6    S    
Cu1   N2    S    
C1    O1    A    
Cu2   O8    S    
Cu1   O7    S    
C15   C16   A    
C29   C33   S    
C30   H2    S    
Cu1   O1    S    
C18   C19   A    
N3    C35   S    
C28   H14   S    
C2    H3    S    
C4    H4    S    
C16   C17   A    
C9    C10   A    
C27   H9    S    
C23   O5    A    
C21   C22   A    
C4    H20   S    
N3    H23   S    
Cu2   O4    S    
C5    H19   S    
C36   H29   S    
C30   C34   S    
C5    H18   S    
C24   C25   A    
Cu2   N1    S    
C27   N1    A    
C1    O2    A    
C35   H25   S    
C25   C26   A    
C36   H28   S    
C19   C23   S    
N4    H27   S    
C18   H8    S    
C12   O4    A    
C31   C32   S    
C8    C12   S    
C5    C34   S    
C17   C18   A    
C31   C34   S    
Cu1   O3    S    
C1    C16   S    
N4    C36   S    
C29   O7    A    
C23   O6    A    
C7    C34   S    
C22   C24   A    
C20   N3    S    
C25   N2    A    
C3    C4    S    
C32   H17   S    
C13   H7    S    
C11   H22   S    
C36   H30   S    
C24   H13   S    
C14   C19   A    
C30   H10   S    
C31   H15   S    
C4    C5    S    
Cu2   O2    S    
C35   H26   S    
C28   N2    A    
C6    C33   T    
C2    C30   S    
C2    C3    S    
C9    C15   A    
C35   H24   S    
Cu2   O6    S    
C12   O3    A    
C11   C13   A    
C2    H1    S    
C20   C26   A    
C3    C32   S    
C26   N1    A    
C17   H5    S    
C10   C11   A    
C29   O8    A    
C20   C21   A    
C27   C28   A    
C14   C15   A    
Cu1   O5    S    
C13   C14   A    
C21   H11   S    
