data_mof_unit_23979.cif
_audit_creation_date              2012-12-10T20:35:49-0500
_audit_creation_method            fapswitch 2.2
_symmetry_space_group_name_H-M    P1
_symmetry_Int_Tables_number       1
_space_group_crystal_system       triclinic
_cell_length_a                    15.744683
_cell_length_b                    10.675752
_cell_length_c                    9.860748
_cell_angle_alpha                 89.630186
_cell_angle_beta                  90.120049
_cell_angle_gamma                 89.999004
_cell_volume                      1657.41878872

loop_
_atom_site_label
_atom_site_type_symbol
_atom_type_description
_atom_site_fract_x
_atom_site_fract_y
_atom_site_fract_z
_atom_type_partial_charge
C1    C     C_R   0.502668 0.259828 0.500296 0.883573
C2    C     C_3   0.950669 0.500956 0.650290 0.368946
C3    C     C_3   0.917099 0.505593 0.501088 0.081067
C4    C     C_3   0.950213 0.629399 0.435639 -0.379540
C5    C     C_3   0.048814 0.630819 0.432166 0.076694
C6    C     C_1   0.825702 0.503758 0.500914 -0.002243
C7    C     C_1   0.174257 0.504406 0.499436 -0.070492
C8    C     C_1   0.249502 0.501882 0.499545 -0.168510
C9    C     C_R   0.521420 0.062654 0.622626 0.071853
C10   C     C_R   0.516932 0.128416 0.500424 -0.102221
C11   C     C_R   0.529845 0.065488 0.377545 -0.220948
C12   C     C_R   0.338301 0.499879 0.499908 0.901819
C13   C     C_R   0.530250 0.936007 0.377100 -0.207962
C14   C     C_R   0.517566 0.871181 0.499435 -0.176112
C15   C     C_R   0.521564 0.934848 0.621986 0.139650
C16   C     C_3   0.465926 0.925324 0.744193 0.380792
C17   C     C_3   0.465857 0.067702 0.745290 -0.582148
C18   C     C_R   0.426773 0.478086 0.071272 0.185869
C19   C     C_R   0.570496 0.533186 0.071900 -0.162703
C20   C     C_R   0.570520 0.533094 0.928005 -0.075381
C21   C     C_R   0.426605 0.478907 0.928696 0.137409
C22   C     C_3   0.372769 0.364285 0.923245 -0.586901
C23   C     C_R   0.503012 0.740021 0.499616 0.870164
C24   C     C_3   0.374153 0.362246 0.077692 0.341493
C25   C     C_R   0.661691 0.500211 0.500094 0.905137
C26   C     C_3   0.049430 0.497576 0.647698 -0.464602
C27   C     C_3   0.050177 0.394079 0.416861 -0.530374
C28   C     C_3   0.952489 0.386327 0.428015 0.357965
C29   C     C_1   0.750472 0.501976 0.500516 -0.167604
C30   C     C_3   0.082728 0.507598 0.499696 0.149077
H1    H     H_    0.927096 0.412004 0.697778 0.043234
H2    H     H_    0.075984 0.575035 0.709737 0.214529
H3    H     H_    0.924542 0.646003 0.332628 0.124112
H4    H     H_    0.533366 0.115027 0.281477 0.171273
H5    H     H_    0.534087 0.887891 0.280973 0.171725
H6    H     H_    0.403300 0.881250 0.720788 0.056357
H7    H     H_    0.402280 0.108374 0.723029 0.159534
H8    H     H_    0.499556 0.108494 0.833839 0.226576
H9    H     H_    0.627815 0.558239 0.125826 0.161264
H10   H     H_    0.071831 0.408403 0.694739 0.135678
H11   H     H_    0.627856 0.558010 0.874079 0.160006
H12   H     H_    0.309152 0.383925 0.878756 0.225210
H13   H     H_    0.406577 0.283929 0.877885 0.176706
H14   H     H_    0.409731 0.282244 0.124266 0.076746
H15   H     H_    0.071085 0.402290 0.309822 0.195190
H16   H     H_    0.078677 0.305652 0.456820 0.164764
H17   H     H_    0.940541 0.306979 0.499387 0.093775
H18   H     H_    0.070101 0.631900 0.324336 0.133704
H19   H     H_    0.926019 0.710001 0.495265 0.242007
N1    N     N_R   0.499430 0.499140 0.142800 -0.143800
N2    N     N_R   0.499430 0.499180 0.857150 -0.100461
O1    O     O_R   0.500010 0.316790 0.614690 -0.609933
O2    O     O_R   0.500000 0.316760 0.385350 -0.633535
O3    O     O_R   0.377150 0.500020 0.614720 -0.623071
O4    O     O_R   0.377140 0.499990 0.385380 -0.575891
O5    O     O_R   0.500000 0.683240 0.614650 -0.594966
O6    O     O_R   0.499990 0.683210 0.385310 -0.625316
O7    O     O_R   0.622860 0.500010 0.614620 -0.618880
O8    O     O_R   0.622850 0.499980 0.385280 -0.621533
Zn1   Zn    Zn3+2 0.500010 0.500020 0.653130 0.964728
Zn2   Zn    Zn3+2 0.499990 0.499980 0.346870 0.954816
O9    O     O_3   0.921928 0.607648 0.722516 -0.569955
C31   C     C_3   0.912707 0.579213 0.861654 -0.334377
H20   H     H_    0.972194 0.539760 0.905571 0.149998
H21   H     H_    0.858821 0.513514 0.877886 0.157499
H22   H     H_    0.898084 0.666887 0.916645 0.196736
O10   O     O_3   0.511370 0.872710 0.854336 -0.565341
C32   C     C_3   0.454503 0.845555 0.960671 -0.289713
H23   H     H_    0.408145 0.772212 0.930225 0.158835
H24   H     H_    0.420816 0.931375 0.994863 0.146146
H25   H     H_    0.491207 0.808110 0.048060 0.189182
O11   O     O_3   0.293793 0.388048 0.134325 -0.569460
C33   C     C_3   0.252535 0.274098 0.164323 -0.312130
H26   H     H_    0.285683 0.223495 0.248071 0.157631
H27   H     H_    0.247523 0.213552 0.073097 0.154450
H28   H     H_    0.187141 0.294807 0.198873 0.186242
O12   O     O_3   0.910971 0.346510 0.307048 -0.580241
C34   C     C_3   0.909197 0.436305 0.201630 -0.287184
H29   H     H_    0.968948 0.490312 0.191023 0.137281
H30   H     H_    0.853670 0.499171 0.213845 0.167805
H31   H     H_    0.899799 0.386195 0.104603 0.177329
N3    N     N_2   0.080833 0.743155 0.499278 -0.272516
H32   H     H_    0.139515 0.734834 0.544944 0.233319
C35   C     C_3   0.073811 0.858392 0.421745 -0.814156
H33   H     H_    0.091811 0.938774 0.486660 0.241718
H34   H     H_    0.007648 0.873256 0.385983 0.252404
H35   H     H_    0.117175 0.855712 0.333070 0.230180

loop_
_geom_bond_atom_site_label_1
_geom_bond_atom_site_label_2
_ccdc_geom_bond_type
C31   H21   S    
C28   H17   S    
C26   H2    S    
C18   C21   A    
C33   H26   S    
C19   C20   A    
C34   H31   S    
C35   H35   S    
C3    C6    S    
C20   H11   S    
C7    C8    T    
O3    Zn1   S    
O12   C34   S    
C24   O11   S    
C18   C24   S    
C3    C28   S    
C35   H34   S    
C13   H5    S    
C20   N2    A    
C34   H30   S    
C16   C17   S    
O7    Zn1   S    
C15   C16   S    
C1    O2    A    
O1    Zn1   S    
O2    Zn2   S    
C32   H23   S    
C9    C10   A    
C27   H15   S    
C31   H22   S    
C7    C30   S    
C13   C14   A    
C27   C30   S    
C33   H27   S    
C25   C29   S    
C5    H18   S    
O8    Zn2   S    
O10   C32   S    
C23   O5    A    
C35   H33   S    
C34   H29   S    
O11   C33   S    
O5    Zn1   S    
C2    H1    S    
C14   C23   S    
O9    C31   S    
C22   H13   S    
C8    C12   S    
C2    C26   S    
C16   O10   S    
C17   H7    S    
C28   O12   S    
C19   H9    S    
C27   H16   S    
C9    C17   S    
C26   C30   S    
N3    C35   S    
C24   H14   S    
C33   H28   S    
C22   C24   S    
C25   O7    A    
C3    C4    S    
C21   N2    A    
C18   N1    A    
C5    C30   S    
C23   O6    A    
C4    H3    S    
C11   H4    S    
C1    C10   S    
C4    C5    S    
O6    Zn2   S    
C4    H19   S    
C2    C3    S    
C9    C15   A    
C16   H6    S    
C5    N3    S    
C11   C13   A    
C19   N1    A    
C26   H10   S    
C22   H12   S    
C32   H25   S    
O4    Zn2   S    
C17   H8    S    
C1    O1    A    
C12   O4    A    
C10   C11   A    
C31   H20   S    
C6    C29   T    
C32   H24   S    
N3    H32   S    
C27   C28   S    
N1    Zn2   S    
C14   C15   A    
N2    Zn1   S    
C25   O8    A    
C21   C22   S    
C12   O3    A    
C2    O9    S    
