data_mof_unit_48505.cif
_audit_creation_date              2012-12-11T15:15:37-0500
_audit_creation_method            fapswitch 2.2
_symmetry_space_group_name_H-M    P1
_symmetry_Int_Tables_number       1
_space_group_crystal_system       triclinic
_cell_length_a                    20.646364
_cell_length_b                    22.797741
_cell_length_c                    6.930857
_cell_angle_alpha                 90.321456
_cell_angle_beta                  86.877408
_cell_angle_gamma                 90.015305
_cell_volume                      3257.39337296

loop_
_atom_site_label
_atom_site_type_symbol
_atom_type_description
_atom_site_fract_x
_atom_site_fract_y
_atom_site_fract_z
_atom_type_partial_charge
O1    O     O_R   0.387100 0.552640 0.378490 -0.534063
O2    O     O_R   0.612900 0.052640 0.621510 -0.535131
O3    O     O_R   0.249610 0.559600 0.072250 -0.546323
O4    O     O_R   0.750390 0.059600 0.927750 -0.545716
O5    O     O_R   0.249120 0.447360 0.902040 -0.543404
O6    O     O_R   0.750880 0.947360 0.097960 -0.542975
C1    C     C_R   0.227455 0.573866 0.244869 0.688931
C2    C     C_R   0.772541 0.073883 0.755656 0.687815
O7    O     O_R   0.386610 0.559560 0.048860 -0.536978
O8    O     O_R   0.613390 0.059560 0.951140 -0.536920
O9    O     O_R   0.387100 0.447320 0.878470 -0.535365
O10   O     O_R   0.612900 0.947320 0.121530 -0.539462
C3    C     C_R   0.407786 0.574820 0.215096 0.688165
C4    C     C_R   0.592217 0.074848 0.786199 0.689043
O11   O     O_R   0.249120 0.552680 0.402050 -0.541811
O12   O     O_R   0.750880 0.052680 0.597950 -0.543576
O13   O     O_3   0.318110 0.463180 0.223790 -0.370261
O14   O     O_3   0.681890 0.963180 0.776210 -0.369723
V1    V     V_3+5 0.318110 0.506830 0.948930 1.409058
V2    V     V_3+5 0.681890 0.006830 0.051070 1.411496
O15   O     O_R   0.386610 0.440400 0.548840 -0.545365
O16   O     O_R   0.613390 0.940400 0.451160 -0.538276
C5    C     C_R   0.407736 0.424751 0.713837 0.696200
C6    C     C_R   0.592255 0.924831 0.284814 0.697721
O17   O     O_R   0.249610 0.440440 0.572240 -0.546230
O18   O     O_R   0.750390 0.940440 0.427760 -0.546410
C7    C     C_R   0.227402 0.426214 0.744332 0.687252
C8    C     C_R   0.772594 0.926224 0.255149 0.686530
V3    V     V_3+5 0.318110 0.493170 0.448930 1.399639
V4    V     V_3+5 0.681890 0.993170 0.551070 1.404735
O19   O     O_3   0.318110 0.536820 0.723940 -0.365356
O20   O     O_3   0.681890 0.036820 0.276060 -0.367041
C9    C     C_R   0.174768 0.382358 0.761624 -0.050077
C10   C     C_R   0.825292 0.882383 0.237120 -0.050092
C11   C     C_R   0.150633 0.356529 0.595549 -0.180987
C12   C     C_R   0.848215 0.855833 0.402765 -0.182814
C13   C     C_R   0.100881 0.315190 0.611629 -0.124174
C14   C     C_R   0.898078 0.814594 0.386617 -0.124389
C15   C     C_R   0.073826 0.299192 0.794465 0.169749
C16   C     C_R   0.926526 0.799392 0.204187 0.169521
C17   C     C_R   0.098685 0.324138 0.960300 -0.148539
C18   C     C_R   0.902864 0.825020 0.038572 -0.148545
C19   C     C_R   0.148455 0.365501 0.944337 -0.170992
C20   C     C_R   0.852931 0.866297 0.054616 -0.169052
C21   C     C_R   0.898565 0.185372 0.888387 -0.123815
C22   C     C_R   0.102415 0.685911 0.113447 -0.124536
C23   C     C_R   0.848983 0.143868 0.904446 -0.178458
C24   C     C_R   0.152125 0.644525 0.097292 -0.181517
C25   C     C_R   0.851258 0.134837 0.555667 -0.169586
C26   C     C_R   0.147324 0.634005 0.445421 -0.166146
C27   C     C_R   0.900860 0.176364 0.539722 -0.148701
C28   C     C_R   0.097539 0.675428 0.461473 -0.148038
C29   C     C_R   0.925601 0.201409 0.705572 0.169474
C30   C     C_R   0.073981 0.701145 0.295864 0.169163
C31   C     C_2   0.020848 0.255711 0.818390 -0.200630
C32   C     C_2   0.979741 0.756047 0.180413 -0.200265
C33   C     C_2   0.978504 0.244966 0.681705 -0.200091
C34   C     C_2   0.020832 0.744557 0.319599 -0.199803
C35   C     C_R   0.825001 0.117907 0.738369 -0.049374
C36   C     C_R   0.174912 0.617857 0.262916 -0.049891
H1    H     H_    0.170380 0.367941 0.452730 0.122836
H2    H     H_    0.827411 0.866583 0.545384 0.123734
H3    H     H_    0.829254 0.132423 0.047254 0.123217
H4    H     H_    0.172909 0.633743 0.954677 0.124468
H5    H     H_    0.833646 0.115969 0.424711 0.124168
H6    H     H_    0.163980 0.614559 0.576021 0.123971
H7    H     H_    0.982976 0.267983 0.545050 0.122512
H8    H     H_    0.015146 0.766865 0.458147 0.122088
H9    H     H_    0.079039 0.312034 0.102689 0.097530
H10   H     H_    0.923579 0.813525 0.896382 0.097574
H11   H     H_    0.914552 0.205368 0.019373 0.097572
H12   H     H_    0.087428 0.706435 0.982886 0.098243
H13   H     H_    0.166164 0.384286 0.075289 0.123928
H14   H     H_    0.836189 0.885669 0.924006 0.123714
H15   H     H_    0.016376 0.232687 0.955032 0.122349
H16   H     H_    0.985429 0.733733 0.041876 0.121945
H17   H     H_    0.084795 0.295272 0.480641 0.097442
H18   H     H_    0.913152 0.794140 0.517193 0.097912
H19   H     H_    0.920489 0.188500 0.397346 0.097523
H20   H     H_    0.076838 0.686948 0.603657 0.097449
C37   C     C_R   0.567972 0.354219 0.570466 -0.178075
C38   C     C_R   0.429560 0.862325 0.176240 -0.172901
H21   H     H_    0.521894 0.436280 0.521902 0.122619
H22   H     H_    0.475383 0.946319 0.158813 0.117858
H23   H     H_    0.659438 0.272347 0.553636 0.125755
H24   H     H_    0.337696 0.781659 0.149886 0.126410
H25   H     H_    0.611993 0.367328 0.489739 0.120829
H26   H     H_    0.384479 0.879399 0.126249 0.119472
C39   C     C_R   0.461212 0.380687 0.706922 -0.066851
C40   C     C_R   0.538315 0.881577 0.276415 -0.061808
C41   C     C_R   0.475449 0.096288 0.835396 -0.159015
C42   C     C_R   0.525103 0.594755 0.219496 -0.160541
C43   C     C_R   0.422008 0.133470 0.834101 -0.116101
C44   C     C_R   0.578399 0.632183 0.219640 -0.114129
C45   C     C_R   0.430247 0.193187 0.798111 -0.181303
C46   C     C_R   0.569755 0.692795 0.230291 -0.182417
C47   C     C_R   0.492686 0.217852 0.770635 0.078058
C48   C     C_R   0.507156 0.717615 0.248477 0.076607
C49   C     C_R   0.546669 0.178396 0.749499 0.072882
C50   C     C_R   0.452924 0.679343 0.226390 0.074030
C51   C     C_R   0.502214 0.279629 0.740422 0.042542
C52   C     C_R   0.497355 0.779892 0.264075 0.041510
C53   C     C_R   0.561331 0.297373 0.643940 0.119223
C54   C     C_R   0.437006 0.802235 0.208682 0.116927
C55   C     C_R   0.613361 0.258095 0.619829 -0.189580
C56   C     C_R   0.384610 0.764372 0.183842 -0.189899
C57   C     C_R   0.607113 0.200201 0.680705 -0.198286
C58   C     C_R   0.391639 0.703970 0.202089 -0.197056
C59   C     C_R   0.456170 0.324779 0.798673 0.057914
C60   C     C_R   0.544369 0.821401 0.328557 0.057294
C61   C     C_R   0.516917 0.393890 0.591188 -0.205198
C62   C     C_R   0.481084 0.900685 0.197541 -0.199345
C63   C     C_R   0.537931 0.117541 0.789290 -0.084918
C64   C     C_R   0.462128 0.617381 0.219196 -0.083582
H27   H     H_    0.467799 0.050135 0.865645 0.100638
H28   H     H_    0.533111 0.547781 0.213616 0.099419
H29   H     H_    0.387093 0.219406 0.784427 0.110319
H30   H     H_    0.612603 0.720075 0.215901 0.109955
H31   H     H_    0.373652 0.115750 0.859168 0.118346
H32   H     H_    0.626939 0.614082 0.209567 0.118393
H33   H     H_    0.648974 0.171735 0.661527 0.114368
H34   H     H_    0.349571 0.676538 0.183633 0.111381
C65   C     C_3   0.412590 0.319308 0.982542 -0.392254
C66   C     C_3   0.442692 0.350682 0.151714 -0.651278
H35   H     H_    0.452606 0.397535 0.120296 0.229111
H36   H     H_    0.409113 0.347995 0.282062 0.209375
H37   H     H_    0.489080 0.329114 0.184254 0.216050
H38   H     H_    0.363559 0.337139 0.959773 0.172244
H39   H     H_    0.405731 0.273792 0.032073 0.185400
C67   C     C_3   0.590494 0.805934 0.485102 -0.387516
C68   C     C_3   0.563558 0.827219 0.683619 -0.668310
H40   H     H_    0.553200 0.874909 0.684946 0.234639
H41   H     H_    0.517882 0.803529 0.724972 0.220268
H42   H     H_    0.599260 0.818169 0.793939 0.201043
H43   H     H_    0.597416 0.758351 0.502363 0.188161
H44   H     H_    0.639184 0.825164 0.450951 0.167562

loop_
_geom_bond_atom_site_label_1
_geom_bond_atom_site_label_2
_ccdc_geom_bond_type
C19   H13   S    
V4    O20   S    
C32   H16   S    
O6    C8    A    
C21   H11   S    
O13   V3    S    
C67   H43   S    
C40   C62   A    
O4    C2    A    
C68   H42   S    
V1    O19   S    
C54   C56   A    
C65   C66   S    
C15   C17   A    
C45   H29   S    
C55   C57   A    
O9    V1    S    
H22   C62   S    
C25   H5    S    
O16   C6    A    
C46   H30   S    
C11   C13   A    
O3    C1    A    
C2    C35   S    
C23   H3    S    
C12   H2    S    
C24   H4    S    
C51   C59   A    
C41   H27   S    
C39   C59   A    
C18   H10   S    
C2    O12   A    
O7    C3    A    
C9    C11   A    
O5    C7    A    
C44   H32   S    
O7    V1    S    
C15   C31   S    
C37   C61   A    
O8    V2    S    
C25   C27   A    
C46   C48   A    
C26   C28   A    
C5    C39   S    
O3    V1    S    
O14   V4    S    
C22   H12   S    
C3    C64   S    
C44   C46   A    
C24   C36   A    
C31   H15   S    
C56   C58   A    
C16   C18   A    
C21   C29   A    
C51   C53   A    
C65   H39   S    
C17   C19   A    
O10   V2    S    
H24   C56   S    
C18   C20   A    
C33   H7    S    
V2    O20   S    
H23   C55   S    
C42   C44   A    
C47   C49   A    
C28   C30   A    
O11   V3    S    
C21   C23   A    
O17   V3    S    
C22   C24   A    
C50   C58   A    
C23   C35   A    
C9    C19   A    
C10   C20   A    
C53   C55   A    
O8    C4    A    
C29   C33   S    
C59   C65   S    
C1    O11   A    
C14   H18   S    
C16   C32   S    
C48   C52   A    
O15   V3    S    
C7    C9    S    
C41   C63   A    
C27   C29   A    
C38   C62   A    
C52   C54   A    
C41   C43   A    
C42   H28   S    
C22   C30   A    
O1    V3    S    
C50   C64   A    
C11   H1    S    
C20   H14   S    
C26   H6    S    
C37   H25   S    
C66   H37   S    
C34   H8    S    
O18   V4    S    
C48   C50   A    
C31   C33   D    
C42   C64   A    
C30   C34   S    
H21   C61   S    
C52   C60   A    
O1    C3    A    
C57   H33   S    
C68   H40   S    
C1    C36   S    
C49   C57   A    
C66   H36   S    
C37   C53   A    
O10   C6    A    
O16   V4    S    
C67   H44   S    
C58   H34   S    
C68   H41   S    
C6    C40   S    
C49   C63   A    
C45   C47   A    
O5    V1    S    
O17   C7    A    
C4    C63   S    
O6    V2    S    
C39   C61   A    
O18   C8    A    
C25   C35   A    
O2    V4    S    
C26   C36   A    
O15   C5    A    
C67   C68   S    
V3    O19   S    
C12   C14   A    
C14   C16   A    
C65   H38   S    
C43   C45   A    
C13   H17   S    
C38   H26   S    
O9    C5    A    
O13   V1    S    
C10   C12   A    
C32   C34   D    
C60   C67   S    
O14   V2    S    
O2    C4    A    
C27   H19   S    
C8    C10   S    
O4    V2    S    
C13   C15   A    
C38   C54   A    
C43   H31   S    
C28   H20   S    
C17   H9    S    
O12   V4    S    
C47   C51   A    
C66   H35   S    
C40   C60   A    
