data_mof_unit_18502.cif
_audit_creation_date              2012-12-10T17:15:47-0500
_audit_creation_method            fapswitch 2.2
_symmetry_space_group_name_H-M    P1
_symmetry_Int_Tables_number       1
_space_group_crystal_system       triclinic
_cell_length_a                    10.12688
_cell_length_b                    10.638381
_cell_length_c                    10.70648
_cell_angle_alpha                 88.802686
_cell_angle_beta                  95.019197
_cell_angle_gamma                 82.493565
_cell_volume                      1138.56750275

loop_
_atom_site_label
_atom_site_type_symbol
_atom_type_description
_atom_site_fract_x
_atom_site_fract_y
_atom_site_fract_z
_atom_type_partial_charge
C1    C     C_R   0.444252 0.513429 0.266737 0.933799
C2    C     C_2   0.490159 0.567508 0.931501 -0.181361
C3    C     C_2   0.072631 0.489301 0.490473 -0.134317
C4    C     C_R   0.499705 0.260441 0.507421 0.969008
C5    C     C_2   0.927564 0.509787 0.510510 -0.122704
C6    C     C_R   0.556057 0.500740 0.732462 1.019396
C7    C     C_R   0.501834 0.739313 0.499278 0.848335
C8    C     C_R   0.615933 0.102377 0.732099 0.491287
C9    C     C_R   0.704200 0.023774 0.817997 -0.228998
C10   C     C_R   0.728503 0.894153 0.800403 -0.217325
C11   C     C_R   0.663521 0.841688 0.698319 -0.197669
C12   C     C_R   0.566074 0.052352 0.618081 -0.015544
C13   C     C_R   0.581086 0.920216 0.606401 0.037986
C14   C     C_3   0.479981 0.219470 0.859429 0.039059
C15   C     C_3   0.335458 0.225917 0.801121 -0.327847
C16   C     C_3   0.237726 0.228737 0.902025 -0.975540
C17   C     C_R   0.495574 0.128116 0.517301 -0.102434
C18   C     C_R   0.426482 0.076394 0.417232 -0.233766
C19   C     C_R   0.429840 0.947562 0.412952 -0.197424
C20   C     C_R   0.508036 0.870683 0.505185 -0.055731
C21   C     C_2   0.413307 0.538605 0.133633 -0.390920
C22   C     C_2   0.512101 0.562106 0.065643 -0.149478
C23   C     C_2   0.588408 0.519773 0.864124 -0.390364
H1    H     H_    0.371081 0.136061 0.341747 0.141357
H2    H     H_    0.373823 0.907296 0.336231 0.144140
H3    H     H_    0.388598 0.595622 0.889274 0.190525
H4    H     H_    0.613581 0.563858 0.107792 0.189831
H5    H     H_    0.689446 0.490366 0.906827 0.155921
H6    H     H_    0.487320 0.302529 0.919023 0.187432
H7    H     H_    0.504671 0.135137 0.925006 0.132744
H8    H     H_    0.308821 0.312836 0.740369 0.264225
H9    H     H_    0.325316 0.142045 0.742682 0.218305
H10   H     H_    0.260240 0.141552 0.963170 0.265797
H11   H     H_    0.134076 0.233645 0.856981 0.271438
H12   H     H_    0.312166 0.536307 0.091082 0.148924
H13   H     H_    0.244228 0.313305 0.960298 0.261657
H14   H     H_    0.891917 0.577761 0.578223 0.160121
H15   H     H_    0.108361 0.420841 0.423251 0.164021
H16   H     H_    0.879589 0.384711 0.385284 0.163250
H17   H     H_    0.120379 0.615678 0.614363 0.165163
H18   H     H_    0.747569 0.062659 0.902322 0.148050
H19   H     H_    0.792920 0.833355 0.869187 0.158919
H20   H     H_    0.679156 0.739703 0.692496 0.153929
N1    N     N_2   0.157290 0.551390 0.551110 -0.200988
N2    N     N_2   0.842740 0.448550 0.448960 -0.195397
O1    O     O_R   0.568950 0.489660 0.307530 -0.610710
O2    O     O_R   0.348880 0.522640 0.340350 -0.611918
O3    O     O_R   0.610060 0.300270 0.483590 -0.599587
O4    O     O_R   0.389990 0.333260 0.516410 -0.630090
O5    O     O_R   0.651120 0.477360 0.659650 -0.604753
O6    O     O_R   0.431050 0.510340 0.692470 -0.621138
O7    O     O_R   0.610010 0.666740 0.483590 -0.627420
O8    O     O_R   0.389940 0.699730 0.516410 -0.609361
O9    O     O_3   0.569790 0.224217 0.764945 -0.670174
Zn1   Zn    Zn3+2 0.646940 0.477980 0.478090 0.948067
Zn2   Zn    Zn3+2 0.353060 0.522020 0.521910 0.930270

loop_
_geom_bond_atom_site_label_1
_geom_bond_atom_site_label_2
_ccdc_geom_bond_type
O1    Zn1   S    
C12   C17   A    
O3    Zn1   S    
C1    C21   S    
C21   H12   S    
C5    H14   S    
C16   H10   S    
C10   H19   S    
O4    Zn2   S    
C9    C10   A    
N1    Zn2   S    
C9    H18   S    
C19   C20   A    
O7    Zn1   S    
H16   N2    S    
C4    O4    A    
C8    C12   A    
C16   H11   S    
C17   C18   A    
C8    C9    A    
C15   H9    S    
C2    H3    S    
C2    C22   S    
C6    O5    A    
C11   H20   S    
C11   C13   A    
C14   H7    S    
C18   H1    S    
C6    C23   S    
C14   O9    S    
C7    O7    A    
C7    C20   S    
C22   H4    S    
C19   H2    S    
C1    O1    A    
O8    Zn2   S    
C23   H5    S    
C10   C11   A    
C7    O8    A    
C14   H6    S    
C15   C16   S    
H17   N1    S    
C18   C19   A    
C12   C13   A    
N2    Zn1   S    
O6    Zn2   S    
C4    O3    A    
C6    O6    A    
C8    O9    S    
C2    C23   D    
C14   C15   S    
C1    O2    A    
C13   C20   A    
C3    N1    D    
C21   C22   D    
C5    N2    D    
C15   H8    S    
C16   H13   S    
O5    Zn1   S    
C3    H15   S    
O2    Zn2   S    
C3    C5    S    
C4    C17   S    
