data_mof_unit_21763.cif
_audit_creation_date              2012-12-10T16:54:05-0500
_audit_creation_method            fapswitch 2.2
_symmetry_space_group_name_H-M    P1
_symmetry_Int_Tables_number       1
_space_group_crystal_system       triclinic
_cell_length_a                    9.831968
_cell_length_b                    10.955387
_cell_length_c                    13.431023
_cell_angle_alpha                 89.200284
_cell_angle_beta                  73.122301
_cell_angle_gamma                 88.28925
_cell_volume                      1383.7437341

loop_
_atom_site_label
_atom_site_type_symbol
_atom_type_description
_atom_site_fract_x
_atom_site_fract_y
_atom_site_fract_z
_atom_type_partial_charge
C1    C     C_R   0.497705 0.734124 0.500754 0.854106
C2    C     C_R   0.440057 0.513750 0.977035 0.022924
C3    C     C_R   0.460983 0.464607 0.876163 0.044901
C4    C     C_R   0.539631 0.481940 0.032377 0.070763
C5    C     C_R   0.658252 0.403905 0.985627 0.128097
C6    C     C_R   0.668043 0.347337 0.891796 -0.327609
C7    C     C_R   0.565206 0.370441 0.840701 0.267840
C8    C     C_R   0.523222 0.521814 0.134129 -0.224354
C9    C     C_R   0.741335 0.415742 0.138011 -0.199749
C10   C     C_R   0.376622 0.510811 0.813766 -0.097020
C11   C     C_2   0.602297 0.060415 0.519599 0.281020
C12   C     C_R   0.423177 0.499816 0.699620 0.835279
C13   C     C_2   0.509020 0.133211 0.488765 -0.362682
C14   C     C_2   0.604576 0.927870 0.507125 -0.230233
C15   C     C_2   0.490154 0.866108 0.505579 -0.373632
C16   C     C_2   0.047364 0.568481 0.556996 0.251545
C17   C     C_2   0.894303 0.537231 0.575750 0.300956
C18   C     C_R   0.502246 0.265539 0.498930 0.885347
C19   C     C_R   0.576359 0.498938 0.300815 0.786550
C20   C     C_R   0.760946 0.375763 0.036924 -0.179701
C21   C     C_R   0.618752 0.483893 0.188227 -0.041321
C22   C     C_R   0.256938 0.585668 0.858434 -0.210679
C23   C     C_R   0.227873 0.624166 0.960470 -0.147230
C24   C     C_R   0.320418 0.592707 0.018179 -0.188746
Cu1   Cu    Cu3+1 0.361370 0.499980 0.499980 0.931268
Cu2   Cu    Cu3+1 0.638630 0.500020 0.500020 0.959063
H1    H     H_    0.816398 0.386051 0.179189 0.152492
H2    H     H_    0.434609 0.095239 0.452502 0.121471
H3    H     H_    0.702900 0.879360 0.506311 0.172292
H4    H     H_    0.388037 0.911241 0.512893 0.148454
H5    H     H_    0.909043 0.519575 0.427378 0.172330
H6    H     H_    0.751558 0.279260 0.860964 0.135916
H7    H     H_    0.852543 0.317412 0.000901 0.131611
H8    H     H_    0.433026 0.577064 0.175984 0.135690
H9    H     H_    0.189508 0.619998 0.812772 0.145605
H10   H     H_    0.294426 0.632033 0.094579 0.120210
H11   H     H_    0.136585 0.683908 0.993513 0.139493
N1    N     N_2   0.152660 0.501340 0.501130 -0.264540
N2    N     N_2   0.846520 0.501370 0.501160 -0.315833
O1    O     O_R   0.382960 0.678040 0.499980 -0.592159
O2    O     O_R   0.617100 0.678080 0.500020 -0.586148
O3    O     O_R   0.325800 0.499940 0.650950 -0.614788
O4    O     O_R   0.559930 0.499980 0.650990 -0.513830
O5    O     O_R   0.382900 0.321920 0.499980 -0.591153
O6    O     O_R   0.617040 0.321960 0.500020 -0.527733
O7    O     O_R   0.440070 0.500020 0.349010 -0.572975
O8    O     O_R   0.674200 0.500060 0.349050 -0.593508
N3    N     N_2   0.075077 0.668583 0.613886 -0.420476
H12   H     H_    0.164184 0.659966 0.638548 0.298006
C25   C     C_3   0.061739 0.786439 0.567062 -0.743148
H13   H     H_    0.143245 0.794371 0.490297 0.240149
H14   H     H_    0.077036 0.859919 0.618607 0.219868
H15   H     H_    0.954445 0.799478 0.556194 0.224482
C26   C     C_R   0.136327 0.418275 0.425174 0.262520
C27   C     C_R   0.156971 0.458809 0.322100 -0.161069
C28   C     C_R   0.164371 0.375278 0.242858 -0.155856
C29   C     C_R   0.157803 0.250316 0.264909 -0.110864
C30   C     C_R   0.142740 0.209049 0.366309 -0.190299
C31   C     C_R   0.129942 0.292780 0.446478 -0.116843
H16   H     H_    0.168272 0.555184 0.303547 0.110133
H17   H     H_    0.178153 0.407108 0.164047 0.144934
H18   H     H_    0.166209 0.185437 0.203242 0.126399
H19   H     H_    0.141261 0.112043 0.382816 0.130431
H20   H     H_    0.121039 0.259929 0.524442 0.120293
N4    N     N_2   0.803694 0.541610 0.679748 -0.363102
H21   H     H_    0.847950 0.497051 0.731449 0.228485
C32   C     C_3   0.746965 0.661479 0.717263 -0.610143
H22   H     H_    0.827741 0.714709 0.739445 0.220629
H23   H     H_    0.655398 0.651350 0.787867 0.211738
H24   H     H_    0.709617 0.712648 0.657884 0.234754
N5    N     N_2   0.559837 0.290981 0.759312 -0.396932
H25   H     H_    0.656694 0.250520 0.721992 0.274265
C33   C     C_3   0.446060 0.204698 0.789230 -0.727113
H26   H     H_    0.464520 0.139930 0.848715 0.222807
H27   H     H_    0.441516 0.152267 0.720409 0.231956
H28   H     H_    0.341597 0.252829 0.820851 0.228937
N6    N     N_2   0.696261 0.107874 0.571150 -0.412809
H29   H     H_    0.694213 0.059037 0.637824 0.236882
C34   C     C_3   0.840091 0.120133 0.505956 -0.668741
H30   H     H_    0.902706 0.161716 0.552502 0.210823
H31   H     H_    0.842701 0.179877 0.437968 0.263473
H32   H     H_    0.888857 0.029322 0.478449 0.195832

loop_
_geom_bond_atom_site_label_1
_geom_bond_atom_site_label_2
_ccdc_geom_bond_type
C6    H6    S    
C27   C28   A    
C33   H26   S    
C4    C8    A    
C16   N3    S    
C19   O7    A    
C29   H18   S    
C5    C20   A    
N6    H29   S    
C10   C22   A    
C22   H9    S    
C31   H20   S    
C24   H10   S    
C13   C18   S    
C19   C21   S    
C12   O4    A    
C3    C7    A    
Cu1   O1    S    
C7    N5    S    
C5    C6    A    
C11   C14   S    
C19   O8    A    
Cu2   N2    S    
C28   C29   A    
C17   N2    D    
C12   O3    A    
C11   N6    S    
Cu2   O6    S    
C16   C17   S    
N4    C32   S    
C25   H14   S    
C23   C24   A    
C13   H2    S    
C1    C15   S    
C1    O1    A    
N3    C25   S    
C27   H16   S    
C33   H27   S    
Cu1   O5    S    
Cu2   O4    S    
C25   H13   S    
C26   C31   A    
N6    C34   S    
C25   H15   S    
C32   H22   S    
C34   H31   S    
Cu1   Cu2   S    
C23   H11   S    
C32   H23   S    
C2    C4    A    
C18   O5    A    
Cu1   N1    S    
C9    C20   A    
N1    C26   S    
C14   C15   D    
C8    C21   A    
C8    H8    S    
C10   C12   S    
Cu2   O8    S    
C20   H7    S    
C1    O2    A    
N3    H12   S    
C2    C24   A    
C33   H28   S    
C14   H3    S    
C18   O6    A    
C9    H1    S    
C15   H4    S    
N5    C33   S    
C30   H19   S    
C26   C27   A    
C22   C23   A    
C4    C5    A    
Cu1   O3    S    
C34   H32   S    
C6    C7    A    
C17   N4    S    
C32   H24   S    
C2    C3    A    
C30   C31   A    
N5    H25   S    
C3    C10   A    
C11   C13   D    
C9    C21   A    
C29   C30   A    
H5    N2    S    
C34   H30   S    
N4    H21   S    
C28   H17   S    
Cu1   O7    S    
Cu2   O2    S    
C16   N1    D    
