data_mof_unit_5182.cif
_audit_creation_date              2012-12-10T17:02:57-0500
_audit_creation_method            fapswitch 2.2
_symmetry_space_group_name_H-M    P1
_symmetry_Int_Tables_number       1
_space_group_crystal_system       triclinic
_cell_length_a                    9.802532
_cell_length_b                    11.139715
_cell_length_c                    13.450026
_cell_angle_alpha                 94.030821
_cell_angle_beta                  82.00403
_cell_angle_gamma                 110.946684
_cell_volume                      1357.97510589

loop_
_atom_site_label
_atom_site_type_symbol
_atom_type_description
_atom_site_fract_x
_atom_site_fract_y
_atom_site_fract_z
_atom_type_partial_charge
C1    C     C_R   0.555248 0.744453 0.508732 0.870708
C2    C     C_R   0.431364 0.437755 0.966776 0.057897
C3    C     C_R   0.473581 0.433660 0.861903 0.017756
C4    C     C_R   0.542976 0.472816 0.032393 0.067528
C5    C     C_R   0.693547 0.505117 0.991758 0.099111
C6    C     C_R   0.729080 0.485285 0.888579 -0.086065
C7    C     C_R   0.616005 0.431106 0.828541 -0.072315
C8    C     C_R   0.510036 0.479894 0.137056 -0.220148
C9    C     C_R   0.767755 0.551512 0.159789 -0.184804
C10   C     C_R   0.371690 0.431843 0.794778 -0.126211
C11   C     C_2   0.589153 0.881621 0.502895 -0.379386
C12   C     C_R   0.420509 0.471798 0.688776 0.809426
C13   C     C_2   0.483652 0.934087 0.517471 -0.029340
C14   C     C_2   0.410541 0.118419 0.497842 -0.376174
C15   C     C_2   0.515845 0.065744 0.483038 -0.012633
C16   C     C_2   0.923971 0.493284 0.489695 -0.045587
C17   C     C_2   0.075178 0.505253 0.511241 -0.043990
C18   C     C_R   0.444664 0.255529 0.491442 0.854582
C19   C     C_R   0.577263 0.512272 0.309553 0.797889
C20   C     C_R   0.804320 0.547959 0.056289 -0.137880
C21   C     C_R   0.620367 0.515491 0.200629 -0.051492
C22   C     C_R   0.222247 0.397131 0.831331 -0.194217
C23   C     C_R   0.175698 0.378156 0.933454 0.040671
C24   C     C_R   0.279124 0.404209 0.001112 -0.207760
Cu1   Cu    Cu3+1 0.362000 0.479240 0.482530 0.965985
Cu2   Cu    Cu3+1 0.638000 0.520760 0.517470 0.974908
H1    H     H_    0.854649 0.580969 0.207789 0.155655
H2    H     H_    0.119515 0.563892 0.574974 0.194709
N1    N     N_2   0.845330 0.551960 0.543750 -0.287131
N2    N     N_2   0.154690 0.448120 0.456210 -0.291672
O1    O     O_R   0.426290 0.668220 0.490680 -0.564948
O2    O     O_R   0.659360 0.703290 0.520190 -0.567331
O3    O     O_R   0.326580 0.473880 0.629020 -0.575477
O4    O     O_R   0.559660 0.508940 0.658530 -0.577308
O5    O     O_R   0.340640 0.296710 0.479810 -0.574816
O6    O     O_R   0.573710 0.331780 0.509320 -0.556396
O7    O     O_R   0.440340 0.491060 0.341470 -0.584904
O8    O     O_R   0.673420 0.526120 0.370980 -0.585803
C25   C     C_1   0.340664 0.865563 0.572727 0.298464
N3    N     N_1   0.227218 0.812430 0.617229 -0.308788
H3    H     H_    0.297515 0.062480 0.525468 0.156383
H4    H     H_    0.702299 0.937870 0.475823 0.158914
H5    H     H_    0.878954 0.433494 0.426651 0.180270
H6    H     H_    0.110697 0.394244 0.395250 0.206299
H7    H     H_    0.890324 0.607822 0.603634 0.217372
C26   C     C_1   0.880400 0.519566 0.842511 0.235184
N4    N     N_1   0.000959 0.548602 0.805170 -0.305988
H8    H     H_    0.919728 0.574361 0.027587 0.150287
H9    H     H_    0.398358 0.456362 0.171513 0.153173
H10   H     H_    0.141669 0.383901 0.780161 0.179839
H11   H     H_    0.236029 0.393811 0.079420 0.128195
C27   C     C_1   0.020844 0.333310 0.969495 0.229488
N5    N     N_1   0.896487 0.296388 0.998495 -0.275814
C28   C     C_1   0.637147 0.342707 0.748560 0.303421
N6    N     N_1   0.655166 0.270953 0.686240 -0.262398
C29   C     C_1   0.658536 0.133905 0.427268 0.308244
N7    N     N_1   0.771743 0.186692 0.382343 -0.325582

loop_
_geom_bond_atom_site_label_1
_geom_bond_atom_site_label_2
_ccdc_geom_bond_type
Cu1   O1    S    
C2    C4    A    
C23   C24   A    
Cu2   O2    S    
C6    C7    A    
C19   O8    A    
C19   O7    A    
C18   O5    A    
C14   C18   S    
C9    C20   A    
C1    C11   S    
C4    C8    A    
C22   H10   S    
C9    C21   A    
C15   C29   S    
C24   H11   S    
C14   C15   D    
C2    C3    A    
C12   O3    A    
C3    C10   A    
C10   C22   A    
C17   N2    D    
C11   C13   D    
C16   H5    S    
N2    H6    S    
C23   C27   S    
C20   H8    S    
C10   C12   S    
Cu1   O5    S    
C14   H3    S    
Cu2   O6    S    
C19   C21   S    
C8    C21   A    
C3    C7    A    
C13   C15   S    
C2    C24   A    
C5    C6    A    
C13   C25   S    
C16   N1    D    
C16   C17   S    
C29   N7    T    
C12   O4    A    
C1    O1    A    
C27   N5    T    
C9    H1    S    
Cu2   N1    S    
C26   N4    T    
Cu1   O3    S    
C25   N3    T    
C5    C20   A    
C22   C23   A    
Cu1   N2    S    
C11   H4    S    
C6    C26   S    
C7    C28   S    
Cu1   O7    S    
Cu1   Cu2   S    
C28   N6    T    
C17   H2    S    
C18   O6    A    
C8    H9    S    
Cu2   O4    S    
C1    O2    A    
Cu2   O8    S    
N1    H7    S    
C4    C5    A    
