data_mof_unit_51411.cif
_audit_creation_date              2013-03-05T16:05:41-0500
_audit_creation_method            fapswitch 2.2
_symmetry_space_group_name_H-M    P1
_symmetry_Int_Tables_number       1
_space_group_crystal_system       triclinic
_cell_length_a                    10.744188
_cell_length_b                    14.930191
_cell_length_c                    15.380143
_cell_angle_alpha                 81.269272
_cell_angle_beta                  90.28437
_cell_angle_gamma                 105.319489
_cell_volume                      2350.33627995

loop_
_atom_site_label
_atom_site_type_symbol
_atom_site_description
_atom_site_fract_x
_atom_site_fract_y
_atom_site_fract_z
_atom_type_partial_charge
O1    O     O_R   0.462770 0.383110 0.605620 -0.620137
O2    O     O_R   0.510160 0.531900 0.639510 -0.627884
C1    C     C_R   0.479390 0.439908 0.663101 0.840337
O3    O     O_R   0.661510 0.425600 0.483070 -0.566720
O4    O     O_R   0.708900 0.574390 0.516960 -0.628512
C2    C     C_R   0.742879 0.501119 0.501563 0.838176
Zn1   Zn    Zn3+2 0.468350 0.400660 0.477370 0.976597
Zn2   Zn    Zn3+2 0.531650 0.599340 0.522630 0.945072
O5    O     O_R   0.489840 0.468100 0.360490 -0.568033
O6    O     O_R   0.537230 0.616890 0.394380 -0.565467
O7    O     O_R   0.291100 0.425610 0.483040 -0.643204
O8    O     O_R   0.338490 0.574400 0.516930 -0.641091
C3    C     C_R   0.527461 0.559383 0.336671 0.906804
C4    C     C_R   0.257726 0.498300 0.502879 0.850905
C5    C     C_3   0.896421 0.401614 0.555583 0.433028
C6    C     C_3   0.043646 0.417069 0.570627 -0.500452
H1    H     H_    0.070025 0.431847 0.637717 0.159964
H2    H     H_    0.074318 0.352511 0.566333 0.211075
H3    H     H_    0.870541 0.475606 0.364764 0.228175
H4    H     H_    0.055909 0.425375 0.394509 0.205739
C7    C     C_3   0.935327 0.517549 0.408484 -0.406739
C8    C     C_3   0.966864 0.592602 0.549597 0.276983
C9    C     C_3   0.881022 0.502988 0.505628 -0.126760
C10   C     C_3   0.122194 0.500391 0.503395 -0.034498
C11   C     C_3   0.068883 0.497610 0.408452 -0.017403
C12   C     C_3   0.109723 0.591492 0.536398 -0.363762
H5    H     H_    0.161656 0.599424 0.598642 0.181467
H6    H     H_    0.163288 0.650865 0.487231 0.191450
H7    H     H_    0.943518 0.589251 0.374163 0.180368
C13   C     C_R   0.472473 0.399913 0.757901 -0.193563
C14   C     C_R   0.568450 0.596564 0.242262 -0.325709
C15   C     C_R   0.502776 0.282259 0.880522 0.135222
C16   C     C_R   0.475122 0.305152 0.790483 0.108409
C17   C     C_R   0.474596 0.462441 0.817600 0.067039
C18   C     C_R   0.537144 0.448707 0.896984 0.047856
C19   C     C_R   0.545154 0.356240 0.930798 0.050364
C20   C     C_R   0.580920 0.521683 0.947964 0.058631
C21   C     C_R   0.593683 0.496747 0.037981 0.092059
C22   C     C_R   0.613444 0.408667 0.068972 -0.119437
C23   C     C_R   0.592256 0.339856 0.015613 -0.207736
C24   C     C_R   0.619081 0.617913 0.912377 -0.266795
C25   C     C_R   0.652481 0.687331 0.967457 0.181164
C26   C     C_R   0.635664 0.659136 0.060236 0.033827
C27   C     C_R   0.594667 0.562622 0.094017 -0.058294
C28   C     C_R   0.661607 0.722803 0.120647 -0.284277
C29   C     C_R   0.640438 0.691417 0.211886 0.279664
C30   C     C_R   0.543045 0.533287 0.180559 0.255549
H8    H     H_    0.609994 0.273607 0.043098 0.168070
H9    H     H_    0.650281 0.394129 0.133626 0.187782
H10   H     H_    0.631437 0.639003 0.841849 0.141014
H11   H     H_    0.705990 0.796445 0.098042 0.199332
N1    N     N_R   0.573860 0.731700 0.552730 -0.084643
N2    N     N_R   0.426060 0.268290 0.447230 -0.113412
C31   C     C_R   0.703367 0.841715 0.635212 -0.258762
C32   C     C_R   0.661565 0.751190 0.615480 -0.025696
C33   C     C_R   0.522531 0.797742 0.508770 -0.020282
C34   C     C_R   0.570855 0.892877 0.518832 -0.041618
C35   C     C_R   0.658195 0.913987 0.587215 0.041366
C36   C     C_R   0.526368 0.965378 0.468364 0.025187
C37   C     C_R   0.546356 0.053162 0.500189 0.007799
C38   C     C_R   0.629323 0.070914 0.570547 -0.227998
C39   C     C_R   0.691214 0.004845 0.610098 0.332657
C40   C     C_R   0.457533 0.952911 0.389487 0.128592
C41   C     C_R   0.376444 0.009726 0.363716 -0.193435
C42   C     C_R   0.388212 0.092124 0.398014 0.085886
C43   C     C_R   0.479800 0.119205 0.461517 0.024244
C44   C     C_R   0.312526 0.149912 0.364780 -0.274658
C45   C     C_R   0.329686 0.237250 0.390716 0.366685
C46   C     C_R   0.498275 0.210733 0.483518 -0.021855
H12   H     H_    0.571116 0.238739 0.527376 0.145506
H13   H     H_    0.310689 0.993583 0.311059 0.153214
H14   H     H_    0.768556 0.853626 0.688566 0.183173
H15   H     H_    0.698015 0.695702 0.650966 0.125013
H16   H     H_    0.443050 0.774157 0.467457 0.111977
H17   H     H_    0.648669 0.136175 0.596288 0.186256
H18   H     H_    0.240260 0.127513 0.317270 0.153298
N3    N     N_R   0.859964 0.322882 0.502669 0.192591
O9    O     O_R   0.794143 0.325870 0.431733 -0.417113
O10   O     O_R   0.878906 0.241860 0.534758 -0.416998
C47   C     C_3   0.160108 0.564331 0.333553 -0.432472
C48   C     C_3   0.112217 0.547386 0.242096 -0.802048
H19   H     H_    0.099842 0.472682 0.234755 0.279142
H20   H     H_    0.019016 0.565382 0.230671 0.252018
H21   H     H_    0.184209 0.592372 0.191226 0.262302
H22   H     H_    0.170672 0.639156 0.339593 0.212221
H23   H     H_    0.257693 0.552448 0.337109 0.211349
N4    N     N_R   0.445643 0.445292 0.199250 0.200808
O11   O     O_R   0.334387 0.437269 0.162997 -0.443941
O12   O     O_R   0.475960 0.369753 0.235720 -0.424812
N5    N     N_R   0.701344 0.754757 0.270880 0.211233
O13   O     O_R   0.757025 0.723161 0.339380 -0.423084
O14   O     O_R   0.735878 0.844934 0.243465 -0.431996
C49   C     C_3   0.699229 0.789247 0.924682 -0.402828
C50   C     C_3   0.591254 0.838515 0.922654 -0.825792
H24   H     H_    0.509673 0.802656 0.884840 0.257842
H25   H     H_    0.555520 0.838406 0.990259 0.251674
H26   H     H_    0.628149 0.912568 0.890016 0.276269
H27   H     H_    0.783621 0.827064 0.958836 0.210497
H28   H     H_    0.733863 0.793958 0.855706 0.205059
C51   C     C_3   0.479288 0.180066 0.924849 -0.427333
C52   C     C_3   0.599548 0.144124 0.920307 -0.842153
H29   H     H_    0.580106 0.071969 0.958008 0.256918
H30   H     H_    0.625768 0.141472 0.851431 0.283567
H31   H     H_    0.683245 0.190033 0.948692 0.258251
H32   H     H_    0.446668 0.171846 0.994670 0.211724
H33   H     H_    0.396495 0.133135 0.896635 0.215403
C53   C     C_3   0.443003 0.228239 0.732214 -0.392863
C54   C     C_3   0.299554 0.201850 0.711916 -0.760901
H34   H     H_    0.240753 0.170075 0.773531 0.252162
H35   H     H_    0.267906 0.264021 0.681382 0.262731
H36   H     H_    0.281194 0.149672 0.665817 0.248327
H37   H     H_    0.504402 0.248151 0.671580 0.204371
H38   H     H_    0.466924 0.162994 0.761478 0.210660
C55   C     C_3   0.386461 0.528882 0.803049 -0.363789
C56   C     C_3   0.288357 0.512223 0.879515 -0.827647
H39   H     H_    0.235235 0.436608 0.894059 0.265998
H40   H     H_    0.336179 0.534792 0.939587 0.282766
H41   H     H_    0.217586 0.553719 0.861415 0.237793
H42   H     H_    0.441213 0.603754 0.789968 0.206934
H43   H     H_    0.327831 0.516312 0.744164 0.202966
C57   C     C_3   0.809142 0.364494 0.642920 -0.427428
C58   C     C_3   0.865058 0.310710 0.719492 -0.778316
H44   H     H_    0.909813 0.259064 0.696657 0.322432
H45   H     H_    0.937229 0.359639 0.753928 0.222709
H46   H     H_    0.786255 0.272210 0.768381 0.260201
H47   H     H_    0.773125 0.418468 0.668021 0.152116
H48   H     H_    0.718244 0.315292 0.626825 0.214046
N6    N     N_R   0.782357 0.029877 0.676768 0.210043
O15   O     O_R   0.756496 0.075696 0.736775 -0.451897
O16   O     O_R   0.898321 0.019688 0.669831 -0.397511
C59   C     C_3   0.237717 0.292169 0.352459 -0.369656
C60   C     C_3   0.103963 0.250079 0.396859 -0.818987
H49   H     H_    0.107478 0.260525 0.466621 0.291427
H50   H     H_    0.032987 0.283147 0.361977 0.272813
H51   H     H_    0.069888 0.173519 0.394478 0.267269
H52   H     H_    0.271906 0.367702 0.354414 0.269758
H53   H     H_    0.228315 0.286952 0.281276 0.245082
C61   C     C_3   0.475964 0.887871 0.326130 -0.416596
C62   C     C_3   0.512690 0.939783 0.232033 -0.741293
H54   H     H_    0.434851 0.969585 0.202904 0.227478
H55   H     H_    0.602972 0.997249 0.231534 0.280869
H56   H     H_    0.528342 0.889776 0.189365 0.258474
H57   H     H_    0.555718 0.856092 0.346087 0.266665
H58   H     H_    0.385348 0.831010 0.324987 0.183812
C63   C     C_3   0.948569 0.692416 0.505832 -0.252045
C64   C     C_3   0.064310 0.780307 0.500714 -0.904408
H59   H     H_    0.126166 0.777789 0.558270 0.269144
H60   H     H_    0.124487 0.789115 0.439868 0.241883
H61   H     H_    0.028580 0.844108 0.497067 0.275690
H62   H     H_    0.914585 0.691967 0.438837 0.242050
H63   H     H_    0.870403 0.708737 0.541891 0.233297
C65   C     C_3   0.932434 0.581359 0.651180 -0.415964
C66   C     C_3   0.996984 0.663214 0.699971 -0.886693
H64   H     H_    0.103736 0.680405 0.694458 0.256258
H65   H     H_    0.963731 0.726733 0.676767 0.271167
H66   H     H_    0.968832 0.642409 0.771070 0.247312
H67   H     H_    0.826962 0.570541 0.660958 0.201119
H68   H     H_    0.959087 0.520003 0.687505 0.215727

loop_
_geom_bond_atom_site_label_1
_geom_bond_atom_site_label_2
_geom_bond_distance
_ccdc_geom_bond_type
C35   C39   1.406879 A    
N4    O11   1.300813 A    
C49   C50   1.526919 S    
C1    C13   1.483670 S    
C25   C49   1.515245 S    
C53   H37   1.100709 S    
C18   C19   1.424129 A    
C16   C53   1.529987 S    
N2    C46   1.361754 A    
N6    O15   1.300608 A    
C55   C56   1.530021 S    
N5    O13   1.297059 A    
C5    N3    1.497152 S    
C28   C29   1.409857 A    
C38   H17   1.076384 S    
Zn1   O7    2.039485 S    
C12   H5    1.111765 S    
C52   H29   1.110433 S    
C15   C19   1.419613 A    
C18   C20   1.417048 A    
C20   C21   1.393841 A    
C10   C12   1.559537 S    
C57   H48   1.108343 S    
C61   H57   1.105269 S    
O4    C2    1.294844 A    
O7    C4    1.306420 A    
C34   C36   1.420310 A    
C43   C46   1.420462 A    
H4    C11   1.104077 S    
C28   H11   1.079676 S    
C5    C6    1.558407 S    
C11   C47   1.557858 S    
C54   H34   1.110549 S    
C23   H8    1.079449 S    
C17   C18   1.404646 A    
C24   C25   1.409824 A    
C41   H13   1.084749 S    
C4    C10   1.464833 S    
N2    C45   1.379218 A    
O5    C3    1.309133 A    
C53   H38   1.102531 S    
C47   H23   1.108392 S    
C65   H67   1.109262 S    
C60   H49   1.106457 S    
C56   H40   1.108819 S    
C14   C29   1.430377 A    
C53   C54   1.529649 S    
C66   H65   1.108792 S    
C49   H28   1.111875 S    
C33   C34   1.409696 A    
C55   H42   1.105249 S    
N1    C32   1.354778 A    
C5    C9    1.639046 S    
C37   C43   1.423969 A    
C36   C37   1.431236 A    
C52   H30   1.106670 S    
C14   C30   1.414571 A    
C46   H12   1.072282 S    
O3    Zn1   2.013249 S    
C48   H20   1.109906 S    
C63   C64   1.543345 S    
C64   H60   1.111205 S    
N3    O10   1.302370 A    
C8    C65   1.580914 S    
C33   H16   1.077321 S    
C13   C17   1.401376 A    
C44   C45   1.386936 A    
Zn2   N1    2.031570 S    
C19   C23   1.406974 A    
C10   C11   1.568329 S    
O3    C2    1.300198 A    
C59   H52   1.094943 S    
C22   C23   1.382513 A    
C6    H1    1.107654 S    
C50   H26   1.110596 S    
C42   C44   1.378277 A    
N3    O9    1.298718 A    
C7    H7    1.100690 S    
C48   H19   1.110922 S    
C15   C51   1.529355 S    
C37   C38   1.410132 A    
O1    C1    1.295606 A    
C30   N4    1.437237 S    
C45   C59   1.506934 S    
C26   C27   1.407103 A    
C21   C27   1.400696 A    
C47   H22   1.110823 S    
C59   H53   1.111529 S    
C64   H61   1.111169 S    
N5    O14   1.301293 A    
C8    C63   1.600468 S    
Zn2   O8    2.013249 S    
C56   H41   1.110840 S    
C51   H32   1.109985 S    
C50   H24   1.111149 S    
C66   H66   1.110973 S    
C50   H25   1.109806 S    
C26   C28   1.403611 A    
C57   C58   1.534097 S    
C63   H63   1.107274 S    
C65   H68   1.102252 S    
C6    H2    1.108770 S    
C22   H9    1.080977 S    
O8    C4    1.281532 A    
C52   H31   1.109189 S    
C7    C9    1.569390 S    
C40   C61   1.523973 S    
C25   C26   1.423401 A    
Zn1   N2    2.031913 S    
C58   H45   1.108837 S    
C59   C60   1.526005 S    
C24   H10   1.081239 S    
C48   H21   1.110631 S    
C64   H59   1.106330 S    
C31   C35   1.405760 A    
Zn1   O5    1.905363 S    
C7    C11   1.540617 S    
C31   C32   1.386701 A    
C5    C57   1.582005 S    
C13   C16   1.435097 A    
H3    C7    1.105297 S    
O1    Zn1   1.949101 S    
C12   H6    1.104580 S    
C3    C14   1.497646 S    
Zn2   O6    1.949101 S    
O2    Zn2   1.905363 S    
C63   H62   1.091858 S    
C47   C48   1.529516 S    
O6    C3    1.311023 A    
N6    O16   1.301269 A    
O4    Zn2   2.039484 S    
C62   H54   1.109283 S    
C27   C30   1.404655 A    
C29   N5    1.439927 S    
C51   H33   1.108910 S    
C17   C55   1.535462 S    
C36   C40   1.428367 A    
C54   H36   1.110660 S    
C15   C16   1.424315 A    
C58   H46   1.109324 S    
N4    O12   1.301129 A    
O2    C1    1.318062 A    
C58   H44   1.108571 S    
C57   H47   1.099487 S    
C61   H58   1.111993 S    
C41   C42   1.386310 A    
C39   N6    1.436339 S    
C62   H55   1.111493 S    
C34   C35   1.421498 A    
C21   C22   1.399240 A    
C60   H51   1.110586 S    
C60   H50   1.107958 S    
C2    C9    1.478294 S    
C51   C52   1.530027 S    
C62   H56   1.110199 S    
C54   H35   1.109328 S    
C20   C24   1.408579 A    
C38   C39   1.394862 A    
C61   C62   1.534415 S    
C40   C41   1.385903 A    
C32   H15   1.081486 S    
N1    C33   1.347123 A    
C31   H14   1.080889 S    
C65   C66   1.537221 S    
C6    C10   1.546750 S    
C42   C43   1.409195 A    
C8    C12   1.554023 S    
C8    C9    1.647582 S    
C44   H18   1.086276 S    
C66   H64   1.107879 S    
C49   H27   1.109806 S    
C55   H43   1.111631 S    
C56   H39   1.111054 S    
