data_mof_unit_10685.cif
_audit_creation_date              2012-12-11T14:56:21-0500
_audit_creation_method            fapswitch 2.2
_symmetry_space_group_name_H-M    P1
_symmetry_Int_Tables_number       1
_space_group_crystal_system       triclinic
_cell_length_a                    10.598167
_cell_length_b                    10.645272
_cell_length_c                    17.128782
_cell_angle_alpha                 80.538594
_cell_angle_beta                  89.777079
_cell_angle_gamma                 119.471732
_cell_volume                      1651.4193596

loop_
_atom_site_label
_atom_site_type_symbol
_atom_type_description
_atom_site_fract_x
_atom_site_fract_y
_atom_site_fract_z
_atom_type_partial_charge
C1    C     C_R   0.225703 0.856169 0.129357 0.535348
C2    C     C_1   0.651913 0.345952 0.707637 -0.039796
C3    C     C_R   0.629826 0.714710 0.804176 -0.170067
C4    C     C_R   0.637929 0.281775 0.085679 0.536134
C5    C     C_R   0.619889 0.698793 0.726043 -0.199067
C6    C     C_R   0.670490 0.822906 0.665120 0.060105
C7    C     C_R   0.739521 0.964256 0.682468 0.414037
C8    C     C_R   0.748886 0.980269 0.761207 -0.070827
C9    C     C_R   0.688223 0.854790 0.822069 -0.032554
C10   C     C_R   0.085067 0.878546 0.790949 -0.111688
C11   C     C_R   0.074030 0.879311 0.711578 0.343108
C12   C     C_R   0.799398 0.418544 0.265646 -0.116498
C13   C     C_R   0.121387 0.800947 0.672172 0.021145
C14   C     C_R   0.165887 0.705976 0.716252 -0.046218
C15   C     C_R   0.157407 0.691489 0.800712 -0.011501
C16   C     C_R   0.602146 0.881883 0.131173 0.570611
C17   C     C_R   0.139639 0.797544 0.834157 -0.054340
C18   C     C_R   0.683836 0.813013 0.358362 0.551151
C19   C     C_R   0.688972 0.395615 0.394834 0.556344
C20   C     C_R   0.104630 0.810653 0.359409 0.543749
C21   C     C_R   0.677855 0.800744 0.585291 0.584787
C22   C     C_R   0.679176 0.383063 0.624554 0.576800
C23   C     C_R   0.795542 0.409432 0.186282 -0.014751
C24   C     C_R   0.094060 0.799830 0.588814 0.558144
C25   C     C_R   0.214288 0.855028 0.902925 0.544796
C26   C     C_R   0.637465 0.284556 0.860979 0.547706
C27   C     C_R   0.646866 0.866931 0.899302 0.557079
C28   C     C_R   0.532374 0.313815 0.202906 -0.139257
C29   C     C_R   0.539293 0.325187 0.282363 -0.139887
C30   C     C_R   0.671920 0.370637 0.314496 0.019946
C31   C     C_3   0.252864 0.651537 0.673832 -0.240906
C32   C     C_3   0.161887 0.506034 0.643021 -0.271045
C33   C     C_3   0.240979 0.418385 0.641456 -0.431163
C34   C     C_R   0.658191 0.347412 0.155627 0.035728
C35   C     C_3   0.173938 0.571965 0.855641 -0.230280
C36   C     C_3   0.086672 0.416231 0.838025 -0.323693
C37   C     C_3   0.054631 0.298288 0.911666 -0.412638
C38   C     C_3   0.940557 0.465077 0.138854 -0.231546
C39   C     C_3   0.000247 0.359154 0.160464 -0.293793
C40   C     C_3   0.151552 0.420662 0.118129 -0.422199
C41   C     C_1   0.636364 0.871434 0.211207 -0.040318
C42   C     C_1   0.662726 0.855404 0.278803 -0.039151
C43   C     C_1   0.183872 0.827706 0.211826 -0.060095
C44   C     C_1   0.153590 0.820850 0.280301 -0.045229
C45   C     C_1   0.644465 0.323880 0.778190 -0.051268
Cr1   Cr    Cr6+3 0.402240 0.783890 0.019450 0.977021
Cr2   Cr    Cr6+3 0.382360 0.097900 0.991800 1.008783
Cr3   Cr    Cr6+3 0.715380 0.118170 0.988700 0.973871
Cr4   Cr    Cr6+3 0.936650 0.882420 0.465510 1.096273
Cr5   Cr    Cr6+3 0.605770 0.565620 0.493360 1.009241
Cr6   Cr    Cr6+3 0.921340 0.550490 0.496380 1.032277
F1    F     F_    0.022607 0.964311 0.673017 -0.618423
F2    F     F_    0.795305 0.085288 0.623639 -0.619230
H1    H     H_    0.426472 0.268341 0.180333 0.141040
H2    H     H_    0.161232 0.303870 0.635939 0.209869
H3    H     H_    0.054467 0.436185 0.678342 0.189021
H4    H     H_    0.140954 0.528496 0.580568 0.201264
H5    H     H_    0.324528 0.738779 0.622854 0.140161
H6    H     H_    0.329785 0.640910 0.714362 0.150320
H7    H     H_    0.157721 0.316024 0.936331 0.125679
H8    H     H_    0.982909 0.300817 0.958048 0.181651
H9    H     H_    0.999273 0.188198 0.895116 0.165711
H10   H     H_    0.983335 0.398417 0.814156 0.202089
H11   H     H_    0.151958 0.401414 0.794374 0.166458
H12   H     H_    0.441426 0.295321 0.318913 0.134972
H13   H     H_    0.290867 0.604503 0.855808 0.167915
H14   H     H_    0.130519 0.561263 0.916820 0.165029
H15   H     H_    0.152073 0.453246 0.053150 0.136607
H16   H     H_    0.231984 0.517425 0.141889 0.193946
H17   H     H_    0.184737 0.335732 0.128630 0.132943
H18   H     H_    0.007544 0.339524 0.225626 0.157089
H19   H     H_    0.926186 0.251237 0.144362 0.204246
H20   H     H_    0.934897 0.488363 0.073771 0.161173
H21   H     H_    0.018560 0.572383 0.153496 0.144265
H22   H     H_    0.904777 0.466173 0.288976 0.142411
H23   H     H_    0.583141 0.617264 0.850669 0.139300
H24   H     H_    0.573485 0.589065 0.713250 0.141718
H25   H     H_    0.793576 0.089625 0.774353 0.144817
H26   H     H_    0.061155 0.951358 0.817322 0.155933
H27   H     H_    0.323082 0.467585 0.589050 0.185331
H28   H     H_    0.296716 0.414646 0.695709 0.141030
O1    O     O_R   0.521780 0.757110 0.108900 -0.511808
O2    O     O_R   0.805020 0.410040 0.421340 -0.508524
O3    O     O_R   0.049240 0.685450 0.403290 -0.512048
O4    O     O_R   0.275160 0.783810 0.101120 -0.532264
O5    O     O_R   0.077520 0.903010 0.551800 -0.434047
O6    O     O_R   0.802980 0.872780 0.546830 -0.413582
O7    O     O_R   0.578090 0.681300 0.569920 -0.565803
O8    O     O_R   0.608530 0.436370 0.586530 -0.511823
O9    O     O_R   0.798770 0.401880 0.597100 -0.475226
O10   O     O_R   0.043450 0.677890 0.566230 -0.536703
O11   O     O_3   0.821250 0.666180 0.485090 -0.271846
O12   O     O_R   0.513330 0.228330 0.898660 -0.492816
O13   O     O_R   0.237900 0.972600 0.090980 -0.507332
O14   O     O_R   0.511190 0.220540 0.061620 -0.510528
O15   O     O_R   0.736920 0.257720 0.063840 -0.544393
O16   O     O_R   0.710450 0.984050 0.081720 -0.500422
O17   O     O_R   0.524090 0.765520 0.933110 -0.521509
O18   O     O_R   0.277300 0.791600 0.938160 -0.514506
O19   O     O_R   0.240210 0.981010 0.915190 -0.512674
O20   O     O_R   0.739230 0.266130 0.888050 -0.534720
O21   O     O_R   0.712580 0.991850 0.918770 -0.510426
O22   O     O_3   0.499990 0.999980 0.999980 -0.254086
O23   O     O_R   0.083770 0.911170 0.376030 -0.513370
O24   O     O_R   0.808770 0.880340 0.383890 -0.497668
O25   O     O_R   0.584340 0.689460 0.394160 -0.512181
O26   O     O_R   0.614320 0.443940 0.423590 -0.498442

loop_
_geom_bond_atom_site_label_1
_geom_bond_atom_site_label_2
_ccdc_geom_bond_type
C33   H2    S    
Cr1   O18   S    
C21   O6    A    
C27   O17   A    
C11   C13   A    
C41   C42   T    
Cr4   O6    S    
C35   C36   S    
C14   C31   S    
Cr4   O23   S    
C37   H9    S    
C7    C8    A    
Cr3   O16   S    
C12   C23   A    
C40   H17   S    
C31   H5    S    
C36   C37   S    
C18   C42   S    
Cr6   O9    S    
C38   C39   S    
C16   O16   A    
C10   C17   A    
C31   H6    S    
C11   F1    S    
Cr5   O8    S    
C26   C45   S    
Cr6   O10   S    
Cr1   O1    S    
C1    C43   S    
C8    C9    A    
C2    C22   S    
C39   H19   S    
C36   H10   S    
Cr5   O7    S    
Cr1   O4    S    
C26   O12   A    
Cr1   O17   S    
C21   O7    A    
C28   C34   A    
C4    O15   A    
C13   C14   A    
C8    H25   S    
C32   H4    S    
C19   O2    A    
C15   C35   S    
C20   C44   S    
C25   O18   A    
C2    C45   T    
C22   O9    A    
C4    C34   S    
Cr2   O22   S    
C40   H16   S    
C39   C40   S    
C28   H1    S    
C1    O13   A    
Cr4   O24   S    
C35   H13   S    
Cr3   O22   S    
Cr2   O19   S    
C13   C24   S    
C43   C44   T    
C18   O25   A    
C29   C30   A    
C3    C9    A    
Cr6   O11   S    
C4    O14   A    
C25   O19   A    
C31   C32   S    
C35   H14   S    
C23   C34   A    
Cr3   O21   S    
C16   O1    A    
Cr2   O12   S    
C3    H23   S    
C29   H12   S    
Cr5   O11   S    
C20   O3    A    
Cr5   O26   S    
C1    O4    A    
C7    F2    S    
Cr4   O11   S    
C5    H24   S    
C24   O10   A    
Cr6   O2    S    
C9    C27   S    
C38   H21   S    
C15   C17   A    
C28   C29   A    
Cr2   O14   S    
Cr3   O15   S    
C12   C30   A    
Cr4   O5    S    
C3    C5    A    
C37   H8    S    
C10   H26   S    
C33   H27   S    
C6    C7    A    
C20   O23   A    
C23   C38   S    
Cr1   O22   S    
C27   O21   A    
C17   C25   S    
C32   C33   S    
C18   O24   A    
C26   O20   A    
C6    C21   S    
C5    C6    A    
C24   O5    A    
Cr3   O20   S    
C16   C41   S    
C22   O8    A    
C37   H7    S    
C10   C11   A    
C40   H15   S    
C12   H22   S    
Cr5   O25   S    
C39   H18   S    
C14   C15   A    
C36   H11   S    
C19   C30   S    
C33   H28   S    
Cr6   O3    S    
C32   H3    S    
Cr2   O13   S    
C38   H20   S    
C19   O26   A    
