data_mof_unit_8552.cif
_audit_creation_date              2012-12-10T20:46:48-0500
_audit_creation_method            fapswitch 2.2
_symmetry_space_group_name_H-M    P1
_symmetry_Int_Tables_number       1
_space_group_crystal_system       triclinic
_cell_length_a                    12.935361
_cell_length_b                    8.923435
_cell_length_c                    8.140656
_cell_angle_alpha                 90.000093
_cell_angle_beta                  95.900125
_cell_angle_gamma                 89.999949
_cell_volume                      934.680691424

loop_
_atom_site_label
_atom_site_type_symbol
_atom_type_description
_atom_site_fract_x
_atom_site_fract_y
_atom_site_fract_z
_atom_type_partial_charge
Br1   Br    Br    0.811517 0.409247 0.199613 -0.411460
Br2   Br    Br    0.188483 0.409246 0.800386 -0.411460
Br3   Br    Br    0.795546 0.682273 0.859525 -0.425333
Br4   Br    Br    0.204453 0.682273 0.140476 -0.425331
C1    C     C_R   0.500000 0.218143 0.500000 0.921809
C2    C     C_R   0.866606 0.584592 0.691883 0.146102
C3    C     C_R   0.131545 0.499945 0.594115 0.267914
C4    C     C_R   0.868455 0.499945 0.405886 0.267911
C5    C     C_R   0.026547 0.530553 0.578478 -0.208623
C6    C     C_R   0.973452 0.530553 0.421522 -0.208623
C7    C     C_1   0.500000 0.065229 0.500000 -0.165248
C8    C     C_1   0.500000 0.934745 0.500000 -0.154138
C9    C     C_3   0.960363 0.816642 0.204781 0.149595
C10   C     C_3   0.871987 0.847211 0.312754 -0.426458
C11   C     C_3   0.847128 0.014071 0.319550 -0.840750
C12   C     C_R   0.500000 0.781851 0.500000 0.923000
C13   C     C_3   0.039635 0.816642 0.795221 0.149596
C14   C     C_3   0.128010 0.847213 0.687246 -0.426462
C15   C     C_3   0.152864 0.014074 0.680447 -0.840755
C16   C     C_R   0.297698 0.504009 0.469808 0.959603
C17   C     C_R   0.702302 0.504009 0.530192 0.959603
C18   C     C_R   0.813695 0.523444 0.545505 -0.320781
C19   C     C_R   0.186305 0.523444 0.454495 -0.320782
C20   C     C_R   0.024668 0.586313 0.291592 0.553850
C21   C     C_R   0.975332 0.586312 0.708408 0.553851
C22   C     C_R   0.133393 0.584592 0.308117 0.146103
H1    H     H_    0.941152 0.878961 0.088132 0.191193
H2    H     H_    0.199127 0.785846 0.737311 0.282724
H3    H     H_    0.104739 0.809418 0.559239 0.192557
H4    H     H_    0.082778 0.078083 0.631055 0.266263
H5    H     H_    0.215074 0.032591 0.598222 0.265904
H6    H     H_    0.180524 0.056077 0.805711 0.296307
H7    H     H_    0.034755 0.864458 0.263552 0.114634
H8    H     H_    0.800871 0.785841 0.262689 0.282725
H9    H     H_    0.895258 0.809418 0.440762 0.192557
H10   H     H_    0.917213 0.078084 0.368943 0.266263
H11   H     H_    0.784917 0.032586 0.401773 0.265902
H12   H     H_    0.819469 0.056072 0.194285 0.296306
H13   H     H_    0.058847 0.878960 0.911870 0.191194
H14   H     H_    0.965242 0.864456 0.736452 0.114636
N1    N     N_1   0.500020 0.500000 0.073640 0.024953
N2    N     N_1   0.499980 0.500000 0.926360 0.024953
O1    O     O_R   0.499990 0.285340 0.636850 -0.612352
O2    O     O_3   0.031027 0.662375 0.836799 -0.523853
O3    O     O_R   0.500010 0.714660 0.363150 -0.610742
O4    O     O_R   0.500010 0.285340 0.363150 -0.612353
O5    O     O_R   0.499990 0.714660 0.636850 -0.610741
O6    O     O_R   0.346350 0.500000 0.614250 -0.592904
O7    O     O_R   0.653650 0.500000 0.385750 -0.592904
O8    O     O_R   0.346360 0.500000 0.340500 -0.573940
O9    O     O_R   0.653640 0.500000 0.659500 -0.573940
O10   O     O_3   0.968973 0.662376 0.163202 -0.523853
Zn1   Zn    Zn3+2 0.499990 0.500000 0.682780 1.072891
Zn2   Zn    Zn3+2 0.500010 0.500000 0.317220 1.072891

loop_
_geom_bond_atom_site_label_1
_geom_bond_atom_site_label_2
_ccdc_geom_bond_type
C12   O3    A    
C10   H8    S    
C4    C18   A    
C7    C8    T    
C11   H12   S    
C9    H7    S    
C9    O10   S    
N1    N2    T    
Br4   C22   S    
Br2   C3    S    
C16   C19   S    
O5    Zn1   S    
Br3   C2    S    
C15   H5    S    
O4    Zn2   S    
C17   O7    A    
C13   C14   S    
C1    O1    A    
C13   O2    S    
C5    C21   A    
C14   H3    S    
C16   O6    A    
C17   C18   S    
O8    Zn2   S    
C1    O4    A    
C3    C19   A    
C15   H6    S    
C21   O2    S    
C20   C22   A    
O3    Zn2   S    
C1    C7    S    
C20   O10   S    
N2    Zn1   S    
C13   H13   S    
O6    Zn1   S    
N1    Zn2   S    
C2    C21   A    
O7    Zn2   S    
Br1   C4    S    
C11   H10   S    
C17   O9    A    
C14   H2    S    
C12   O5    A    
C4    C6    A    
C14   C15   S    
C5    C6    A    
C19   C22   A    
C10   H9    S    
C3    C5    A    
C10   C11   S    
C9    H1    S    
C16   O8    A    
C6    C20   A    
C9    C10   S    
C15   H4    S    
O1    Zn1   S    
C11   H11   S    
C8    C12   S    
O9    Zn1   S    
C13   H14   S    
C2    C18   A    
