data_mof_unit_37591.cif
_audit_creation_date              2012-12-11T15:52:28-0500
_audit_creation_method            fapswitch 2.2
_symmetry_space_group_name_H-M    P1
_symmetry_Int_Tables_number       1
_space_group_crystal_system       triclinic
_cell_length_a                    11.105682
_cell_length_b                    11.101655
_cell_length_c                    18.834754
_cell_angle_alpha                 90.060346
_cell_angle_beta                  89.954317
_cell_angle_gamma                 119.964887
_cell_volume                      2011.76309339

loop_
_atom_site_label
_atom_site_type_symbol
_atom_type_description
_atom_site_fract_x
_atom_site_fract_y
_atom_site_fract_z
_atom_type_partial_charge
C1    C     C_R   0.522241 0.449880 0.144751 0.576616
C2    C     C_3   0.021558 0.740541 0.461121 -0.276853
C3    C     C_3   0.720779 0.977847 0.452928 -0.270665
C4    C     C_3   0.260609 0.284172 0.460389 -0.277004
C5    C     C_R   0.523031 0.452557 0.356193 0.541322
C6    C     C_R   0.542671 0.062114 0.353556 0.545474
C7    C     C_R   0.932098 0.478279 0.355555 0.539422
C8    C     C_R   0.457702 0.517640 0.647079 0.536877
C9    C     C_R   0.060380 0.542442 0.646925 0.535751
C10   C     C_R   0.479502 0.934379 0.645183 0.533690
C11   C     C_R   0.501714 0.996859 0.922618 -0.045213
C12   C     C_R   0.550097 0.072238 0.144766 0.575375
C13   C     C_R   0.003230 0.505034 0.922600 -0.045196
C14   C     C_R   0.494958 0.498271 0.922615 -0.045124
C15   C     C_R   0.960109 0.494998 0.069557 0.012270
C16   C     C_R   0.534883 0.039560 0.069604 0.012185
C17   C     C_R   0.504838 0.465125 0.069585 0.011900
C18   C     C_R   0.388179 0.960260 0.967134 -0.001361
C19   C     C_R   0.039803 0.427959 0.966996 -0.001612
C20   C     C_R   0.571903 0.611841 0.967127 -0.001438
C21   C     C_R   0.020947 0.426138 0.039028 0.024542
C22   C     C_R   0.405258 0.978928 0.039169 0.024910
C23   C     C_R   0.927656 0.477725 0.144737 0.576238
C24   C     C_R   0.573690 0.594787 0.039154 0.024845
C25   C     C_R   0.653953 0.090281 0.024896 0.269574
C26   C     C_R   0.909482 0.563557 0.024951 0.269518
C27   C     C_R   0.436351 0.346015 0.024864 0.269375
C28   C     C_R   0.926604 0.564238 0.950808 0.237124
C29   C     C_R   0.637487 0.073349 0.950754 0.237218
C30   C     C_R   0.435783 0.362471 0.950724 0.237180
C31   C     C_3   0.257562 0.824383 0.976503 -0.251624
C32   C     C_3   0.175753 0.433337 0.976384 -0.251473
C33   C     C_3   0.566488 0.742445 0.976629 -0.251742
C34   C     C_R   0.454347 0.521702 0.853567 0.521544
C35   C     C_3   0.155669 0.435988 0.056072 -0.300463
C36   C     C_3   0.280294 0.844301 0.056192 -0.300456
C37   C     C_3   0.563827 0.719732 0.056300 -0.300210
C38   C     C_R   0.491488 0.969923 0.570598 0.022477
C39   C     C_R   0.988690 0.500089 0.579123 0.015650
C40   C     C_R   0.500595 0.486747 0.579770 0.014740
C41   C     C_R   0.964670 0.488459 0.430664 0.022522
C42   C     C_R   0.497920 0.995758 0.422299 0.016857
C43   C     C_R   0.515345 0.473352 0.431706 0.022226
C44   C     C_R   0.568257 0.928980 0.528421 0.049329
C45   C     C_R   0.067287 0.545648 0.853559 0.522208
C46   C     C_R   0.960233 0.592636 0.542221 0.026359
C47   C     C_R   0.406735 0.366779 0.542553 0.020838
C48   C     C_R   0.949464 0.586600 0.469775 0.044426
C49   C     C_R   0.570803 0.939574 0.455876 0.019016
C50   C     C_R   0.414243 0.361479 0.470202 0.037521
C51   C     C_R   0.403869 0.017985 0.462989 -0.164269
C52   C     C_R   0.969308 0.380945 0.467763 -0.165218
C53   C     C_R   0.625516 0.582128 0.469418 -0.151560
C54   C     C_R   0.977971 0.385045 0.542146 -0.171145
C55   C     C_R   0.401488 0.006191 0.537049 -0.174184
C56   C     C_R   0.478313 0.932777 0.853549 0.522461
C57   C     C_R   0.618815 0.587947 0.543703 -0.154983
C58   C     C_3   0.864241 0.099630 0.044956 -0.063136
C59   C     C_3   0.900200 0.764606 0.045242 -0.063193
C60   C     C_3   0.235401 0.135770 0.044891 -0.063089
C61   C     C_3   0.787960 0.557275 0.859021 -0.095828
C62   C     C_3   0.769204 0.212099 0.858988 -0.095997
C63   C     C_3   0.442943 0.230799 0.858813 -0.095509
C64   C     C_3   0.718088 0.970442 0.533024 -0.265742
C65   C     C_3   0.032767 0.748750 0.541072 -0.267035
C66   C     C_3   0.250784 0.289153 0.540117 -0.267654
Cr1   Cr    Cr6+3 0.769160 0.541570 0.250690 1.026172
Cr2   Cr    Cr6+3 0.458430 0.227590 0.250690 1.025172
Cr3   Cr    Cr6+3 0.772410 0.230840 0.250690 1.023540
Cr4   Cr    Cr6+3 0.541570 0.769160 0.749310 1.012792
Cr5   Cr    Cr6+3 0.227590 0.458430 0.749310 1.009413
Cr6   Cr    Cr6+3 0.230840 0.772410 0.749310 1.010284
H1    H     H_    0.265895 0.735953 0.955551 0.125719
H2    H     H_    0.229096 0.536157 0.081448 0.113136
H3    H     H_    0.306802 0.770622 0.081444 0.113018
H4    H     H_    0.463689 0.693095 0.081682 0.113097
H5    H     H_    0.341758 0.056550 0.438572 0.136841
H6    H     H_    0.972042 0.297843 0.439364 0.116917
H7    H     H_    0.713258 0.663995 0.441614 0.124033
H8    H     H_    0.988291 0.305463 0.569824 0.115590
H9    H     H_    0.333437 0.029716 0.567885 0.120163
H10   H     H_    0.699669 0.675600 0.572043 0.117504
H11   H     H_    0.734833 0.887152 0.554053 0.138548
H12   H     H_    0.264064 0.530153 0.955574 0.125731
H13   H     H_    0.141905 0.798350 0.559333 0.174182
H14   H     H_    0.206799 0.354572 0.557071 0.170881
H15   H     H_    0.953044 0.777863 0.439593 0.131334
H16   H     H_    0.791212 0.084158 0.433357 0.163288
H17   H     H_    0.220621 0.177338 0.439514 0.132954
H18   H     H_    0.781554 0.073282 0.558966 0.134599
H19   H     H_    0.969512 0.789604 0.565936 0.123864
H20   H     H_    0.204787 0.185172 0.565633 0.127977
H21   H     H_    0.123603 0.782470 0.433906 0.140887
H22   H     H_    0.735036 0.895634 0.427322 0.125254
H23   H     H_    0.469711 0.734051 0.955824 0.125542
H24   H     H_    0.222563 0.346605 0.432094 0.137781
H25   H     H_    0.936036 0.144848 0.999330 0.163991
H26   H     H_    0.801801 0.986792 0.036901 0.072606
H27   H     H_    0.927591 0.116702 0.093355 0.106803
H28   H     H_    0.854893 0.791261 0.999712 0.163848
H29   H     H_    0.012968 0.814808 0.037104 0.072806
H30   H     H_    0.883296 0.810960 0.093728 0.106808
H31   H     H_    0.208950 0.063600 0.999409 0.163856
H32   H     H_    0.185153 0.198271 0.036524 0.072957
H33   H     H_    0.188919 0.072823 0.093385 0.106616
H34   H     H_    0.140570 0.344039 0.086020 0.138383
H35   H     H_    0.700809 0.466705 0.885087 0.085683
H36   H     H_    0.830926 0.520776 0.816450 0.109437
H37   H     H_    0.747748 0.619045 0.832674 0.163533
H38   H     H_    0.765821 0.299290 0.885171 0.085818
H39   H     H_    0.689843 0.169252 0.816445 0.109694
H40   H     H_    0.871147 0.252279 0.832593 0.163467
H41   H     H_    0.533497 0.234190 0.884878 0.085531
H42   H     H_    0.479409 0.310235 0.816316 0.109398
H43   H     H_    0.381285 0.128865 0.832368 0.163880
H44   H     H_    0.203592 0.859623 0.086236 0.138369
H45   H     H_    0.655749 0.796559 0.086276 0.138515
H46   H     H_    0.167000 0.830430 0.956506 0.176943
H47   H     H_    0.169911 0.336835 0.956225 0.177364
H48   H     H_    0.662951 0.833012 0.956543 0.177076
O1    O     O_R   0.911480 0.572650 0.170990 -0.492469
O2    O     O_R   0.528970 0.640340 0.824320 -0.518866
O3    O     O_R   0.111370 0.471030 0.824320 -0.518146
O4    O     O_R   0.359660 0.888630 0.824320 -0.517668
O5    O     O_R   0.909980 0.572450 0.331530 -0.525987
O6    O     O_R   0.427550 0.337530 0.331530 -0.526344
O7    O     O_R   0.662470 0.090020 0.331530 -0.530920
O8    O     O_R   0.572450 0.909980 0.668470 -0.521116
O9    O     O_R   0.337530 0.427550 0.668470 -0.526946
O10   O     O_R   0.090020 0.662470 0.668470 -0.526600
O11   O     O_R   0.638950 0.528780 0.324500 -0.514448
O12   O     O_R   0.427350 0.338830 0.170990 -0.491922
O13   O     O_R   0.471220 0.110170 0.324500 -0.515775
O14   O     O_R   0.889830 0.361050 0.324500 -0.514979
O15   O     O_R   0.528780 0.638950 0.675500 -0.508457
O16   O     O_R   0.110170 0.471220 0.675500 -0.512899
O17   O     O_R   0.361050 0.889830 0.675500 -0.513409
O18   O     O_3   0.666667 0.333333 0.250560 -0.268007
O19   O     O_3   0.333333 0.666667 0.749440 -0.259805
O20   O     O_3   0.785565 0.166873 0.053938 -0.526379
O21   O     O_3   0.832948 0.618726 0.054087 -0.526415
O22   O     O_3   0.381199 0.214348 0.053886 -0.526433
O23   O     O_R   0.661170 0.088520 0.170990 -0.492526
O24   O     O_3   0.888646 0.642905 0.909172 -0.554333
O25   O     O_3   0.754035 0.111237 0.909026 -0.554318
O26   O     O_3   0.357252 0.245885 0.908987 -0.554319
O27   O     O_R   0.572650 0.911480 0.829010 -0.478223
O28   O     O_R   0.338830 0.427350 0.829010 -0.478460
O29   O     O_R   0.088520 0.661170 0.829010 -0.478357
O30   O     O_R   0.640340 0.528970 0.175680 -0.474812
O31   O     O_R   0.471030 0.111370 0.175680 -0.475921
O32   O     O_R   0.888630 0.359660 0.175680 -0.474935

loop_
_geom_bond_atom_site_label_1
_geom_bond_atom_site_label_2
_ccdc_geom_bond_type
C44   C49   A    
C40   C47   A    
C13   C45   S    
C23   O32   A    
C11   C18   A    
Cr3   O14   S    
C16   C25   A    
Cr2   O18   S    
C58   H26   S    
C64   H18   S    
C2    C65   S    
C61   H37   S    
C3    C49   S    
C35   H2    S    
C63   O26   S    
C9    O10   A    
C45   O3    A    
C56   O4    A    
Cr5   O3    S    
Cr2   O13   S    
C53   H7    S    
C6    O7    A    
C6    O13   A    
Cr1   O5    S    
C29   O25   S    
C10   O8    A    
C31   H1    S    
C39   C54   A    
C58   O20   S    
Cr1   O1    S    
C9    C39   S    
C27   O22   S    
Cr2   O12   S    
Cr1   O18   S    
C61   H36   S    
C60   O22   S    
C4    H24   S    
C63   H42   S    
C34   O28   A    
C43   C53   A    
Cr6   O19   S    
C38   C55   A    
C12   C16   S    
C62   O25   S    
C5    O6    A    
C13   C28   A    
C28   O24   S    
C10   O17   A    
C27   C30   A    
C55   H9    S    
C26   O21   S    
C41   C52   A    
C51   C55   A    
C42   C51   A    
C63   H43   S    
C1    O12   A    
C15   C23   S    
Cr5   O28   S    
C5    C43   S    
Cr4   O19   S    
C34   O2    A    
Cr6   O4    S    
C8    O15   A    
C59   H28   S    
Cr3   O32   S    
C12   O31   A    
C58   H25   S    
C14   C30   A    
C52   H6    S    
C19   C32   S    
C33   H23   S    
C18   C31   S    
C52   C54   A    
C30   O26   S    
C47   C50   A    
C54   H8    S    
C31   C36   S    
C25   C29   A    
C32   H12   S    
C46   C48   A    
C17   C24   A    
C13   C19   A    
C59   H29   S    
C32   C35   S    
C20   C24   A    
C1    O30   A    
C25   O20   S    
C46   C65   S    
C23   O1    A    
Cr5   O16   S    
C53   C57   A    
C15   C26   A    
C66   H20   S    
C2    C48   S    
C3    C64   S    
C44   C64   S    
C4    C50   S    
C17   C27   A    
C51   H5    S    
C64   H11   S    
C38   C44   A    
C36   H3    S    
C14   C20   A    
Cr5   O9    S    
Cr4   O2    S    
C61   O24   S    
C62   H38   S    
C5    O11   A    
C24   C37   S    
C37   H45   S    
C2    H15   S    
C62   H39   S    
C65   H13   S    
C11   C29   A    
C7    O14   A    
C39   C46   A    
C20   C33   S    
Cr6   O17   S    
C7    O5    A    
C37   H4    S    
Cr4   O15   S    
C32   H47   S    
C60   H31   S    
Cr2   O6    S    
C66   H14   S    
C4    H17   S    
Cr4   O8    S    
Cr3   O18   S    
C65   H19   S    
C16   C22   A    
C40   C57   A    
C47   C66   S    
C19   C21   A    
C3    H16   S    
C18   C22   A    
C59   H30   S    
C1    C17   S    
C2    H21   S    
Cr1   O11   S    
C58   H27   S    
C14   C34   S    
Cr5   O19   S    
C43   C50   A    
Cr6   O10   S    
C21   C35   S    
Cr3   O23   S    
C22   C36   S    
C31   H46   S    
C26   C28   A    
C12   O23   A    
C10   C38   S    
C56   O27   A    
Cr2   O31   S    
C4    C66   S    
C41   C48   A    
C3    H22   S    
C45   O29   A    
C7    C41   S    
C61   H35   S    
C59   O21   S    
C33   C37   S    
C60   H33   S    
C42   C49   A    
C63   H41   S    
C9    O16   A    
C15   C21   A    
C62   H40   S    
Cr3   O7    S    
C33   H48   S    
Cr6   O29   S    
C6    C42   S    
C8    O9    A    
C35   H34   S    
C57   H10   S    
Cr4   O27   S    
C8    C40   S    
C60   H32   S    
C11   C56   S    
Cr1   O30   S    
C36   H44   S    
