data_mof_unit_22443.cif
_audit_creation_date              2012-12-10T19:13:29-0500
_audit_creation_method            fapswitch 2.2
_symmetry_space_group_name_H-M    P1
_symmetry_Int_Tables_number       1
_space_group_crystal_system       triclinic
_cell_length_a                    9.675731
_cell_length_b                    10.639047
_cell_length_c                    16.624558
_cell_angle_alpha                 89.579657
_cell_angle_beta                  85.117006
_cell_angle_gamma                 89.618326
_cell_volume                      1705.05293854

loop_
_atom_site_label
_atom_site_type_symbol
_atom_type_description
_atom_site_fract_x
_atom_site_fract_y
_atom_site_fract_z
_atom_type_partial_charge
C1    C     C_R   0.499837 0.742585 0.500605 0.848994
C2    C     C_R   0.366197 0.532566 0.794546 0.089433
C3    C     C_R   0.662049 0.443597 0.132389 0.126290
C4    C     C_R   0.648437 0.487214 0.211540 -0.205845
C5    C     C_R   0.433536 0.371956 0.237284 -0.223090
C6    C     C_R   0.447947 0.325419 0.159572 -0.191326
C7    C     C_R   0.558189 0.365151 0.105321 0.153729
C8    C     C_2   0.433518 0.353690 0.984830 -0.233443
C9    C     C_2   0.553745 0.340832 0.018912 -0.246648
C10   C     C_R   0.531795 0.455284 0.262927 -0.077815
C11   C     C_3   0.450919 0.931335 0.422978 -0.414979
C12   C     C_R   0.480420 0.501606 0.653821 0.863447
C13   C     C_3   0.461183 0.075039 0.422902 -0.436289
C14   C     C_3   0.404364 0.926533 0.575115 -0.418928
C15   C     C_3   0.651033 0.925735 0.510560 -0.410731
C16   C     C_3   0.500997 0.878833 0.502314 0.165739
C17   C     C_3   0.503394 0.121143 0.505902 0.141836
C18   C     C_3   0.396903 0.070765 0.573286 -0.407797
C19   C     C_3   0.652464 0.068821 0.519636 -0.032089
C20   C     C_3   0.919316 0.626763 0.480997 -0.228248
C21   C     C_3   0.082061 0.628584 0.480718 -0.237342
C22   C     C_3   0.907912 0.465269 0.581808 -0.238574
C23   C     C_R   0.500470 0.257568 0.503762 0.833891
C24   C     C_3   0.928353 0.411009 0.441944 -0.235329
C25   C     C_3   0.070677 0.466228 0.581320 -0.225476
C26   C     C_3   0.091023 0.412730 0.441558 -0.235226
C27   C     C_R   0.519282 0.494530 0.346564 0.878187
C28   C     C_R   0.466764 0.474108 0.739856 -0.097721
C29   C     C_R   0.547998 0.374734 0.765352 -0.260542
C30   C     C_R   0.530408 0.330486 0.843573 -0.193250
C31   C     C_R   0.433895 0.387423 0.899208 0.126510
C32   C     C_R   0.349271 0.487270 0.874735 0.095373
H1    H     H_    0.624257 0.329031 0.723984 0.149489
H2    H     H_    0.370063 0.261633 0.140998 0.137701
H3    H     H_    0.341493 0.903307 0.417330 0.175217
H4    H     H_    0.515261 0.892885 0.369970 0.154601
H5    H     H_    0.539326 0.106016 0.373822 0.161279
H6    H     H_    0.359318 0.115936 0.409473 0.174677
H7    H     H_    0.297903 0.888118 0.573503 0.170889
H8    H     H_    0.289991 0.100672 0.561335 0.181286
H9    H     H_    0.693280 0.878080 0.563168 0.171450
H10   H     H_    0.719926 0.898982 0.456141 0.149130
H11   H     H_    0.726975 0.107037 0.470791 0.143510
H12   H     H_    0.727191 0.548134 0.232351 0.147637
H13   H     H_    0.445060 0.894338 0.632412 0.166460
H14   H     H_    0.417081 0.109181 0.633194 0.156381
H15   H     H_    0.874340 0.696950 0.525214 0.141331
H16   H     H_    0.888324 0.657130 0.420889 0.141139
H17   H     H_    0.128858 0.659607 0.420451 0.144334
H18   H     H_    0.112366 0.699340 0.524820 0.139350
H19   H     H_    0.863032 0.531825 0.628415 0.151319
H20   H     H_    0.101009 0.532375 0.628119 0.141462
H21   H     H_    0.889789 0.314335 0.455410 0.137965
H22   H     H_    0.346454 0.341158 0.277791 0.145374
H23   H     H_    0.898139 0.434933 0.380584 0.149996
H24   H     H_    0.137082 0.437243 0.379938 0.147167
H25   H     H_    0.129191 0.316621 0.454909 0.141451
H26   H     H_    0.867618 0.370948 0.599928 0.153901
H27   H     H_    0.108412 0.371600 0.598647 0.152666
H28   H     H_    0.651036 0.339925 0.981263 0.151313
H29   H     H_    0.337311 0.365671 0.022564 0.151442
H30   H     H_    0.594289 0.252537 0.860999 0.146360
N1    N     N_3   0.861190 0.500250 0.501720 -0.028464
N2    N     N_3   0.138550 0.503270 0.501080 -0.028985
O1    O     O_R   0.383960 0.685090 0.500020 -0.631761
O2    O     O_R   0.616040 0.685320 0.499960 -0.636446
O3    O     O_R   0.370240 0.499890 0.615830 -0.626088
O4    O     O_R   0.602330 0.500120 0.615770 -0.623041
O5    O     O_R   0.383960 0.314680 0.500040 -0.628722
O6    O     O_R   0.616040 0.314910 0.499980 -0.637007
O7    O     O_R   0.397670 0.499880 0.384230 -0.619936
O8    O     O_R   0.629760 0.500110 0.384170 -0.619886
Zn1   Zn    Zn3+2 0.345040 0.499850 0.500040 0.896773
Zn2   Zn    Zn3+2 0.654960 0.500150 0.499960 0.896385
C33   C     C_3   0.705743 0.104611 0.602353 -0.403532
C34   C     C_3   0.863535 0.085305 0.602721 -0.376863
C35   C     C_3   0.912860 0.112606 0.685604 -0.911897
H31   H     H_    0.885583 0.210308 0.704198 0.252742
H32   H     H_    0.864433 0.046107 0.731330 0.263583
H33   H     H_    0.027320 0.101082 0.683221 0.250948
H34   H     H_    0.892998 0.987129 0.586353 0.216816
H35   H     H_    0.918345 0.148789 0.557427 0.207074
H36   H     H_    0.682267 0.204093 0.616550 0.206843
H37   H     H_    0.651770 0.047805 0.651782 0.207656
N3    N     N_3   0.248734 0.546191 0.931138 -0.480721
H38   H     H_    0.299360 0.581479 0.979213 0.185613
H39   H     H_    0.176858 0.478659 0.953084 0.173387
N4    N     N_3   0.778532 0.484728 0.080030 -0.481691
H40   H     H_    0.741977 0.533840 0.031351 0.185823
H41   H     H_    0.833616 0.405508 0.058098 0.169919
C36   C     C_3   0.281830 0.646450 0.771040 -0.423139
C37   C     C_3   0.342201 0.768437 0.801694 -0.332083
C38   C     C_3   0.246770 0.880493 0.789040 -0.908250
H42   H     H_    0.224597 0.888520 0.724799 0.257429
H43   H     H_    0.147282 0.869525 0.826907 0.267174
H44   H     H_    0.297252 0.968397 0.806630 0.252417
H45   H     H_    0.357003 0.760671 0.867077 0.240112
H46   H     H_    0.445210 0.785704 0.768697 0.201308
H47   H     H_    0.277829 0.656182 0.705046 0.199231
H48   H     H_    0.172349 0.635260 0.796165 0.218263

loop_
_geom_bond_atom_site_label_1
_geom_bond_atom_site_label_2
_ccdc_geom_bond_type
C10   C27   S    
C38   H42   S    
C14   C18   S    
C21   H17   S    
C37   H46   S    
N3    H38   S    
C24   H23   S    
C15   C19   S    
C12   O4    A    
C17   C23   S    
C12   C28   S    
C28   C29   A    
C24   C26   S    
C3    C7    A    
C5    C6    A    
C33   H37   S    
O4    Zn2   S    
C15   C16   S    
O2    Zn2   S    
C29   H1    S    
O1    Zn1   S    
C2    C32   A    
C23   O5    A    
C21   N2    S    
C26   N2    S    
C22   N1    S    
C8    C9    D    
C22   C25   S    
O6    Zn2   S    
C1    O1    A    
N2    Zn1   S    
O5    Zn1   S    
O3    Zn1   S    
C36   H48   S    
C13   H5    S    
C8    H29   S    
N3    H39   S    
C14   H7    S    
C38   H43   S    
C23   O6    A    
C18   H14   S    
C21   H18   S    
C19   H11   S    
C37   H45   S    
C17   C18   S    
C14   H13   S    
C35   H32   S    
C12   O3    A    
C5    H22   S    
C34   C35   S    
C15   H9    S    
O8    Zn2   S    
C34   H35   S    
C36   C37   S    
O7    Zn1   S    
C4    H12   S    
C24   H21   S    
C35   H31   S    
C6    H2    S    
C25   N2    S    
C33   C34   S    
C29   C30   A    
C11   C16   S    
C31   C32   A    
C1    O2    A    
C1    C16   S    
C20   C21   S    
C13   H6    S    
C20   H16   S    
N4    H41   S    
C24   N1    S    
C30   H30   S    
C14   C16   S    
C4    C10   A    
C3    C4    A    
C27   O7    A    
C35   H33   S    
C7    C9    S    
C11   H4    S    
C3    N4    S    
C8    C31   S    
C15   H10   S    
C26   H24   S    
C34   H34   S    
C22   H26   S    
C6    C7    A    
N1    Zn2   S    
C38   H44   S    
C13   C17   S    
C9    H28   S    
C20   N1    S    
C19   C33   S    
C25   H20   S    
C5    C10   A    
C11   C13   S    
C33   H36   S    
C30   C31   A    
C32   N3    S    
C11   H3    S    
C37   C38   S    
C17   C19   S    
C2    C36   S    
C26   H25   S    
C20   H15   S    
C18   H8    S    
N4    H40   S    
C2    C28   A    
C25   H27   S    
C36   H47   S    
C27   O8    A    
C22   H19   S    
