data_mof_unit_43648.cif
_audit_creation_date              2012-10-26T18:34:22-0400
_audit_creation_method            fapswitch 2.2
_symmetry_space_group_name_H-M    P1
_symmetry_Int_Tables_number       1
_space_group_crystal_system       triclinic
_cell_length_a                    10.960043
_cell_length_b                    9.584078
_cell_length_c                    9.071607
_cell_angle_alpha                 90.18674
_cell_angle_beta                  91.961174
_cell_angle_gamma                 91.046137
_cell_volume                      952.174803828

loop_
_atom_site_label
_atom_site_type_symbol
_atom_type_description
_atom_site_fract_x
_atom_site_fract_y
_atom_site_fract_z
_atom_type_partial_charge
C1    C     C_R   0.262586 0.498671 0.508054 0.548499
C2    C     C_R   0.066444 0.622670 0.537909 -0.045071
C3    C     C_R   0.871797 0.503466 0.484598 -0.030796
C4    C     C_R   0.128203 0.496534 0.515402 -0.030796
C5    C     C_R   0.428536 0.072544 0.400089 0.089918
C6    C     C_R   0.571463 0.927456 0.599911 0.089919
C7    C     C_R   0.572685 0.076214 0.598626 0.087326
C8    C     C_R   0.427316 0.923786 0.401373 0.087326
C9    C     C_1   0.113600 0.235120 0.498750 0.268295
C10   C     C_1   0.886400 0.764880 0.501253 0.268295
C11   C     C_1   0.870399 0.254360 0.400648 0.260138
C12   C     C_R   0.737414 0.501329 0.491946 0.548500
C13   C     C_1   0.129600 0.745639 0.599350 0.260139
C14   C     C_1   0.354125 0.144253 0.290966 0.276569
C15   C     C_1   0.645874 0.855747 0.709034 0.276569
C16   C     C_1   0.653623 0.151953 0.700665 0.273919
C17   C     C_1   0.346378 0.848047 0.299334 0.273918
C18   C     C_R   0.499795 0.499860 0.220795 0.565178
C19   C     C_R   0.500205 0.500140 0.779205 0.565178
C20   C     C_1   0.499928 0.499810 0.065584 -0.007649
C21   C     C_1   0.500072 0.500190 0.934416 -0.007650
C22   C     C_R   0.059618 0.371916 0.487920 -0.043408
C23   C     C_R   0.940382 0.628084 0.512079 -0.043409
C24   C     C_R   0.933556 0.377329 0.462090 -0.045071
Cu1   Cu    Cu3+1 0.500000 0.640660 0.500000 1.028414
Cu2   Cu    Cu3+1 0.500000 0.359340 0.500000 1.028413
N1    N     N_R   0.500000 0.852070 0.500000 -0.266878
N2    N     N_1   0.280917 0.788490 0.217283 -0.267061
N3    N     N_R   0.500000 0.147930 0.500000 -0.266878
N4    N     N_1   0.154322 0.125005 0.509329 -0.251202
N5    N     N_1   0.845678 0.874996 0.490675 -0.251203
N6    N     N_1   0.820211 0.157081 0.350611 -0.234335
N7    N     N_1   0.179789 0.842915 0.649387 -0.234336
N8    N     N_1   0.293986 0.200329 0.202942 -0.269667
N9    N     N_1   0.706013 0.799671 0.797059 -0.269667
N10   N     N_1   0.719085 0.211510 0.782715 -0.267061
O1    O     O_R   0.319640 0.618740 0.499990 -0.495173
O2    O     O_R   0.680360 0.381260 0.500010 -0.495173
O3    O     O_R   0.680360 0.618740 0.500010 -0.496887
O4    O     O_R   0.319640 0.381260 0.499990 -0.496886
O5    O     O_R   0.500000 0.618760 0.288390 -0.496041
O6    O     O_R   0.500000 0.381240 0.711610 -0.496041
O7    O     O_R   0.500000 0.618760 0.711610 -0.494086
O8    O     O_R   0.500000 0.381240 0.288390 -0.494086

loop_
_geom_bond_atom_site_label_1
_geom_bond_atom_site_label_2
_ccdc_geom_bond_type
C14   N8    T    
C5    C8    A    
C2    C4    A    
C13   N7    T    
C6    C7    A    
C7    N3    A    
C18   O8    A    
C10   C23   S    
Cu1   N1    S    
C4    C22   A    
C18   C20   S    
C8    C17   S    
C19   O6    A    
C1    O1    A    
C1    C4    S    
Cu1   O7    S    
C12   O3    A    
C5    C14   S    
Cu2   O8    S    
Cu1   Cu2   S    
C16   N10   T    
Cu2   O4    S    
C3    C24   A    
C9    N4    T    
C15   N9    T    
C7    C16   S    
C19   C21   S    
C19   O7    A    
C11   N6    T    
C5    N3    A    
C12   O2    A    
C22   C24   A    
C9    C22   S    
C11   C24   S    
C20   C21   T    
Cu2   O6    S    
Cu2   N3    S    
C18   O5    A    
Cu1   O5    S    
C2    C23   A    
C8    N1    A    
C2    C13   S    
Cu2   O2    S    
C3    C12   S    
C1    O4    A    
Cu1   O1    S    
C6    C15   S    
C17   N2    T    
C3    C23   A    
C10   N5    T    
Cu1   O3    S    
C6    N1    A    
