data_mof_unit_68603.cif
_audit_creation_date              2012-12-10T16:52:08-0500
_audit_creation_method            fapswitch 2.2
_symmetry_space_group_name_H-M    P1
_symmetry_Int_Tables_number       1
_space_group_crystal_system       triclinic
_cell_length_a                    7.965181
_cell_length_b                    8.808488
_cell_length_c                    15.061944
_cell_angle_alpha                 95.353787
_cell_angle_beta                  84.40701
_cell_angle_gamma                 92.417944
_cell_volume                      1046.56084082

loop_
_atom_site_label
_atom_site_type_symbol
_atom_type_description
_atom_site_fract_x
_atom_site_fract_y
_atom_site_fract_z
_atom_type_partial_charge
C1    C     C_R   0.543779 0.792521 0.495911 0.889568
C2    C     C_R   0.519454 0.622490 0.827150 -0.134598
C3    C     C_R   0.505381 0.481112 0.230043 -0.156355
C4    C     C_R   0.494209 0.492938 0.769610 -0.153228
C5    C     C_R   0.609968 0.586390 0.184933 -0.084497
C6    C     C_R   0.441052 0.357047 0.806477 -0.065771
C7    C     C_R   0.612911 0.582373 0.091580 0.058589
C8    C     C_R   0.446791 0.348379 0.899204 0.057015
C9    C     C_R   0.526219 0.462960 0.043512 0.016063
C10   C     C_R   0.520521 0.469639 0.950832 0.019811
C11   C     C_R   0.436563 0.343322 0.088068 0.010912
C12   C     C_R   0.457128 0.206453 0.497743 0.911802
C13   C     C_R   0.573229 0.604540 0.910770 0.051687
C14   C     C_R   0.686978 0.705279 0.046887 -0.288930
C15   C     C_R   0.378454 0.223054 0.940868 -0.235586
C16   C     C_1   0.306888 0.262038 0.235388 0.139722
C17   C     C_1   0.403138 0.742974 0.826941 0.181616
C18   C     C_R   0.693426 0.717121 0.235730 0.141614
C19   C     C_R   0.869608 0.725525 0.234931 -0.128289
C20   C     C_R   0.950654 0.862252 0.263998 -0.089507
C21   C     C_R   0.856991 0.991248 0.292702 -0.069425
C22   C     C_R   0.681935 0.982371 0.295406 -0.171645
C23   C     C_R   0.659338 0.723819 0.958866 0.010518
C24   C     C_R   0.599823 0.843999 0.271344 -0.198168
C25   C     C_R   0.345230 0.242707 0.752367 0.105799
C26   C     C_R   0.410452 0.100347 0.723058 -0.188923
C27   C     C_R   0.313337 0.991822 0.675874 -0.116423
C28   C     C_R   0.156651 0.028758 0.652173 -0.088775
C29   C     C_R   0.096484 0.175177 0.676198 -0.108041
C30   C     C_R   0.185880 0.278589 0.730313 -0.095462
C31   C     C_R   0.720600 0.868245 0.919154 0.116701
C32   C     C_R   0.780453 0.866560 0.828185 -0.156325
C33   C     C_R   0.814012 0.002342 0.789054 -0.150548
C34   C     C_R   0.363743 0.218895 0.034063 -0.014587
C35   C     C_R   0.809048 0.141763 0.841374 -0.107621
C36   C     C_R   0.769487 0.144340 0.933405 -0.142481
C37   C     C_R   0.721631 0.009339 0.971944 -0.149994
C38   C     C_R   0.278975 0.075122 0.064430 0.135758
C39   C     C_R   0.136475 0.015895 0.022302 -0.150383
C40   C     C_R   0.091916 0.860987 0.020065 -0.111485
C41   C     C_R   0.174903 0.765672 0.067841 -0.123478
C42   C     C_R   0.303809 0.825481 0.117424 -0.148327
C43   C     C_R   0.360337 0.977766 0.113939 -0.131844
C44   C     C_1   0.735644 0.011062 0.514661 0.247109
C45   C     C_2   0.567649 0.953968 0.497432 -0.243276
C46   C     C_1   0.284586 0.983365 0.448944 0.238457
C47   C     C_2   0.439448 0.043599 0.483871 -0.250746
C48   C     C_R   0.499459 0.504014 0.673278 0.874117
C49   C     C_R   0.499888 0.492500 0.327189 0.880333
C50   C     C_R   0.418402 0.360426 0.183220 -0.089557
H1    H     H_    0.757096 0.794445 0.082478 0.165125
H2    H     H_    0.532559 0.071617 0.739333 0.152853
H3    H     H_    0.359689 0.878675 0.658188 0.154646
H4    H     H_    0.083179 0.943272 0.615255 0.142650
H5    H     H_    0.976882 0.207860 0.657200 0.142847
H6    H     H_    0.132869 0.388236 0.753308 0.131696
H7    H     H_    0.795526 0.760940 0.785929 0.131610
H8    H     H_    0.835858 0.997786 0.717258 0.126872
H9    H     H_    0.834089 0.247821 0.810948 0.127907
H10   H     H_    0.771895 0.251343 0.974764 0.141320
H11   H     H_    0.687013 0.016909 0.042977 0.129104
H12   H     H_    0.333149 0.125889 0.899854 0.187856
H13   H     H_    0.072710 0.086321 0.982132 0.148020
H14   H     H_    0.999312 0.812482 0.977711 0.151348
H15   H     H_    0.139315 0.645558 0.066605 0.131302
H16   H     H_    0.360214 0.750591 0.156661 0.145728
H17   H     H_    0.469381 0.018031 0.147672 0.126598
H18   H     H_    0.012091 0.379183 0.430606 0.200226
H19   H     H_    0.987915 0.620746 0.569453 0.179847
H20   H     H_    0.943787 0.628480 0.208417 0.127681
H21   H     H_    0.086345 0.869194 0.262002 0.161948
H22   H     H_    0.918407 0.097906 0.314304 0.159496
H23   H     H_    0.609698 0.082553 0.317215 0.143271
H24   H     H_    0.463747 0.838385 0.278243 0.131593
N1    N     N_2   0.950330 0.457950 0.475660 -0.173820
N2    N     N_2   0.049670 0.542050 0.524340 -0.178647
N3    N     N_1   0.219078 0.184654 0.278759 -0.249457
N4    N     N_1   0.304486 0.836271 0.831287 -0.220131
N5    N     N_1   0.869911 0.057857 0.526080 -0.228521
N6    N     N_1   0.161498 0.933414 0.421616 -0.197925
O1    O     O_R   0.389250 0.738570 0.505970 -0.626851
O2    O     O_R   0.610750 0.261430 0.494030 -0.621567
O3    O     O_R   0.678390 0.711620 0.490370 -0.611919
O4    O     O_R   0.321610 0.288380 0.509630 -0.603642
O5    O     O_R   0.355420 0.513510 0.639950 -0.625096
O6    O     O_R   0.644580 0.486490 0.360050 -0.616691
O7    O     O_R   0.644560 0.486560 0.624350 -0.626657
O8    O     O_R   0.355440 0.513440 0.375650 -0.615312
Zn1   Zn    Zn3+2 0.306940 0.517990 0.510420 0.956254
Zn2   Zn    Zn3+2 0.693060 0.482010 0.489580 0.955522

loop_
_geom_bond_atom_site_label_1
_geom_bond_atom_site_label_2
_ccdc_geom_bond_type
C33   H8    S    
C41   C42   A    
C35   C36   A    
C24   H24   S    
C3    C49   S    
C31   C32   A    
H18   N1    S    
C12   O4    A    
C26   C27   A    
C18   C24   A    
C36   C37   A    
C16   C50   S    
C18   C19   A    
C38   C39   A    
C6    C25   S    
C1    O1    A    
C13   C23   A    
H19   N2    S    
C35   H9    S    
C16   N3    T    
C2    C13   A    
N1    Zn2   S    
C7    C14   A    
C19   C20   A    
C20   H21   S    
C9    C10   A    
C15   C34   A    
N2    Zn1   S    
O1    Zn1   S    
C44   N5    T    
C21   C22   A    
C2    C17   S    
C49   O8    A    
C32   H7    S    
C12   C47   S    
C3    C50   A    
C45   C47   D    
C21   H22   S    
C4    C6    A    
O6    Zn2   S    
C39   C40   A    
C5    C7    A    
O5    Zn1   S    
C6    C8    A    
C5    C18   S    
C29   H5    S    
C36   H10   S    
C25   C26   A    
C30   H6    S    
C31   C37   A    
C23   C31   S    
C14   C23   A    
C2    C4    A    
N1    N2    D    
C29   C30   A    
C26   H2    S    
C14   H1    S    
C48   O7    A    
C12   O2    A    
O8    Zn1   S    
C9    C11   A    
C8    C10   A    
C40   C41   A    
C8    C15   A    
C22   C24   A    
O4    Zn1   S    
C44   C45   S    
C4    C48   S    
C25   C30   A    
C7    C9    A    
O3    Zn2   S    
C46   C47   S    
C28   C29   A    
C28   H4    S    
C34   C38   S    
C49   O6    A    
C11   C34   A    
C3    C5    A    
C10   C13   A    
C40   H14   S    
C37   H11   S    
C27   H3    S    
C1    O3    A    
C39   H13   S    
O2    Zn2   S    
C32   C33   A    
C38   C43   A    
C11   C50   A    
C46   N6    T    
C1    C45   S    
C17   N4    T    
C33   C35   A    
C15   H12   S    
C41   H15   S    
C20   C21   A    
C43   H17   S    
C42   C43   A    
O7    Zn2   S    
C27   C28   A    
C42   H16   S    
C48   O5    A    
C19   H20   S    
C22   H23   S    
