data_mof_unit_46886.cif
_audit_creation_date              2012-12-10T16:45:20-0500
_audit_creation_method            fapswitch 2.2
_symmetry_space_group_name_H-M    P1
_symmetry_Int_Tables_number       1
_space_group_crystal_system       triclinic
_cell_length_a                    7.595046
_cell_length_b                    8.709791
_cell_length_c                    15.828665
_cell_angle_alpha                 97.707948
_cell_angle_beta                  75.333768
_cell_angle_gamma                 104.06352
_cell_volume                      979.662394583

loop_
_atom_site_label
_atom_site_type_symbol
_atom_type_description
_atom_site_fract_x
_atom_site_fract_y
_atom_site_fract_z
_atom_type_partial_charge
C1    C     C_R   0.545549 0.800084 0.502916 0.869571
C2    C     C_R   0.454551 0.199911 0.496955 0.869329
C3    C     C_R   0.277057 0.426332 0.079486 -0.229812
C4    C     C_R   0.711616 0.622151 0.928141 -0.230919
C5    C     C_R   0.150560 0.389958 0.026290 -0.226463
C6    C     C_R   0.837201 0.661278 0.981796 -0.225729
C7    C     C_2   0.569523 0.969165 0.504560 -0.368286
C8    C     C_2   0.430795 0.030818 0.495060 -0.370140
C9    C     C_R   0.385945 0.489126 0.665699 0.780343
C10   C     C_R   0.614115 0.512036 0.334461 0.779528
C11   C     C_R   0.318464 0.475988 0.760565 -0.044428
C12   C     C_R   0.681638 0.534663 0.240659 -0.043701
C13   C     C_R   0.076641 0.383559 0.886147 -0.187341
C14   C     C_R   0.914348 0.657513 0.120158 -0.188861
C15   C     C_R   0.131672 0.410636 0.797600 -0.204004
C16   C     C_R   0.863210 0.617107 0.206545 -0.206557
C17   C     C_R   0.447477 0.520423 0.813633 -0.254279
C18   C     C_R   0.554237 0.488043 0.186935 -0.252582
C19   C     C_R   0.395392 0.496495 0.903513 0.086455
C20   C     C_R   0.599594 0.532754 0.100599 0.085140
C21   C     C_R   0.207109 0.423496 0.938859 0.153559
C22   C     C_R   0.784205 0.616935 0.067270 0.151399
C23   C     C_R   0.525632 0.538577 0.958414 0.062635
C24   C     C_R   0.467011 0.497669 0.046993 0.065110
Cu1   Cu    Cu3+1 0.322120 0.483240 0.490330 0.915567
Cu2   Cu    Cu3+1 0.677880 0.516760 0.509670 0.914504
H1    H     H_    0.006576 0.335185 0.054101 0.156493
H2    H     H_    0.977805 0.726250 0.955794 0.153697
H3    H     H_    0.419619 0.417694 0.214935 0.143938
H4    H     H_    0.589541 0.568910 0.782158 0.146876
H5    H     H_    0.963509 0.654627 0.247247 0.152450
H6    H     H_    0.029745 0.375387 0.757683 0.150965
H7    H     H_    0.932205 0.329279 0.913283 0.147090
H8    H     H_    0.055237 0.722579 0.094946 0.147570
H9    H     H_    0.219045 0.400060 0.146649 0.140624
H10   H     H_    0.764912 0.663088 0.863606 0.141144
H11   H     H_    0.701774 0.043096 0.513875 0.176098
H12   H     H_    0.298585 0.956882 0.485705 0.176659
N1    N     N_2   0.945180 0.542040 0.524240 -0.104514
N2    N     N_2   0.054820 0.457960 0.475760 -0.104369
O1    O     O_R   0.384450 0.714270 0.493720 -0.591821
O2    O     O_R   0.615550 0.285730 0.506280 -0.591778
O3    O     O_R   0.684880 0.742590 0.510050 -0.601047
O4    O     O_R   0.315120 0.257410 0.489950 -0.600143
O5    O     O_R   0.265540 0.477900 0.617090 -0.616185
O6    O     O_R   0.734460 0.522100 0.382910 -0.617166
O7    O     O_R   0.565970 0.506210 0.633420 -0.594250
O8    O     O_R   0.434030 0.493790 0.366580 -0.593225
C25   C     C_3   0.987483 0.627091 0.605258 -0.062912
C26   C     C_3   0.924103 0.785313 0.626266 -0.384224
C27   C     C_3   0.011312 0.890366 0.697149 -0.947083
H13   H     H_    0.978678 0.826509 0.757210 0.254395
H14   H     H_    0.165150 0.925547 0.673490 0.264528
H15   H     H_    0.955079 0.999794 0.713685 0.264188
H16   H     H_    0.967812 0.851777 0.566513 0.235128
H17   H     H_    0.770926 0.764620 0.650597 0.250058
H18   H     H_    0.922087 0.550336 0.660528 0.140879
H19   H     H_    0.135007 0.663971 0.600668 0.225170
C28   C     C_3   0.013001 0.374106 0.394388 -0.061101
C29   C     C_3   0.078524 0.216846 0.371968 -0.385803
C30   C     C_3   0.997212 0.115601 0.298353 -0.947237
H20   H     H_    0.842705 0.081463 0.319077 0.264419
H21   H     H_    0.036922 0.181927 0.238750 0.255509
H22   H     H_    0.052044 0.005457 0.282125 0.263069
H23   H     H_    0.231963 0.238436 0.349484 0.251824
H24   H     H_    0.032086 0.147204 0.430596 0.233147
H25   H     H_    0.865357 0.335735 0.399242 0.223495
H26   H     H_    0.076945 0.452351 0.339665 0.143406

loop_
_geom_bond_atom_site_label_1
_geom_bond_atom_site_label_2
_ccdc_geom_bond_type
C10   O6    A    
C30   H22   S    
C19   C23   A    
C23   C24   A    
C4    H10   S    
C14   H8    S    
C19   C21   A    
C6    H2    S    
C28   H26   S    
C29   H23   S    
C26   H16   S    
C3    H9    S    
C3    C5    A    
C27   H15   S    
C14   C22   A    
C30   H21   S    
C26   C27   S    
C7    H11   S    
C13   C21   A    
C28   C29   S    
N2    C28   S    
Cu1   O1    S    
C16   H5    S    
C13   H7    S    
C17   H4    S    
C9    C11   S    
Cu1   O8    S    
C3    C24   A    
C8    H12   S    
Cu2   O7    S    
C2    O2    A    
C1    C7    S    
C9    O5    A    
C10   C12   S    
Cu1   O4    S    
C1    O1    A    
C17   C19   A    
C20   C22   A    
Cu2   O3    S    
C9    O7    A    
C18   C20   A    
C13   C15   A    
Cu1   N2    S    
C10   O8    A    
C30   H20   S    
C14   C16   A    
Cu2   N1    S    
Cu2   O6    S    
C29   H24   S    
C27   H13   S    
C6    C22   A    
N1    C25   S    
Cu1   O5    S    
C7    C8    D    
C25   H18   S    
Cu2   O2    S    
C4    C6    A    
C25   C26   S    
C12   C18   A    
N1    N2    D    
C18   H3    S    
C4    C23   A    
C20   C24   A    
C11   C17   A    
C2    C8    S    
C28   H25   S    
Cu1   Cu2   S    
C5    H1    S    
C11   C15   A    
C1    O3    A    
C26   H17   S    
C25   H19   S    
C12   C16   A    
C2    O4    A    
C29   C30   S    
C27   H14   S    
C5    C21   A    
C15   H6    S    
