data_mof_unit_13439.cif
_audit_creation_date              2013-03-05T16:34:12-0500
_audit_creation_method            fapswitch 2.2
_symmetry_space_group_name_H-M    P1
_symmetry_Int_Tables_number       1
_space_group_crystal_system       triclinic
_cell_length_a                    10.893225
_cell_length_b                    10.917462
_cell_length_c                    9.592622
_cell_angle_alpha                 91.859438
_cell_angle_beta                  92.207865
_cell_angle_gamma                 89.372692
_cell_volume                      1139.31482884

loop_
_atom_site_label
_atom_site_type_symbol
_atom_site_description
_atom_site_fract_x
_atom_site_fract_y
_atom_site_fract_z
_atom_type_partial_charge
O1    O     O_R   0.500000 0.319640 0.618810 -0.593532
O2    O     O_R   0.500010 0.319680 0.381230 -0.588361
C1    C     C_R   0.496436 0.262768 0.497771 0.848570
O3    O     O_R   0.319640 0.499990 0.618790 -0.555106
O4    O     O_R   0.319650 0.500030 0.381210 -0.598977
C2    C     C_R   0.262701 0.496728 0.497069 0.899373
Cu1   Cu    Cu3+1 0.499990 0.499980 0.640670 1.021306
Cu2   Cu    Cu3+1 0.500010 0.500020 0.359330 0.986864
O5    O     O_R   0.499990 0.680320 0.618770 -0.546574
O6    O     O_R   0.500000 0.680360 0.381190 -0.621475
O7    O     O_R   0.680350 0.499970 0.618790 -0.587810
O8    O     O_R   0.680360 0.500010 0.381210 -0.582836
C3    C     C_R   0.496452 0.737960 0.501081 0.892940
C4    C     C_R   0.738076 0.499571 0.503218 0.921198
H1    H     H_    0.237558 0.722329 0.932368 0.232636
C5    C     C_R   0.215555 0.771862 0.150016 -0.129852
H2    H     H_    0.259719 0.859540 0.142666 0.215584
C6    C     C_R   0.171495 0.735825 0.278288 0.368436
C7    C     C_R   0.111636 0.621257 0.282631 0.081486
C8    C     C_R   0.099617 0.546090 0.161226 -0.174229
H3    H     H_    0.054458 0.458267 0.163769 0.157682
C9    C     C_R   0.145739 0.582744 0.036287 -0.170127
H4    H     H_    0.136832 0.523981 0.943567 0.186336
C10   C     C_R   0.203177 0.695296 0.030529 -0.076401
C11   C     C_R   0.933822 0.590494 0.433692 0.273462
C12   C     C_R   0.873230 0.503175 0.511096 -0.205134
C13   C     C_R   0.942745 0.415356 0.586745 -0.074238
C14   C     C_R   0.070957 0.411069 0.577947 0.302915
C15   C     C_R   0.128809 0.491473 0.491360 -0.220762
C16   C     C_R   0.059392 0.573719 0.409889 -0.055874
C17   C     C_R   0.893395 0.370349 0.826275 -0.150507
H5    H     H_    0.925018 0.461475 0.856235 0.145928
C18   C     C_R   0.870360 0.288884 0.930439 -0.142862
H6    H     H_    0.876770 0.319151 0.039047 0.162130
C19   C     C_R   0.846966 0.166750 0.894965 -0.081246
H7    H     H_    0.835751 0.102472 0.976774 0.225883
C20   C     C_R   0.842394 0.126904 0.754938 -0.135591
H8    H     H_    0.828442 0.031007 0.730384 0.252497
C21   C     C_R   0.859665 0.208977 0.647518 0.325565
C22   C     C_R   0.887180 0.332628 0.684859 0.058456
C23   C     C_R   0.449082 0.070007 0.610949 0.112967
C24   C     C_R   0.481138 0.130610 0.492539 -0.056223
C25   C     C_R   0.494214 0.060672 0.368431 -0.106283
H9    H     H_    0.510239 0.104162 0.270970 0.175113
C26   C     C_R   0.494328 0.932412 0.371310 -0.124340
H10   H     H_    0.506561 0.881516 0.274414 0.166641
C27   C     C_R   0.484894 0.871947 0.498701 -0.055237
C28   C     C_R   0.453212 0.943977 0.615345 0.070048
C29   C     C_3   0.492717 0.951880 0.767475 0.569539
C30   C     C_3   0.484145 0.090932 0.760954 -0.521156
H11   H     H_    0.407675 0.132669 0.820006 0.231221
H12   H     H_    0.573526 0.138567 0.776900 0.194855
C31   C     C_R   0.555310 0.591704 0.078871 0.220794
N1    N     N_R   0.500790 0.500930 0.147930 -0.211905
C32   C     C_R   0.434547 0.416605 0.068425 -0.056940
H13   H     H_    0.383210 0.347611 0.119065 0.161661
C33   C     C_R   0.434302 0.416879 0.919869 -0.060473
H14   H     H_    0.382584 0.348427 0.859876 0.195130
N2    N     N_R   0.500790 0.500890 0.852020 -0.213919
C34   C     C_R   0.556421 0.590975 0.931780 0.291913
C35   C     C_3   0.689354 0.619772 0.933450 -0.435541
C36   C     C_3   0.687658 0.625183 0.091206 -0.125525
H15   H     H_    0.742320 0.541732 0.891876 0.175854
H16   H     H_    0.710040 0.707555 0.886819 0.289044
H17   H     H_    0.749068 0.556372 0.141832 0.194750
N3    N     N_R   0.855624 0.164011 0.504194 0.125447
O9    O     O_R   0.839412 0.238431 0.401736 -0.393028
O10   O     O_R   0.858271 0.046669 0.475353 -0.238354
N4    N     N_R   0.402422 0.901612 0.858417 0.099110
O11   O     O_R   0.438499 0.846260 0.970854 -0.442703
O12   O     O_R   0.286059 0.926429 0.837674 -0.335088
N5    N     N_R   0.618639 0.911094 0.799939 0.072391
O13   O     O_R   0.684287 0.856924 0.705478 -0.366672
O14   O     O_R   0.671912 0.946730 0.917560 -0.404967
N6    N     N_3   0.704153 0.749520 0.148900 -0.435931
H18   H     H_    0.641339 0.808936 0.101209 0.289517
H19   H     H_    0.679191 0.749054 0.252349 0.278115
N7    N     N_R   0.182965 0.818056 0.398823 0.128343
O15   O     O_R   0.179489 0.777970 0.524829 -0.345458
O16   O     O_R   0.198345 0.934772 0.382988 -0.296225
N8    N     N_R   0.872782 0.704232 0.399474 0.127642
O17   O     O_R   0.915883 0.776096 0.308010 -0.288832
O18   O     O_R   0.790360 0.749176 0.481723 -0.325987
N9    N     N_R   0.141668 0.316359 0.645533 0.127753
O19   O     O_R   0.150057 0.312659 0.780907 -0.394541
O20   O     O_R   0.201839 0.236138 0.570945 -0.330277

loop_
_geom_bond_atom_site_label_1
_geom_bond_atom_site_label_2
_geom_bond_distance
_ccdc_geom_bond_type
N3    O10   1.302040 A    
C32   H13   1.081651 S    
C1    C24   1.453261 S    
C14   N9    1.438887 S    
C23   C24   1.390774 A    
C7    C8    1.405502 A    
N6    H18   1.040999 S    
N8    O17   1.300106 A    
Cu1   Cu2   2.698810 S    
C31   N1    1.363628 A    
Cu1   O7    1.983903 S    
C12   C13   1.416392 A    
C15   C16   1.404986 A    
C14   C15   1.399053 A    
C19   C20   1.397632 A    
N9    O20   1.300569 A    
O4    C2    1.295201 A    
O7    C4    1.295322 A    
N7    O16   1.301550 A    
C33   N2    1.370770 A    
C17   C22   1.404168 A    
C35   H15   1.096697 S    
C6    C7    1.419412 A    
N4    O12   1.302416 A    
O5    C3    1.309284 A    
C17   H5    1.082749 S    
C5    H2    1.081561 S    
C29   N5    1.462710 S    
C30   H12   1.111880 S    
C17   C18   1.390776 A    
C6    N7    1.443062 S    
N3    O9    1.300999 A    
N2    C34   1.359553 A    
C5    C10   1.399670 A    
C29   N4    1.462423 S    
C11   N8    1.443368 S    
C35   C36   1.513355 S    
O3    Cu1   1.967714 S    
Cu1   N2    2.026787 S    
N8    O18   1.299684 A    
C31   C34   1.411273 A    
C30   H11   1.110723 S    
C26   C27   1.415327 A    
N9    O19   1.300195 A    
N5    O14   1.298907 A    
Cu2   N1    2.028573 S    
C21   C22   1.417655 A    
C3    C27   1.467674 S    
N7    O15   1.300845 A    
C11   C12   1.411813 A    
C26   H10   1.079286 S    
C34   C35   1.484541 S    
O1    C1    1.298232 A    
C19   H7    1.080846 S    
C35   H16   1.099841 S    
C25   H9    1.083121 S    
C20   H8    1.076763 S    
N6    H19   1.039161 S    
C31   C36   1.490537 S    
C27   C28   1.398648 A    
C13   C22   1.476111 S    
Cu2   O8    1.967715 S    
C18   H6    1.082612 S    
C5    C6    1.407206 A    
C4    C12   1.472178 S    
C25   C26   1.401428 A    
O3    C2    1.300501 A    
C28   C29   1.505496 S    
C8    C9    1.389562 A    
C32   C33   1.425040 A    
C21   N3    1.444012 S    
C9    C10   1.388650 A    
C36   N6    1.459497 S    
C24   C25   1.404400 A    
C23   C30   1.485552 S    
C11   C16   1.404484 A    
Cu1   O5    1.986797 S    
N1    C32   1.369845 A    
H1    C10   1.077789 S    
C36   H17   1.111464 S    
O1    Cu1   1.973212 S    
O2    Cu2   1.986799 S    
O8    C4    1.307171 A    
N5    O13   1.299283 A    
O6    C3    1.294435 A    
O4    Cu2   1.983903 S    
O2    C1    1.298579 A    
C20   C21   1.406629 A    
C33   H14   1.078606 S    
C18   C19   1.389247 A    
C23   C28   1.378129 A    
N4    O11   1.298985 A    
C2    C15   1.459119 S    
C8    H3    1.083815 S    
Cu2   O6    1.973212 S    
C29   C30   1.523107 S    
C13   C14   1.402605 A    
C9    H4    1.081546 S    
C7    C16   1.478028 S    
