data_mof_unit_68592.cif
_audit_creation_date              2012-12-11T17:44:45-0500
_audit_creation_method            fapswitch 2.2
_symmetry_space_group_name_H-M    P1
_symmetry_Int_Tables_number       1
_space_group_crystal_system       triclinic
_cell_length_a                    8.181081
_cell_length_b                    12.678138
_cell_length_c                    14.922264
_cell_angle_alpha                 96.878063
_cell_angle_beta                  97.447848
_cell_angle_gamma                 98.401718
_cell_volume                      1502.96894869

loop_
_atom_site_label
_atom_site_type_symbol
_atom_type_description
_atom_site_fract_x
_atom_site_fract_y
_atom_site_fract_z
_atom_type_partial_charge
Ba1   Ba    Ba6+2 0.843760 0.550230 0.455610 1.645405
Ba2   Ba    Ba6+2 0.346080 0.449860 0.544400 1.630685
C1    C     C_3   0.537559 0.917556 0.192524 -0.435252
C2    C     C_R   0.109263 0.467096 0.206148 0.045954
C3    C     C_R   0.923494 0.475656 0.765269 -0.295770
C4    C     C_3   0.070079 0.770972 0.204005 0.363429
C5    C     C_R   0.820226 0.444767 0.827324 0.001324
C6    C     C_R   0.878552 0.462537 0.920331 -0.138975
C7    C     C_R   0.048503 0.502791 0.953994 0.004183
C8    C     C_R   0.148273 0.546611 0.890801 -0.022769
C9    C     C_R   0.120789 0.504661 0.048016 -0.046870
C10   C     C_R   0.288969 0.558701 0.077543 -0.061244
C11   C     C_R   0.378354 0.607377 0.014959 -0.085750
C12   C     C_3   0.589149 0.829453 0.245222 0.354239
C13   C     C_R   0.308964 0.602916 0.924423 -0.045528
C14   C     C_R   0.036494 0.452184 0.113719 0.353890
C15   C     C_R   0.269997 0.523266 0.233023 -0.370922
C16   C     C_3   0.031027 0.797341 0.107497 -0.373260
C17   C     C_R   0.082804 0.533426 0.795559 0.044334
C18   C     C_R   0.771547 0.180775 0.534291 -0.280646
C19   C     C_R   0.420243 0.808977 0.463036 -0.284888
C20   C     C_R   0.388593 0.986645 0.429324 -0.104707
C21   C     C_R   0.322708 0.878698 0.425399 -0.007313
C22   C     C_R   0.579516 0.847771 0.512258 0.064371
C23   C     C_3   0.430660 0.289876 0.264234 0.293236
C24   C     C_R   0.645906 0.959494 0.520766 -0.063792
C25   C     C_R   0.549427 0.028944 0.476956 -0.060141
C26   C     C_R   0.614813 0.139607 0.483929 0.044757
C27   C     C_R   0.870341 0.113300 0.573582 -0.003874
C28   C     C_3   0.262953 0.780165 0.651238 0.275617
C29   C     C_R   0.806067 0.004061 0.569930 -0.089288
C30   C     C_3   0.257895 0.899802 0.667206 -0.334285
C31   C     C_3   0.932220 0.219020 0.348379 0.273573
C32   C     C_3   0.925011 0.098077 0.328662 -0.344473
C33   C     C_3   0.777385 0.698562 0.730368 0.318334
C34   C     C_3   0.435022 0.268989 0.161494 0.256480
C35   C     C_3   0.816208 0.732329 0.833189 -0.410195
C36   C     C_3   0.282691 0.099225 0.105154 0.156745
C37   C     C_3   0.761305 0.023809 0.935948 0.121445
C38   C     C_3   0.898732 0.283731 0.056010 0.153006
C39   C     C_3   0.141287 0.230448 0.795925 0.316005
C40   C     C_3   0.194259 0.206413 0.891859 -0.310895
C41   C     C_3   0.611022 0.177096 0.760382 0.394221
C42   C     C_3   0.629586 0.079123 0.808219 0.294286
C43   C     C_R   0.363534 0.564519 0.169830 -0.010490
H1    H     H_    0.693942 0.864923 0.300539 0.082102
H2    H     H_    0.891148 0.677916 0.704858 0.015770
H3    H     H_    0.510116 0.984277 0.240559 0.091029
H4    H     H_    0.916781 0.803737 0.849488 0.123848
H5    H     H_    0.858840 0.666745 0.867713 0.063017
H6    H     H_    0.702026 0.751735 0.859959 0.107886
H7    H     H_    0.480428 0.796976 0.276990 -0.048029
H8    H     H_    0.424136 0.884688 0.142114 0.102022
H9    H     H_    0.305845 0.306982 0.276748 0.009246
H10   H     H_    0.454210 0.348021 0.136067 0.028938
H11   H     H_    0.545402 0.230842 0.147657 0.044201
H12   H     H_    0.343521 0.936856 0.729822 0.096842
H13   H     H_    0.638996 0.948989 0.155261 0.122209
H14   H     H_    0.049333 0.729671 0.057326 0.074132
H15   H     H_    0.228112 0.301626 0.784737 0.103539
H16   H     H_    0.012645 0.249620 0.791140 -0.011959
H17   H     H_    0.316422 0.177866 0.897002 0.150619
H18   H     H_    0.206463 0.280656 0.941569 0.093366
H19   H     H_    0.100404 0.142870 0.909347 0.137771
H20   H     H_    0.732344 0.205952 0.738242 -0.077665
H21   H     H_    0.513859 0.152888 0.699042 0.000519
H22   H     H_    0.651031 0.012457 0.757619 -0.017430
H23   H     H_    0.296376 0.938389 0.608880 0.084735
H24   H     H_    0.510952 0.055431 0.835283 0.016724
H25   H     H_    0.986248 0.695563 0.209468 0.090623
H26   H     H_    0.325851 0.530500 0.303749 0.088891
H27   H     H_    0.874418 0.462125 0.693200 0.073287
H28   H     H_    0.785738 0.446711 0.963701 0.159571
H29   H     H_    0.385239 0.643612 0.881103 0.100048
H30   H     H_    0.310054 0.036731 0.396878 0.097852
H31   H     H_    0.883838 0.955342 0.604323 0.103012
H32   H     H_    0.821332 0.265424 0.538330 0.062786
H33   H     H_    0.367871 0.724708 0.458439 0.069531
H34   H     H_    0.129760 0.913119 0.676228 0.137136
H35   H     H_    0.899578 0.810762 0.093671 0.147745
H36   H     H_    0.115339 0.871021 0.098865 0.083385
H37   H     H_    0.388447 0.767564 0.637919 0.004101
H38   H     H_    0.168433 0.744843 0.590896 0.075649
H39   H     H_    0.676728 0.627209 0.715838 0.061905
H40   H     H_    0.525650 0.362087 0.291808 0.020493
H41   H     H_    0.388128 0.076822 0.070822 0.025364
H42   H     H_    0.165633 0.057693 0.061546 0.044224
H43   H     H_    0.284690 0.070023 0.172421 0.090292
H44   H     H_    0.757995 0.943659 0.896120 0.056037
H45   H     H_    0.812403 0.236652 0.367043 -0.007433
H46   H     H_    0.652486 0.022887 0.973672 0.030836
H47   H     H_    0.875984 0.040657 0.987237 0.049741
H48   H     H_    0.504728 0.649567 0.034767 0.104795
H49   H     H_    0.774722 0.231846 0.046765 0.091998
H50   H     H_    0.985263 0.248757 0.103068 0.104307
H51   H     H_    0.940958 0.281834 0.988340 0.074819
H52   H     H_    0.201986 0.758043 0.215357 -0.067372
H53   H     H_    0.034090 0.250579 0.405984 0.082073
H54   H     H_    0.828156 0.064455 0.269308 0.111574
H55   H     H_    0.894004 0.059646 0.388402 0.088515
H56   H     H_    0.047720 0.079895 0.312852 0.136706
O1    O     O_2   0.827930 0.435360 0.277760 -0.440980
O2    O     O_2   0.208717 0.118031 0.565002 -0.481219
O3    O     O_3   0.148545 0.140649 0.732442 -0.609626
O4    O     O_3   0.100310 0.439010 0.391180 -0.506447
O5    O     O_3   0.587770 0.631830 0.546230 -0.489887
O6    O     O_2   0.332600 0.233710 0.456170 -0.463797
O7    O     O_3   0.465761 0.199229 0.304190 -0.676536
O8    O     O_2   0.481088 0.446691 0.825431 -0.497581
O9    O     O_3   0.560162 0.255262 0.820916 -0.606738
O10   O     O_3   0.625610 0.634200 0.333270 -0.481121
O11   O     O_2   0.705377 0.555596 0.173661 -0.459980
O12   O     O_3   0.727172 0.785011 0.690212 -0.642292
O13   O     O_3   0.958578 0.262956 0.269043 -0.632039
O14   O     O_3   0.643247 0.752033 0.185240 -0.606665
O15   O     O_2   0.857120 0.766320 0.543890 -0.475312
O16   O     O_3   0.056570 0.691100 0.379020 -0.491557
O17   O     O_2   0.986179 0.882157 0.435642 -0.486150
O18   O     O_3   0.281270 0.210971 0.114113 -0.677503
O19   O     O_3   0.766300 0.105374 0.879422 -0.652911
O20   O     O_3   0.880761 0.388822 0.091342 -0.648710
O21   O     O_3   0.043375 0.856348 0.266805 -0.605399
O22   O     O_2   0.361790 0.564680 0.722290 -0.468131
O23   O     O_3   0.089410 0.561080 0.608830 -0.500327
O24   O     O_3   0.564100 0.365890 0.666740 -0.478809
O25   O     O_3   0.231493 0.737127 0.730493 -0.640501
O26   O     O_3   0.601940 0.368260 0.453780 -0.479369
O27   O     O_3   0.133140 0.308990 0.620990 -0.491733
P1    P     P_3+3 0.998770 0.403620 0.291990 1.020573
P2    P     P_3+3 0.687370 0.751000 0.571300 0.968238
P3    P     P_3+3 0.103048 0.828817 0.377559 0.942571
P4    P     P_3+3 0.190950 0.596470 0.708020 0.966495
P5    P     P_3+3 0.088987 0.169717 0.622182 0.943204
P6    P     P_3+3 0.583936 0.623919 0.214421 0.954337
P7    P     P_3+3 0.506692 0.233375 0.423137 0.929308
P8    P     P_3+3 0.605677 0.380967 0.785285 0.956477

loop_
_geom_bond_atom_site_label_1
_geom_bond_atom_site_label_2
_ccdc_geom_bond_type
C27   P5    S    
C28   O25   S    
C2    C14   A    
O22   P4    D    
C26   P7    S    
C39   C40   S    
Ba2   O6    S    
O9    P8    S    
O1    P1    D    
C39   H16   S    
C41   C42   S    
C33   H2    S    
C29   H31   S    
C5    C6    A    
C12   H1    S    
Ba2   O22   S    
C38   O20   S    
C43   P6    S    
C18   H32   S    
C36   H41   S    
C20   H30   S    
C33   C35   S    
O26   P7    S    
C31   H53   S    
C3    H27   S    
Ba1   P1    S    
C8    C13   A    
C35   H6    S    
C42   O19   S    
C37   O19   S    
C1    H3    S    
C16   H36   S    
O23   P4    S    
C4    H25   S    
Ba1   Ba2   S    
C28   H38   S    
C34   O18   S    
O6    P7    D    
O17   P3    D    
C12   H7    S    
C6    C7    A    
C19   H33   S    
Ba2   P4    S    
Ba1   O15   S    
C7    C8    A    
C40   H17   S    
Ba1   O5    S    
C30   H23   S    
Ba2   O26   S    
C24   C29   A    
O8    P8    D    
C30   H12   S    
C38   H51   S    
C37   H46   S    
C31   C32   S    
C18   C27   A    
C4    C16   S    
C32   H56   S    
O3    P5    S    
C4    H52   S    
C23   H9    S    
O7    P7    S    
Ba1   P2    S    
O12   P2    S    
C38   H49   S    
C3    C5    A    
O4    P1    S    
C18   C26   A    
Ba2   O5    S    
C15   C43   A    
C36   H43   S    
C28   H37   S    
C14   O20   S    
Ba2   O24   S    
C34   H11   S    
C33   H39   S    
C35   H4    S    
C9    C14   A    
C32   H55   S    
O25   P4    S    
C8    C17   A    
C41   H20   S    
C23   H40   S    
C32   H54   S    
C31   O13   S    
C21   P3    S    
C42   H24   S    
Ba1   O16   S    
C7    C9    A    
C1    C12   S    
C2    C15   A    
O24   P8    S    
C41   O9    S    
C15   H26   S    
C20   C25   A    
C11   C13   A    
C24   C25   A    
O13   P1    S    
C4    O21   S    
C38   H50   S    
C40   H19   S    
C37   H47   S    
C36   O18   S    
C17   P4    S    
O5    P2    S    
Ba1   O26   S    
C39   H15   S    
O11   P6    D    
C10   C43   A    
C9    C10   A    
O10   P6    S    
C2    P1    S    
C3    C17   A    
O14   P6    S    
Ba2   O23   S    
Ba2   O4    S    
C39   O3    S    
C36   H42   S    
C19   C21   A    
O2    P5    D    
Ba1   O23   S    
C5    P8    S    
C27   C29   A    
C34   H10   S    
O27   P5    S    
Ba1   O10   S    
C30   H34   S    
C28   C30   S    
C35   H5    S    
C1    H8    S    
C22   C24   A    
O21   P3    S    
C41   H21   S    
C40   H18   S    
C6    H28   S    
C33   O12   S    
O16   P3    S    
C23   C34   S    
C1    H13   S    
C22   P2    S    
C16   H14   S    
C13   H29   S    
O15   P2    D    
C10   C11   A    
C16   H35   S    
C19   C22   A    
C11   H48   S    
C25   C26   A    
C20   C21   A    
C42   H22   S    
C31   H45   S    
Ba1   O1    S    
C37   H44   S    
C12   O14   S    
C23   O7    S    
Ba1   O4    S    
Ba2   O27   S    
