data_mof_unit_18795.cif
_audit_creation_date              2012-12-10T19:09:34-0500
_audit_creation_method            fapswitch 2.2
_symmetry_space_group_name_H-M    P1
_symmetry_Int_Tables_number       1
_space_group_crystal_system       triclinic
_cell_length_a                    9.548611
_cell_length_b                    10.829981
_cell_length_c                    17.10688
_cell_angle_alpha                 88.968472
_cell_angle_beta                  93.991639
_cell_angle_gamma                 90.173016
_cell_volume                      1764.46420739

loop_
_atom_site_label
_atom_site_type_symbol
_atom_type_description
_atom_site_fract_x
_atom_site_fract_y
_atom_site_fract_z
_atom_type_partial_charge
C1    C     C_R   0.499462 0.262493 0.499543 0.853350
C2    C     C_R   0.647948 0.551426 0.778629 0.477104
C3    C     C_R   0.585783 0.507237 0.141030 -0.156297
C4    C     C_R   0.593809 0.510581 0.222308 -0.246785
C5    C     C_R   0.455283 0.488926 0.098837 0.378899
C6    C     C_R   0.472436 0.496351 0.263207 -0.032537
C7    C     C_R   0.342850 0.476162 0.221378 -0.170128
C8    C     C_R   0.334698 0.472554 0.139776 -0.215695
C9    C     C_R   0.604407 0.063256 0.542992 -0.130613
C10   C     C_R   0.495900 0.129164 0.502661 -0.160364
C11   C     C_R   0.376883 0.064251 0.471402 0.462414
C12   C     C_R   0.517705 0.500293 0.650816 0.831590
C13   C     C_R   0.379017 0.934907 0.472441 -0.311439
C14   C     C_R   0.497139 0.870409 0.504797 -0.190460
C15   C     C_R   0.604986 0.936021 0.544434 0.053458
C16   C     C_3   0.761049 0.927298 0.543133 0.257772
C17   C     C_3   0.761158 0.069329 0.541385 0.284855
C18   C     C_R   0.065568 0.533622 0.434109 0.252465
C19   C     C_R   0.081836 0.453025 0.561878 -0.121516
C20   C     C_R   0.933061 0.452898 0.561824 -0.034370
C21   C     C_R   0.918301 0.532555 0.433846 0.201345
C22   C     C_3   0.906806 0.652469 0.389888 -0.579652
C23   C     C_R   0.500013 0.737474 0.500795 0.848638
C24   C     C_3   0.066340 0.654789 0.391436 0.278153
C25   C     C_R   0.482415 0.500052 0.349113 0.802482
C26   C     C_R   0.528110 0.502829 0.736733 -0.118942
C27   C     C_R   0.416111 0.456166 0.777240 -0.327476
C28   C     C_R   0.421367 0.458184 0.858501 -0.160187
C29   C     C_R   0.538811 0.508777 0.900928 0.326677
C30   C     C_R   0.650429 0.555448 0.860785 -0.291968
Cu1   Cu    Cu3+1 0.640670 0.499980 0.500000 0.991067
Cu2   Cu    Cu3+1 0.359330 0.500020 0.500000 0.964923
H1    H     H_    0.695424 0.523921 0.252966 0.162016
H2    H     H_    0.292351 0.885694 0.443240 0.155884
H3    H     H_    0.791825 0.879991 0.490292 0.069759
H4    H     H_    0.809283 0.109296 0.596376 0.116903
H5    H     H_    0.143156 0.416393 0.612471 0.139301
H6    H     H_    0.883806 0.415837 0.612182 0.141334
H7    H     H_    0.854764 0.642602 0.330277 0.211329
H8    H     H_    0.863412 0.726438 0.424380 0.164169
H9    H     H_    0.681960 0.518270 0.111626 0.154662
H10   H     H_    0.117648 0.728688 0.427895 0.079256
H11   H     H_    0.738029 0.597632 0.893958 0.149478
H12   H     H_    0.248145 0.461674 0.251583 0.206950
H13   H     H_    0.333363 0.420481 0.887737 0.161566
H14   H     H_    0.234065 0.456968 0.108230 0.144018
H15   H     H_    0.324267 0.417210 0.745959 0.167778
N1    N     N_2   0.549978 0.514545 0.983810 -0.252599
N2    N     N_2   0.441386 0.484187 0.015845 -0.260724
N3    N     N_R   0.147870 0.500930 0.499500 -0.217964
N4    N     N_R   0.851960 0.500890 0.499500 -0.173306
O1    O     O_R   0.618810 0.319640 0.500000 -0.548169
O2    O     O_R   0.381230 0.319680 0.499990 -0.556193
O3    O     O_R   0.631790 0.498830 0.613930 -0.546868
O4    O     O_R   0.394210 0.498870 0.613920 -0.606408
O5    O     O_R   0.618770 0.680320 0.500010 -0.568959
O6    O     O_R   0.381190 0.680360 0.500000 -0.595060
O7    O     O_R   0.605790 0.501130 0.386080 -0.590743
O8    O     O_R   0.368210 0.501170 0.386070 -0.552511
O9    O     O_3   0.819176 0.877339 0.614983 -0.541756
C31   C     C_3   0.961784 0.849613 0.607869 -0.269681
H16   H     H_    0.021530 0.932878 0.590489 0.128122
H17   H     H_    0.973264 0.774122 0.565520 0.152539
H18   H     H_    0.008315 0.816809 0.665721 0.195734
O10   O     O_3   0.810586 0.131961 0.474446 -0.581257
C32   C     C_3   0.776148 0.075124 0.401730 -0.340286
H19   H     H_    0.668770 0.035325 0.396486 0.163264
H20   H     H_    0.855161 0.003644 0.390775 0.143300
H21   H     H_    0.781062 0.146371 0.354609 0.200769
O11   O     O_3   0.115616 0.640800 0.316231 -0.563599
C33   C     C_3   0.139455 0.758154 0.282818 -0.309405
H22   H     H_    0.231139 0.803688 0.313936 0.162368
H23   H     H_    0.044784 0.818003 0.282600 0.158607
H24   H     H_    0.164510 0.746213 0.221057 0.191910
O12   O     O_3   0.752913 0.607360 0.738130 -0.534009
C34   C     C_3   0.885352 0.557272 0.762818 -0.299962
H25   H     H_    0.882689 0.454535 0.767603 0.132000
H26   H     H_    0.926483 0.597853 0.818990 0.159628
H27   H     H_    0.960399 0.582195 0.718424 0.181431
O13   O     O_3   0.269706 0.126675 0.428957 -0.581111
C35   C     C_3   0.145479 0.115360 0.468395 -0.233423
H28   H     H_    0.068213 0.182327 0.441312 0.228504
H29   H     H_    0.162270 0.138570 0.531579 0.146912
H30   H     H_    0.099925 0.021287 0.461728 0.137738

loop_
_geom_bond_atom_site_label_1
_geom_bond_atom_site_label_2
_ccdc_geom_bond_type
C32   H20   S    
C18   C21   A    
C24   H10   S    
C19   C20   A    
C34   H27   S    
Cu1   O1    S    
C35   H28   S    
C24   O11   S    
C23   O5    A    
C26   C27   A    
C18   C24   S    
Cu1   O7    S    
C28   C29   A    
C34   H26   S    
C20   N4    A    
C16   H3    S    
C6    C25   S    
C15   C16   S    
C16   O9    S    
C31   H17   S    
C1    O2    A    
C19   H5    S    
C16   C17   S    
O11   C33   S    
C17   H4    S    
Cu1   O5    S    
C9    C10   A    
Cu2   O4    S    
C32   H19   S    
C13   C14   A    
C5    N2    S    
Cu2   O6    S    
C35   H29   S    
C28   H13   S    
C29   N1    S    
C7    C8    A    
C34   H25   S    
C4    C6    A    
C11   O13   S    
C33   H23   S    
C12   C26   S    
O9    C31   S    
C14   C23   S    
C31   H18   S    
O12   C34   S    
C29   C30   A    
C5    C8    A    
C20   H6    S    
Cu1   Cu2   S    
C22   H8    S    
C2    C26   A    
C7    H12   S    
Cu2   N3    S    
C9    C17   S    
N1    N2    D    
C22   C24   S    
C30   H11   S    
C25   O7    A    
C3    C4    A    
Cu2   O2    S    
C21   N4    A    
C35   H30   S    
C18   N3    A    
C27   H15   S    
C23   O6    A    
C4    H1    S    
C3    H9    S    
C1    C10   S    
Cu1   N4    S    
O13   C35   S    
C3    C5    A    
C33   H24   S    
C6    C7    A    
C17   O10   S    
C2    C30   A    
C9    C15   A    
C33   H22   S    
C11   C13   A    
C19   N3    A    
C22   H7    S    
Cu1   O3    S    
C31   H16   S    
C1    O1    A    
C8    H14   S    
C12   O4    A    
C10   C11   A    
C32   H21   S    
C13   H2    S    
O10   C32   S    
C27   C28   A    
C14   C15   A    
C25   O8    A    
Cu2   O8    S    
C21   C22   S    
C12   O3    A    
C2    O12   S    
