data_mof_unit_41743.cif
_audit_creation_date              2012-12-11T20:00:30-0500
_audit_creation_method            fapswitch 2.2
_symmetry_space_group_name_H-M    P1
_symmetry_Int_Tables_number       1
_space_group_crystal_system       triclinic
_cell_length_a                    8.263997
_cell_length_b                    16.279747
_cell_length_c                    27.19593
_cell_angle_alpha                 71.438051
_cell_angle_beta                  96.955707
_cell_angle_gamma                 95.553078
_cell_volume                      3436.3703392

loop_
_atom_site_label
_atom_site_type_symbol
_atom_type_description
_atom_site_fract_x
_atom_site_fract_y
_atom_site_fract_z
_atom_type_partial_charge
Ba1   Ba    Ba6+2 0.337820 0.939830 0.518500 1.670408
Ba2   Ba    Ba6+2 0.851970 0.060110 0.481480 1.682263
C1    C     C_3   0.107463 0.532700 0.607500 -0.315144
C2    C     C_R   0.510787 0.398014 0.196272 0.589989
C3    C     C_2   0.295829 0.289475 0.281544 -0.105155
C4    C     C_3   0.597869 0.618680 0.630916 0.554489
C5    C     C_3   0.281977 0.251949 0.339423 -0.078009
C6    C     C_1   0.474174 0.144347 0.340514 0.058962
C7    C     C_2   0.506784 0.186588 0.291475 0.081777
C8    C     C_2   0.409662 0.262836 0.259158 0.215462
C9    C     C_R   0.526126 0.409857 0.105257 -0.080777
C10   C     C_R   0.461274 0.323314 0.115828 -0.033162
C11   C     C_R   0.436603 0.286769 0.075078 -0.056680
C12   C     C_3   0.096663 0.628746 0.600386 0.402236
C13   C     C_R   0.546591 0.448168 0.145425 -0.029067
C14   C     C_2   0.364748 0.168258 0.364199 -0.309356
C15   C     C_2   0.844197 0.840924 0.639913 -0.271706
C16   C     C_3   0.706979 0.543598 0.641540 -0.001325
C17   C     C_R   0.628374 0.462186 0.966973 -0.000122
C18   C     C_R   0.642640 0.597801 0.989905 0.027151
C19   C     C_R   0.654138 0.554267 0.952851 0.033558
C20   C     C_R   0.673717 0.420163 0.932277 0.116960
C21   C     C_R   0.716532 0.469384 0.882854 -0.009240
C22   C     C_R   0.723513 0.560332 0.866464 -0.069701
C23   C     C_3   0.080979 0.007113 0.647672 0.283226
C24   C     C_R   0.694638 0.603135 0.901587 -0.086339
C25   C     C_R   0.708897 0.694678 0.885755 -0.023959
C26   C     C_R   0.744473 0.742040 0.834125 0.593739
C27   C     C_R   0.765282 0.608854 0.816079 0.628584
C28   C     C_3   0.597039 0.884002 0.392059 0.305528
C29   C     C_2   0.924713 0.726687 0.723518 -0.089613
C30   C     C_3   0.921944 0.756267 0.665028 -0.037021
C31   C     C_1   0.726414 0.861280 0.662061 0.008018
C32   C     C_2   0.695194 0.818469 0.711238 -0.060820
C33   C     C_2   0.803251 0.748118 0.745581 0.227207
C34   C     C_3   0.120319 0.959361 0.705404 -0.362975
C35   C     C_R   0.563626 0.416816 0.015507 0.019213
C36   C     C_R   0.569413 0.458403 0.054274 0.054458
C37   C     C_R   0.616279 0.548223 0.042317 0.019749
C38   C     C_R   0.485298 0.332866 0.025898 -0.110294
C39   C     C_R   0.603256 0.535704 0.133957 -0.060450
C40   C     C_3   0.568754 0.811077 0.367674 -0.388193
C41   C     C_R   0.657693 0.689614 0.973082 -0.098916
C42   C     C_R   0.687984 0.736858 0.921997 -0.058645
C43   C     C_R   0.634793 0.585120 0.083368 -0.103509
C44   C     C_2   0.430641 0.234619 0.528270 -0.252968
C45   C     C_3   0.559364 0.373435 0.379396 0.348874
C46   C     C_R   0.806928 0.757899 0.493033 -0.283542
C47   C     C_2   0.249885 0.309866 0.562623 -0.129693
C48   C     C_2   0.280075 0.238699 0.551513 0.020915
C49   C     C_2   0.530411 0.305471 0.510752 0.053075
C50   C     C_3   0.479804 0.392770 0.510662 -0.082038
C51   C     C_3   0.371483 0.386357 0.553890 0.082895
C52   C     C_3   0.606910 0.035124 0.687451 0.393175
C53   C     C_2   0.619212 0.458377 0.511683 0.166399
C54   C     C_2   0.587985 0.542983 0.492407 -0.083946
C55   C     C_R   0.846768 0.616425 0.459978 -0.017600
C56   C     C_3   0.511903 0.461327 0.342199 -0.328976
C57   C     C_R   0.713733 0.614708 0.487756 -0.038046
C58   C     C_R   0.956923 0.688472 0.447874 -0.133904
C59   C     C_R   0.934497 0.760262 0.463234 0.068834
C60   C     C_R   0.691731 0.687206 0.503515 -0.013662
C61   C     C_3   0.549287 0.116780 0.694711 -0.336818
C62   C     C_3   0.121883 0.990003 0.356729 0.281392
C63   C     C_3   0.099311 0.032445 0.297521 -0.098072
C64   C     C_3   0.062035 0.387511 0.373392 0.350082
C65   C     C_3   0.023946 0.482441 0.350130 -0.343788
C66   C     C_R   0.418338 0.276164 0.166484 0.582466
H1    H     H_    0.171233 0.666646 0.568600 0.110993
H2    H     H_    0.071555 0.032700 0.375076 0.065194
H3    H     H_    0.233356 0.512619 0.621696 0.197480
H4    H     H_    0.152429 0.100357 0.287425 0.079070
H5    H     H_    0.966783 0.034670 0.284145 0.142329
H6    H     H_    0.968173 0.646206 0.588607 -0.121110
H7    H     H_    0.073140 0.520375 0.569649 0.049167
H8    H     H_    0.947174 0.009423 0.638600 0.025998
H9    H     H_    0.130209 0.970416 0.625238 0.065642
H10   H     H_    0.102613 0.000865 0.729490 0.142832
H11   H     H_    0.040459 0.899280 0.717534 0.083170
H12   H     H_    0.648619 0.823507 0.335705 0.127513
H13   H     H_    0.248605 0.941067 0.713037 0.106798
H14   H     H_    0.025019 0.492466 0.636458 0.120913
H15   H     H_    0.809406 0.548654 0.671099 0.094391
H16   H     H_    0.593372 0.333010 0.356588 0.077309
H17   H     H_    0.450912 0.342016 0.400199 -0.098749
H18   H     H_    0.613887 0.493944 0.318674 0.145781
H19   H     H_    0.404111 0.452684 0.315303 0.105940
H20   H     H_    0.480578 0.503070 0.364567 0.090362
H21   H     H_    0.196035 0.385296 0.375010 -0.081025
H22   H     H_    0.024967 0.362322 0.413637 0.084088
H23   H     H_    0.596696 0.748143 0.397162 0.063590
H24   H     H_    0.090710 0.520470 0.374508 0.059809
H25   H     H_    0.891481 0.489547 0.348580 0.149267
H26   H     H_    0.062741 0.508720 0.310077 0.113143
H27   H     H_    0.379580 0.221994 0.081056 0.125014
H28   H     H_    0.008961 0.678458 0.746375 0.127756
H29   H     H_    0.749244 0.435232 0.857506 0.151779
H30   H     H_    0.454072 0.302873 0.995732 0.082427
H31   H     H_    0.227647 0.345503 0.259438 0.092457
H32   H     H_    0.621528 0.566945 0.164097 0.117202
H33   H     H_    0.641251 0.726912 0.998348 0.070732
H34   H     H_    0.439018 0.806887 0.351732 0.121266
H35   H     H_    0.675064 0.680312 0.621528 -0.114463
H36   H     H_    0.696727 0.807087 0.911130 0.119701
H37   H     H_    0.587188 0.831120 0.726035 0.099474
H38   H     H_    0.679107 0.651689 0.077795 0.071223
H39   H     H_    0.348500 0.135412 0.404946 0.085190
H40   H     H_    0.869870 0.877240 0.600364 0.065826
H41   H     H_    0.141979 0.310812 0.581527 0.098068
H42   H     H_    0.055379 0.689505 0.424787 0.088277
H43   H     H_    0.457217 0.173262 0.524112 0.081415
H44   H     H_    0.789979 0.814170 0.504426 0.065416
H45   H     H_    0.514518 0.981378 0.702245 0.031836
H46   H     H_    0.463604 0.560212 0.477634 0.077285
H47   H     H_    0.756876 0.549005 0.604836 0.003127
H48   H     H_    0.727224 0.889734 0.406026 0.003962
H49   H     H_    0.520915 0.868311 0.425155 0.069616
H50   H     H_    0.846586 0.067935 0.707310 0.180815
H51   H     H_    0.750126 0.999249 0.757090 0.193256
H52   H     H_    0.130398 0.921240 0.280028 0.206188
H53   H     H_    0.302763 0.985634 0.281866 0.202292
H54   H     H_    0.575848 0.125445 0.244063 0.202792
H55   H     H_    0.699156 0.212980 0.247835 0.192973
H56   H     H_    0.640289 0.172371 0.682190 0.137795
H57   H     H_    0.602216 0.294336 0.937532 0.183398
H58   H     H_    0.742778 0.306399 0.987878 0.189359
H59   H     H_    0.867217 0.456432 0.513955 0.189512
H60   H     H_    0.797292 0.448725 0.571558 0.188078
H61   H     H_    0.531155 0.105186 0.736241 0.093158
H62   H     H_    0.432065 0.134492 0.670840 0.137349
H63   H     H_    0.253335 0.984115 0.369715 -0.001829
I1    I     I_    0.495861 0.610437 0.700901 -0.305231
I2    I     I_    0.583959 0.417243 0.667891 -0.431706
N1    N     N_R   0.447232 0.312845 0.206431 -0.427741
N2    N     N_R   0.770707 0.699212 0.799384 -0.421664
N3    N     N_3   0.764564 0.013512 0.717503 -0.519911
N4    N     N_3   0.177684 0.985731 0.269942 -0.469638
N5    N     N_3   0.632164 0.158402 0.269430 -0.451024
N6    N     N_3   0.705156 0.329795 0.948093 -0.502342
N7    N     N_3   0.774601 0.429554 0.538264 -0.471126
O1    O     O_2   0.431310 0.922990 0.623550 -0.468494
O2    O     O_2   0.866695 0.306792 0.498016 -0.467333
O3    O     O_3   0.694114 0.385445 0.413614 -0.608973
O4    O     O_3   0.663280 0.983100 0.563360 -0.462500
O5    O     O_3   0.016420 0.932050 0.462720 -0.488082
O6    O     O_2   0.959730 0.164640 0.549160 -0.437551
O7    O     O_3   0.149910 0.092183 0.636760 -0.645074
O8    O     O_2   0.958950 0.186913 0.328205 -0.476588
O9    O     O_3   0.977229 0.339172 0.342603 -0.572986
O10   O     O_2   0.354275 0.202766 0.174914 -0.591025
O11   O     O_2   0.795555 0.569998 0.786878 -0.573126
O12   O     O_3   0.039662 0.907637 0.369950 -0.641078
O13   O     O_2   0.537074 0.430096 0.231637 -0.615688
O14   O     O_2   0.754808 0.821322 0.820530 -0.610055
O15   O     O_3   0.126250 0.812630 0.574830 -0.496664
O16   O     O_2   0.267065 0.785708 0.671927 -0.465500
O17   O     O_3   0.621542 0.051247 0.634059 -0.600565
O18   O     O_3   0.156142 0.645945 0.646972 -0.557360
O19   O     O_2   0.229950 0.835370 0.450810 -0.468962
O20   O     O_3   0.517580 0.797570 0.545130 -0.471390
O21   O     O_2   0.353709 0.693270 0.495944 -0.505389
O22   O     O_3   0.471904 0.615612 0.591483 -0.601493
O23   O     O_2   0.758370 0.077020 0.376420 -0.425679
O24   O     O_3   0.526390 0.016840 0.436620 -0.510391
O25   O     O_3   0.063420 0.187310 0.425160 -0.477195
O26   O     O_3   0.555030 0.961334 0.353916 -0.636536
O27   O     O_3   0.173250 0.067890 0.537260 -0.477790
O28   O     O_3   0.672100 0.202370 0.454860 -0.478948
P1    P     P_3+3 0.610630 0.953360 0.619150 1.018327
P2    P     P_3+3 0.057260 0.861390 0.437850 0.976311
P3    P     P_3+3 0.508825 0.697729 0.533223 0.939460
P4    P     P_3+3 0.579040 0.046590 0.380840 1.000673
P5    P     P_3+3 0.692752 0.298412 0.471295 1.001103
P6    P     P_3+3 0.120494 0.753193 0.640420 0.985342
P7    P     P_3+3 0.141898 0.141740 0.569290 0.978390
P8    P     P_3+3 0.069411 0.240556 0.358241 0.965716

loop_
_geom_bond_atom_site_label_1
_geom_bond_atom_site_label_2
_ccdc_geom_bond_type
C53   C54   D    
O26   P4    S    
O19   P2    D    
Ba2   O28   S    
C26   N2    Am   
Ba2   O4    S    
Ba1   O5    S    
C19   C24   A    
C31   P1    S    
C56   H19   S    
C61   H56   S    
C42   H36   S    
C64   H22   S    
C28   H48   S    
H57   N6    S    
O25   P8    S    
C40   H12   S    
C60   P3    S    
C10   C66   A    
H55   N5    S    
O16   P6    D    
C24   C25   A    
O8    P8    D    
C62   O12   S    
C23   H9    S    
C12   H6    S    
C47   H41   S    
C17   C19   A    
C22   C24   A    
Ba1   Ba2   S    
C35   C38   A    
C38   H30   S    
C36   C37   A    
O7    P7    S    
C55   C57   A    
C52   C61   S    
Ba1   O27   S    
C29   H28   S    
C52   H45   S    
C45   O3    S    
Ba1   P2    S    
C63   H5    S    
C16   I2    S    
Ba1   O15   S    
C32   C33   S    
C61   H62   S    
H53   N4    S    
C49   P5    S    
C22   C27   A    
C11   C38   A    
C17   C35   A    
C14   H39   S    
O17   P1    S    
C9    C13   A    
C25   C42   A    
O18   P6    S    
O22   P3    S    
C4    O22   S    
Ba1   O24   S    
C6    C7    D    
C65   H26   S    
C21   C22   A    
C62   H2    S    
C64   H21   S    
C1    H7    S    
C7    C8    S    
H54   N5    S    
C50   C53   S    
C37   C43   A    
C63   N4    S    
C64   C65   S    
C6    C14   D    
C44   H43   S    
C5    P8    S    
C26   O14   D    
C15   C31   D    
C56   H18   S    
C31   C32   D    
O2    P5    D    
O28   P5    S    
C4    C16   S    
H58   N6    S    
C49   C50   S    
C3    H31   S    
Ba1   O19   S    
C17   C20   A    
C66   O10   D    
C13   C39   A    
C64   O9    S    
C4    I1    S    
C15   H40   S    
C33   N2    S    
C3    C5    S    
C18   C37   A    
C55   C58   A    
C4    H35   S    
C30   P6    S    
O4    P1    S    
C53   N7    S    
C48   P7    S    
Ba2   O5    S    
Ba2   O23   S    
C9    C36   A    
C1    H3    S    
C41   C42   A    
C41   H33   S    
C35   C36   A    
C27   O11   D    
O12   P2    S    
C7    N5    S    
C46   C60   A    
C29   C30   S    
C62   H63   S    
C34   H13   S    
C52   N3    S    
O6    P7    D    
C1    H14   S    
O1    P1    D    
C16   H15   S    
C39   H32   S    
C23   O7    S    
C45   H16   S    
C10   C11   A    
O23   P4    D    
Ba2   O25   S    
C28   O26   S    
C1    C12   S    
O15   P6    S    
C5    C14   S    
C21   H29   S    
C12   O18   S    
C12   H1    S    
C29   C33   D    
O24   P4    S    
H59   N7    S    
O3    P5    S    
Ba2   O24   S    
C45   H17   S    
C18   C41   A    
H50   N3    S    
C43   H38   S    
C2    N1    Am   
O5    P2    S    
C57   C60   A    
C39   C43   A    
C27   N2    Am   
C20   C21   A    
C32   H37   S    
Ba1   O20   S    
C28   C40   S    
C8    N1    S    
C34   H11   S    
C56   H20   S    
C16   H47   S    
C9    C10   A    
C59   P2    S    
C28   H49   S    
Ba2   O6    S    
C63   H4    S    
C44   C48   S    
H51   N3    S    
C54   C57   S    
C23   H8    S    
C62   C63   S    
O9    P8    S    
C2    C13   A    
C66   N1    Am   
H60   N7    S    
C3    C8    D    
Ba1   O4    S    
C34   H10   S    
C40   H34   S    
C52   O17   S    
C11   H27   S    
C46   C59   A    
C58   H42   S    
C47   C51   S    
C20   N6    S    
Ba1   P1    S    
C65   H24   S    
O20   P3    S    
C2    O13   D    
O27   P7    S    
C61   H61   S    
C44   C49   D    
Ba1   O1    S    
C23   C34   S    
O21   P3    D    
C6    P4    S    
C18   C19   A    
C47   C48   D    
Ba2   P4    S    
C25   C26   A    
C65   H25   S    
C15   C30   S    
C54   H46   S    
C46   H44   S    
C58   C59   A    
H52   N4    S    
Ba2   O27   S    
C40   H23   S    
C50   C51   S    
C45   C56   S    
