data_mof_unit_21824.cif
_audit_creation_date              2012-10-26T20:51:57-0400
_audit_creation_method            fapswitch 2.2
_symmetry_space_group_name_H-M    P1
_symmetry_Int_Tables_number       1
_space_group_crystal_system       triclinic
_cell_length_a                    8.802507
_cell_length_b                    15.987595
_cell_length_c                    14.759028
_cell_angle_alpha                 89.643571
_cell_angle_beta                  97.564875
_cell_angle_gamma                 89.750148
_cell_volume                      2058.90583823

loop_
_atom_site_label
_atom_site_type_symbol
_atom_type_description
_atom_site_fract_x
_atom_site_fract_y
_atom_site_fract_z
_atom_type_partial_charge
C1    C     C_R   0.500538 0.340871 0.500314 0.530193
C2    C     C_R   0.796136 0.498788 0.522780 0.558184
C3    C     C_2   0.039535 0.507686 0.464529 0.212968
C4    C     C_2   0.960465 0.492313 0.535471 0.212963
C5    C     C_R   0.545961 0.955252 0.581457 0.270082
C6    C     C_R   0.454035 0.044748 0.418543 0.270078
C7    C     C_R   0.498988 0.912703 0.499624 -0.006813
C8    C     C_R   0.501008 0.087297 0.500376 -0.006815
C9    C     C_R   0.455038 0.957216 0.418410 -0.150093
C10   C     C_R   0.544958 0.042784 0.581591 -0.150092
C11   C     C_1   0.498020 0.823195 0.498627 -0.024070
C12   C     C_R   0.499461 0.659129 0.499686 0.530192
C13   C     C_1   0.501976 0.176805 0.501373 -0.024072
C14   C     C_1   0.501541 0.251822 0.501114 -0.022324
C15   C     C_1   0.498457 0.748178 0.498886 -0.022325
C16   C     C_R   0.605435 0.549278 0.959779 0.268167
C17   C     C_R   0.394568 0.450722 0.040221 0.268165
C18   C     C_3   0.975573 0.612248 0.360882 0.001846
C19   C     C_3   0.886897 0.632897 0.267956 -0.356188
C20   C     C_3   0.024411 0.387759 0.639130 0.001849
C21   C     C_3   0.113094 0.367114 0.732055 -0.356198
C22   C     C_3   0.744702 0.901691 0.678268 -0.010874
C23   C     C_R   0.499939 0.500246 0.902855 -0.032101
C24   C     C_3   0.786577 0.843989 0.760218 -0.351435
C25   C     C_3   0.255293 0.098312 0.321737 -0.010866
C26   C     C_3   0.213408 0.156015 0.239789 -0.351449
C27   C     C_3   0.853480 0.563897 0.935691 -0.018217
C28   C     C_3   0.958570 0.610277 0.878792 -0.357770
C29   C     C_3   0.146490 0.436026 0.064239 -0.018195
C30   C     C_3   0.041439 0.389667 0.121183 -0.357759
C31   C     C_R   0.500064 0.499753 0.097145 -0.032082
C32   C     C_R   0.396464 0.450490 0.944203 -0.161893
C33   C     C_R   0.603541 0.549508 0.055796 -0.161873
C34   C     C_1   0.499574 0.499973 0.802659 0.169385
C35   C     C_1   0.500427 0.500026 0.197341 0.169419
C36   C     C_R   0.203864 0.501211 0.477220 0.558194
Cu1   Cu    Cu3+1 0.500040 0.500000 0.589220 1.001037
Cu2   Cu    Cu3+1 0.499960 0.500000 0.410780 1.001053
H1    H     H_    0.578681 0.075785 0.644934 0.124317
H2    H     H_    0.065335 0.402933 0.786172 0.145512
H3    H     H_    0.104547 0.299200 0.746623 0.091923
H4    H     H_    0.235644 0.383441 0.732521 0.168480
H5    H     H_    0.800828 0.963234 0.693480 0.126281
H6    H     H_    0.789893 0.873070 0.618392 0.128205
H7    H     H_    0.733556 0.781647 0.746371 0.183344
H8    H     H_    0.912969 0.836159 0.773739 0.096831
H9    H     H_    0.745135 0.870970 0.821716 0.167559
H10   H     H_    0.210108 0.126935 0.381614 0.128206
H11   H     H_    0.199167 0.036769 0.306528 0.126284
H12   H     H_    0.421314 0.924215 0.355066 0.124319
H13   H     H_    0.254809 0.129027 0.178281 0.167534
H14   H     H_    0.087017 0.163858 0.226286 0.096820
H15   H     H_    0.266458 0.218351 0.253626 0.183364
H16   H     H_    0.683236 0.588978 0.097901 0.110731
H17   H     H_    0.316779 0.411014 0.902098 0.110701
H18   H     H_    0.851202 0.496899 0.914777 0.120999
H19   H     H_    0.901979 0.568816 0.008975 0.114376
H20   H     H_    0.965455 0.677257 0.898370 0.155819
H21   H     H_    0.075338 0.582326 0.890550 0.099457
H22   H     H_    0.913877 0.605518 0.805026 0.186143
H23   H     H_    0.096555 0.632094 0.360364 0.136682
H24   H     H_    0.098041 0.431017 0.990957 0.114386
H25   H     H_    0.148664 0.503048 0.085054 0.120964
H26   H     H_    0.086036 0.394549 0.194950 0.186122
H27   H     H_    0.924614 0.417534 0.109336 0.099431
H28   H     H_    0.034718 0.322654 0.101733 0.155839
H29   H     H_    0.924022 0.648562 0.413559 0.115194
H30   H     H_    0.764354 0.616551 0.267480 0.168481
H31   H     H_    0.895415 0.700815 0.253402 0.091930
H32   H     H_    0.934683 0.597094 0.213836 0.145537
H33   H     H_    0.075945 0.351434 0.586455 0.115188
H34   H     H_    0.903426 0.367922 0.639657 0.136691
N1    N     N_1   0.500050 0.499980 0.276720 -0.186815
N2    N     N_1   0.499950 0.500020 0.723280 -0.186820
O1    O     O_R   0.500070 0.380310 0.575330 -0.514543
O2    O     O_3   0.033287 0.474646 0.622798 -0.560595
O3    O     O_3   0.583906 0.911343 0.662320 -0.543879
O4    O     O_3   0.416090 0.088658 0.337680 -0.543874
O5    O     O_3   0.705838 0.600285 0.920769 -0.546739
O6    O     O_3   0.294181 0.399705 0.079237 -0.546734
O7    O     O_R   0.499930 0.619690 0.424670 -0.514541
O8    O     O_R   0.500000 0.380310 0.424640 -0.480504
O9    O     O_R   0.500000 0.619690 0.575360 -0.480505
O10   O     O_R   0.274870 0.500000 0.557960 -0.468129
O11   O     O_R   0.725130 0.500000 0.442040 -0.468134
O12   O     O_R   0.274790 0.500000 0.407270 -0.490748
O13   O     O_R   0.725210 0.500000 0.592730 -0.490762
O14   O     O_3   0.966714 0.525358 0.377203 -0.560599

loop_
_geom_bond_atom_site_label_1
_geom_bond_atom_site_label_2
_ccdc_geom_bond_type
Cu1   N2    S    
C29   H25   S    
C8    C13   S    
C30   H26   S    
C6    C9    A    
C7    C11   S    
C21   H2    S    
Cu1   Cu2   S    
Cu2   O12   S    
C24   H7    S    
C27   O5    S    
C6    O4    S    
C20   O2    S    
C2    O11   A    
C18   C19   S    
C11   C15   T    
C22   H6    S    
C31   C33   A    
C20   H33   S    
C32   H17   S    
Cu1   O1    S    
C13   C14   T    
Cu2   O8    S    
C28   H22   S    
Cu2   O11   S    
C25   O4    S    
C1    O1    A    
C19   H30   S    
C18   H29   S    
C27   H19   S    
C5    C7    A    
C27   H18   S    
C6    C8    A    
C36   O12   A    
C25   C26   S    
C17   O6    S    
C18   O14   S    
C12   O9    A    
C10   H1    S    
C2    C4    S    
C29   C30   S    
C26   H14   S    
C16   C33   A    
C22   H5    S    
C12   C15   S    
C23   C34   S    
C2    O13   A    
Cu1   O10   S    
C25   H10   S    
C30   H28   S    
C34   N2    T    
C21   H3    S    
C16   C23   A    
Cu2   O7    S    
C17   C31   A    
C22   C24   S    
C19   H31   S    
C5    O3    S    
C3    C4    D    
C26   H15   S    
C28   H21   S    
C33   H16   S    
C7    C9    A    
C29   H24   S    
C35   N1    T    
C3    O14   S    
C24   H9    S    
Cu1   O13   S    
Cu1   O9    S    
C9    H12   S    
C22   O3    S    
C18   H23   S    
C28   H20   S    
C16   O5    S    
C24   H8    S    
C23   C32   A    
C1    O8    A    
C5    C10   A    
C26   H13   S    
C29   O6    S    
C3    C36   S    
C36   O10   A    
C12   O7    A    
C31   C35   S    
C25   H11   S    
C4    O2    S    
C30   H27   S    
C21   H4    S    
C20   C21   S    
C8    C10   A    
C27   C28   S    
C17   C32   A    
C20   H34   S    
C19   H32   S    
C1    C14   S    
Cu2   N1    S    
