data_mof_unit_13346.cif
_audit_creation_date              2013-03-05T15:50:07-0500
_audit_creation_method            fapswitch 2.2
_symmetry_space_group_name_H-M    P1
_symmetry_Int_Tables_number       1
_space_group_crystal_system       triclinic
_cell_length_a                    12.181447
_cell_length_b                    12.805216
_cell_length_c                    15.363361
_cell_angle_alpha                 83.426858
_cell_angle_beta                  115.265696
_cell_angle_gamma                 94.849874
_cell_volume                      2151.27421088

loop_
_atom_site_label
_atom_site_type_symbol
_atom_site_description
_atom_site_fract_x
_atom_site_fract_y
_atom_site_fract_z
_atom_type_partial_charge
O1    O     O_R   0.580150 0.341050 0.504560 -0.641053
O2    O     O_R   0.419850 0.658950 0.495440 -0.647010
O3    O     O_R   0.388090 0.353760 0.493600 -0.544865
O4    O     O_R   0.611910 0.646240 0.506400 -0.542227
C1    C     C_R   0.476883 0.299789 0.499317 0.917037
C2    C     C_R   0.523109 0.700206 0.500666 0.912135
O5    O     O_R   0.650890 0.490020 0.640860 -0.627616
O6    O     O_R   0.349110 0.509980 0.359140 -0.623169
O7    O     O_R   0.458830 0.502730 0.629890 -0.556169
O8    O     O_R   0.541170 0.497270 0.370110 -0.558282
C3    C     C_R   0.576169 0.496969 0.680098 0.921505
C4    C     C_R   0.424450 0.507033 0.319642 0.914976
Zn1   Zn    Zn3+2 0.628240 0.491510 0.507320 1.023584
Zn2   Zn    Zn3+2 0.371760 0.508490 0.492680 1.024220
C5    C     C_R   0.625252 0.504709 0.783994 -0.123617
C6    C     C_R   0.382860 0.532220 0.215709 -0.115587
C7    C     C_R   0.784502 0.476662 0.946291 0.346361
C8    C     C_R   0.254612 0.631081 0.066296 0.331069
C9    C     C_R   0.742831 0.474881 0.846268 -0.222968
C10   C     C_R   0.277542 0.587723 0.160366 -0.206006
C11   C     C_R   0.551104 0.542474 0.820300 -0.203590
C12   C     C_R   0.464075 0.518199 0.177042 -0.176215
C13   C     C_R   0.590061 0.549058 0.918981 0.057054
C14   C     C_R   0.449668 0.567009 0.087517 0.057003
C15   C     C_R   0.707500 0.513486 0.983365 0.025118
C16   C     C_R   0.339874 0.617790 0.028205 0.021300
C17   C     C_R   0.510326 0.581737 0.955229 0.100564
C18   C     C_R   0.540541 0.560883 0.054456 0.092793
C19   C     C_R   0.660954 0.535382 0.117911 -0.181473
C20   C     C_R   0.400049 0.631393 0.895802 -0.199832
C21   C     C_R   0.744037 0.515314 0.082770 -0.115582
C22   C     C_R   0.317588 0.650730 0.932236 -0.113597
H1    H     H_    0.835515 0.498060 0.134574 0.205251
H2    H     H_    0.233922 0.686897 0.882851 0.208339
H3    H     H_    0.540307 0.469048 0.218873 0.167570
H4    H     H_    0.460010 0.561879 0.770216 0.175859
H5    H     H_    0.216579 0.602217 0.191981 0.197982
H6    H     H_    0.799977 0.444853 0.817528 0.200477
H7    H     H_    0.693525 0.532959 0.195475 0.188821
H8    H     H_    0.376449 0.658975 0.821216 0.157803
C23   C     C_R   0.538980 0.811875 0.502905 -0.132553
C24   C     C_R   0.461042 0.188086 0.497167 -0.139172
C25   C     C_R   0.335634 0.034605 0.435068 0.325209
C26   C     C_R   0.664384 0.965283 0.565202 0.324370
C27   C     C_R   0.347106 0.141797 0.445207 -0.177567
C28   C     C_R   0.652901 0.858109 0.554984 -0.179748
C29   C     C_R   0.564402 0.129141 0.541176 -0.195793
C30   C     C_R   0.435633 0.870820 0.458930 -0.196978
C31   C     C_R   0.557982 0.023979 0.526754 0.009208
C32   C     C_R   0.442048 0.975944 0.473458 0.008296
H9    H     H_    0.349868 0.832988 0.414764 0.196892
H10   H     H_    0.650177 0.167005 0.585265 0.196930
H11   H     H_    0.732487 0.810787 0.588313 0.218667
H12   H     H_    0.267501 0.189093 0.411891 0.221543
N1    N     N_R   0.799120 0.480200 0.517090 -0.162964
N2    N     N_R   0.200880 0.519800 0.482910 -0.162618
C33   C     C_R   0.039059 0.631168 0.454085 -0.136873
C34   C     C_R   0.960874 0.368789 0.545732 -0.130239
C35   C     C_R   0.147684 0.613517 0.449344 -0.069720
C36   C     C_R   0.852263 0.386438 0.550518 -0.060648
C37   C     C_R   0.147752 0.440516 0.525510 0.506150
C38   C     C_R   0.852232 0.559491 0.474432 0.499384
C39   C     C_R   0.027450 0.451498 0.517696 -0.098143
C40   C     C_R   0.972481 0.548467 0.482145 -0.100226
H13   H     H_    0.807030 0.322531 0.576375 0.190837
H14   H     H_    0.192912 0.677397 0.423450 0.191163
H15   H     H_    0.010454 0.711217 0.436789 0.260534
H16   H     H_    0.989537 0.288752 0.563025 0.257479
N3    N     N_R   0.900819 0.434191 0.008294 0.213185
O9    O     O_R   0.989873 0.448645 0.982140 -0.340693
O10   O     O_R   0.910238 0.362918 0.078398 -0.359140
N4    N     N_R   0.149542 0.693493 0.013962 0.212779
O11   O     O_R   0.050417 0.669559 0.025614 -0.333755
O12   O     O_R   0.160133 0.785149 0.971353 -0.341109
N5    N     N_R   0.216345 0.987160 0.386515 0.212567
O13   O     O_R   0.180598 0.906571 0.429025 -0.379754
O14   O     O_R   0.136187 0.036144 0.309547 -0.309575
N6    N     N_R   0.783672 0.012662 0.613906 0.211800
O15   O     O_R   0.819616 0.093185 0.571464 -0.376012
O16   O     O_R   0.863678 0.963620 0.690929 -0.312037
S1    S     S_3+6 0.775321 0.674961 0.401033 0.035149
O17   O     O_2   0.819938 0.765942 0.462762 -0.288607
O18   O     O_2   0.811057 0.697262 0.318091 -0.318058
O19   O     O_3   0.623618 0.673411 0.348331 -0.537186
H17   H     H_    0.602463 0.743840 0.312842 0.379652
S2    S     S_3+6 0.224860 0.325228 0.599062 0.051970
O20   O     O_2   0.188979 0.302815 0.681907 -0.286208
O21   O     O_2   0.180548 0.234217 0.537341 -0.297910
O22   O     O_3   0.376626 0.327148 0.652087 -0.526556
H18   H     H_    0.397942 0.254235 0.680658 0.378114

loop_
_geom_bond_atom_site_label_1
_geom_bond_atom_site_label_2
_geom_bond_distance
_ccdc_geom_bond_type
C26   C31   1.415380 A    
C15   C21   1.398983 A    
Zn2   N2    2.038556 S    
C1    C24   1.429341 S    
C7    N3    1.438874 S    
C8    C16   1.421861 A    
O7    Zn2   1.908699 S    
S1    O17   1.502660 D    
C29   C31   1.379974 A    
C11   H4    1.076636 S    
C16   C22   1.400279 A    
C12   H3    1.080855 S    
O1    C1    1.295732 A    
C18   C19   1.412798 A    
C14   C16   1.418802 A    
C35   H14   1.080419 S    
N6    O16   1.301295 A    
C33   C35   1.394227 A    
C34   C36   1.394391 A    
N1    C38   1.406250 A    
N3    O10   1.301267 A    
O4    Zn1   2.005832 S    
C37   C39   1.436167 A    
C38   C40   1.436172 A    
C5    C9    1.397055 A    
C3    C5    1.458308 S    
C30   H9    1.082181 S    
C4    C6    1.459276 S    
C2    C23   1.429038 S    
C6    C12   1.385661 A    
C23   C28   1.392182 A    
C21   H1    1.080868 S    
C13   C17   1.418608 A    
C8    C10   1.404607 A    
C6    C10   1.399507 A    
C30   C32   1.379888 A    
N1    C36   1.353080 A    
C17   C20   1.416698 A    
C8    N4    1.439002 S    
O2    C2    1.295699 A    
C33   H15   1.077852 S    
S1    O18   1.504654 D    
C26   C28   1.387725 A    
C25   N5    1.437448 S    
O19   H17   0.991883 S    
N4    O12   1.301246 A    
S2    O20   1.504465 D    
S2    O22   1.671327 S    
C24   C27   1.392236 A    
C22   H2    1.080809 S    
O5    C3    1.301598 A    
N5    O13   1.301370 A    
C9    H6    1.083468 S    
N5    O14   1.301268 A    
C5    C11   1.387976 A    
O6    C4    1.303238 A    
C19   H7    1.080937 S    
C20   H8    1.078780 S    
O7    C3    1.306578 A    
O3    Zn2   2.005830 S    
O8    C4    1.305821 A    
O4    C2    1.298675 A    
C38   S1    1.812817 S    
C36   H13   1.080395 S    
C11   C13   1.392528 A    
C12   C14   1.388844 A    
O1    Zn1   1.965627 S    
S1    O19   1.670678 S    
C33   C40   1.419083 A    
C34   H16   1.077907 S    
C34   C39   1.418956 A    
O6    Zn2   1.947913 S    
N6    O15   1.301362 A    
C14   C18   1.411830 A    
N4    O11   1.301300 A    
O3    C1    1.298724 A    
O8    Zn1   1.908700 S    
C27   H12   1.083398 S    
C25   C32   1.415284 A    
C29   H10   1.082133 S    
N2    C35   1.352985 A    
C7    C15   1.420887 A    
C26   N6    1.437423 S    
C25   C27   1.387735 A    
C20   C22   1.391897 A    
C10   H5    1.083373 S    
C28   H11   1.083427 S    
C7    C9    1.399925 A    
C23   C30   1.388864 A    
S2    O21   1.502801 D    
C24   C29   1.388990 A    
C13   C15   1.425322 A    
N3    O9    1.301395 A    
O2    Zn2   1.965627 S    
C37   S2    1.812485 S    
C39   C40   1.400586 A    
O5    Zn1   1.947913 S    
C19   C21   1.387078 A    
C31   C32   1.422866 A    
C17   C18   1.405422 A    
N2    C37   1.405785 A    
O22   H18   0.990807 S    
Zn1   N1    2.038555 S    
