data_mof_unit_36682.cif
_audit_creation_date              2012-12-10T18:16:24-0500
_audit_creation_method            fapswitch 2.2
_symmetry_space_group_name_H-M    P1
_symmetry_Int_Tables_number       1
_space_group_crystal_system       triclinic
_cell_length_a                    12.590555
_cell_length_b                    13.081885
_cell_length_c                    27.73222
_cell_angle_alpha                 90.754083
_cell_angle_beta                  103.199643
_cell_angle_gamma                 82.217123
_cell_volume                      4405.33446214

loop_
_atom_site_label
_atom_site_type_symbol
_atom_type_description
_atom_site_fract_x
_atom_site_fract_y
_atom_site_fract_z
_atom_type_partial_charge
C1    C     C_R   0.438737 0.691154 0.490650 0.892126
C2    C     C_R   0.405316 0.506351 0.713031 0.147053
C3    C     C_R   0.506692 0.505850 0.747658 0.294239
C4    C     C_R   0.511545 0.500986 0.899311 -0.134727
C5    C     C_R   0.504707 0.595369 0.874013 0.004068
C6    C     C_R   0.497403 0.688130 0.899214 -0.135209
C7    C     C_R   0.520402 0.407128 0.873676 -0.080364
C8    C     C_R   0.503129 0.503015 0.646759 -0.066630
C9    C     C_R   0.495946 0.498525 0.353039 -0.068871
C10   C     C_R   0.482018 0.595822 0.024124 -0.001482
C11   C     C_R   0.526173 0.406446 0.027620 0.090803
C12   C     C_R   0.501085 0.500768 0.593872 0.885583
C13   C     C_R   0.502088 0.501285 0.050977 0.067515
C14   C     C_R   0.448602 0.687214 0.047419 -0.334706
C15   C     C_R   0.442050 0.687750 0.097143 0.503977
C16   C     C_R   0.468830 0.594518 0.124835 -0.079194
C17   C     C_R   0.498194 0.501360 0.101629 -0.133117
C18   C     C_R   0.524056 0.407845 0.129190 0.006811
C19   C     C_R   0.520785 0.408533 0.179156 0.488571
C20   C     C_R   0.466597 0.590811 0.175323 0.530713
C21   C     C_R   0.394778 0.483821 0.267517 0.149803
C22   C     C_R   0.398599 0.484321 0.318532 -0.211067
C23   C     C_R   0.561260 0.308222 0.505205 0.888025
C24   C     C_R   0.590589 0.511842 0.336675 -0.224867
C25   C     C_R   0.588022 0.511436 0.286505 -0.120177
C26   C     C_R   0.491256 0.497789 0.252125 0.277853
C27   C     C_R   0.494028 0.596116 0.974556 0.090946
C28   C     C_R   0.509125 0.500967 0.950133 0.068309
C29   C     C_R   0.521387 0.406085 0.976055 -0.001300
C30   C     C_R   0.492508 0.688693 0.948582 -0.215802
C31   C     C_R   0.526639 0.312938 0.898920 0.503631
C32   C     C_R   0.555344 0.314948 0.056886 -0.216051
C33   C     C_R   0.553922 0.315815 0.106658 -0.138251
C34   C     C_R   0.498771 0.499539 0.406076 0.859462
C35   C     C_R   0.526685 0.313587 0.949411 -0.333941
C36   C     C_R   0.723614 0.056429 0.480970 0.157008
C37   C     C_R   0.597181 0.198493 0.501533 -0.091966
C38   C     C_R   0.291464 0.840768 0.480225 -0.320485
C39   C     C_R   0.258312 0.947508 0.476343 0.514686
C40   C     C_R   0.336680 0.012871 0.475830 -0.199662
C41   C     C_R   0.446883 0.972644 0.475533 0.008526
C42   C     C_R   0.472343 0.866498 0.469027 0.083279
C43   C     C_R   0.532917 0.034152 0.481870 0.077715
C44   C     C_R   0.637302 0.993842 0.472890 0.138334
C45   C     C_R   0.505208 0.594972 0.823740 0.489728
C46   C     C_R   0.651507 0.892642 0.455930 -0.260676
C47   C     C_R   0.570267 0.829957 0.454033 -0.162669
C48   C     C_R   0.518565 0.133279 0.499663 -0.260127
C49   C     C_R   0.700687 0.160195 0.493395 -0.245002
C50   C     C_R   0.399507 0.800213 0.478381 -0.161566
C51   C     C_R   0.088075 0.343187 0.432839 -0.282715
C52   C     C_R   0.799703 0.632070 0.557699 0.016729
C53   C     C_R   0.904153 0.661918 0.569176 -0.269129
C54   C     C_R   0.985535 0.612115 0.547270 -0.205135
C55   C     C_R   0.962625 0.531369 0.513697 0.021356
C56   C     C_R   0.520821 0.411122 0.822999 0.540460
C57   C     C_R   0.854710 0.503714 0.503358 0.237594
C58   C     C_R   0.041843 0.477382 0.489957 -0.016111
C59   C     C_R   0.011549 0.397259 0.456595 0.193245
C60   C     C_R   0.905292 0.371580 0.447294 -0.290437
C61   C     C_R   0.828241 0.424099 0.470341 -0.227830
C62   C     C_R   0.150716 0.499053 0.497938 -0.054987
C63   C     C_R   0.194105 0.368484 0.442338 0.002879
C64   C     C_R   0.604546 0.504835 0.731852 -0.122425
C65   C     C_R   0.602952 0.503670 0.681663 -0.215690
C66   C     C_R   0.404735 0.504875 0.662610 -0.237853
H1    H     H_    0.327001 0.506052 0.635795 0.158607
H2    H     H_    0.682053 0.504265 0.758696 0.144769
H3    H     H_    0.582927 0.241393 0.042791 0.146795
H4    H     H_    0.666711 0.522591 0.362562 0.171480
H5    H     H_    0.576582 0.243554 0.127467 0.191519
H6    H     H_    0.661422 0.521988 0.274077 0.142044
H7    H     H_    0.527028 0.240217 0.966626 0.138743
H8    H     H_    0.763059 0.210940 0.496509 0.160249
H9    H     H_    0.726032 0.859609 0.445284 0.153806
H10   H     H_    0.444677 0.162292 0.511719 0.166052
H11   H     H_    0.233593 0.789973 0.485386 0.153897
H12   H     H_    0.308361 0.094759 0.473887 0.154878
H13   H     H_    0.584847 0.752741 0.440331 0.176260
H14   H     H_    0.254703 0.327127 0.424567 0.134953
H15   H     H_    0.881442 0.310406 0.422021 0.161725
H16   H     H_    0.066186 0.281845 0.407369 0.156951
H17   H     H_    0.181613 0.557713 0.522756 0.123401
H18   H     H_    0.735948 0.670955 0.574379 0.146484
H19   H     H_    0.494952 0.761230 0.880790 0.191555
H20   H     H_    0.064956 0.638538 0.557275 0.136013
H21   H     H_    0.921908 0.723801 0.594815 0.156458
H22   H     H_    0.748336 0.400515 0.461535 0.214593
H23   H     H_    0.326459 0.474106 0.331844 0.155608
H24   H     H_    0.423324 0.759465 0.027212 0.139630
H25   H     H_    0.490467 0.763104 0.965743 0.145972
H26   H     H_    0.679868 0.502264 0.670258 0.167238
N1    N     N_R   0.511718 0.503950 0.799493 -0.371630
N2    N     N_R   0.491997 0.498921 0.200807 -0.372727
N3    N     N_R   0.222180 0.444690 0.474320 -0.101765
N4    N     N_R   0.776980 0.554780 0.525420 -0.131910
O1    O     O_R   0.366730 0.627160 0.487740 -0.613898
O2    O     O_2   0.439749 0.677695 0.199151 -0.477111
O3    O     O_2   0.529915 0.323645 0.797055 -0.487526
O4    O     O_2   0.546057 0.319724 0.206095 -0.560252
O5    O     O_R   0.544830 0.662520 0.504140 -0.624157
O6    O     O_R   0.410970 0.482310 0.563040 -0.619810
O7    O     O_R   0.589070 0.517670 0.579450 -0.618079
O8    O     O_R   0.455170 0.337480 0.495860 -0.615271
O9    O     O_R   0.633270 0.372840 0.512260 -0.634733
O10   O     O_R   0.410930 0.482330 0.420550 -0.620543
O11   O     O_R   0.589030 0.517690 0.436960 -0.647708
O12   O     O_2   0.497972 0.684715 0.798946 -0.555025
Zn1   Zn    Zn3+2 0.381080 0.476390 0.489050 0.942165
Zn2   Zn    Zn3+2 0.618920 0.523610 0.510950 0.926666
O13   O     O_3   0.531696 0.220883 0.873860 -0.697801
H27   H     H_    0.536472 0.162417 0.896996 0.325769
C67   C     C_3   0.840471 0.014899 0.478060 -0.418577
C68   C     C_3   0.897733 0.940697 0.521724 -0.348449
C69   C     C_3   0.925468 0.997358 0.570558 -0.787795
H28   H     H_    0.979495 0.056396 0.567707 0.267067
H29   H     H_    0.849097 0.035327 0.580416 0.264829
H30   H     H_    0.969427 0.941286 0.600575 0.234607
H31   H     H_    0.845603 0.880902 0.525861 0.224638
H32   H     H_    0.975195 0.899740 0.514241 0.209559
H33   H     H_    0.840003 0.975302 0.442386 0.169619
H34   H     H_    0.890371 0.078847 0.477926 0.220721
C70   C     C_3   0.297328 0.509755 0.728656 -0.434691
C71   C     C_3   0.252601 0.406079 0.719873 -0.328077
C72   C     C_3   0.144132 0.409073 0.735937 -0.849387
H35   H     H_    0.156179 0.425387 0.776095 0.265986
H36   H     H_    0.081202 0.469506 0.714480 0.260620
H37   H     H_    0.113677 0.333210 0.729075 0.257404
H38   H     H_    0.238604 0.387101 0.679922 0.223768
H39   H     H_    0.313475 0.344026 0.741280 0.267856
H40   H     H_    0.306541 0.529330 0.768335 0.209755
H41   H     H_    0.236741 0.571908 0.707098 0.205454
O14   O     O_3   0.151467 0.990408 0.475054 -0.779617
H42   H     H_    0.105320 0.934048 0.472230 0.319341
C73   C     C_3   0.291327 0.469138 0.228558 -0.411378
C74   C     C_3   0.189869 0.454478 0.248422 -0.375709
C75   C     C_3   0.091646 0.440480 0.206166 -0.829120
H43   H     H_    0.069479 0.509511 0.181160 0.265364
H44   H     H_    0.111264 0.371203 0.184558 0.265616
H45   H     H_    0.019677 0.430108 0.221558 0.251538
H46   H     H_    0.208624 0.384890 0.273072 0.229268
H47   H     H_    0.166772 0.523314 0.269672 0.231387
H48   H     H_    0.269470 0.537664 0.203178 0.221022
H49   H     H_    0.310889 0.400476 0.206502 0.222240
O15   O     O_3   0.409158 0.778738 0.118913 -0.696112
H50   H     H_    0.394406 0.836696 0.094571 0.326121

loop_
_geom_bond_atom_site_label_1
_geom_bond_atom_site_label_2
_ccdc_geom_bond_type
C10   C27   A    
C58   C62   A    
C65   H26   S    
C59   C60   A    
C21   C26   A    
C8    C66   A    
C70   H41   S    
C41   C42   A    
C48   H10   S    
O13   H27   S    
C47   H13   S    
O9    Zn2   S    
C45   N1    A    
O15   H50   S    
C24   H4    S    
C73   C74   S    
C2    C70   S    
C75   H44   S    
C6    H19   S    
O7    Zn2   S    
C34   O11   A    
C64   H2    S    
C28   C29   A    
C73   H49   S    
O8    Zn1   S    
C9    C22   A    
C15   C16   A    
C23   O9    A    
C63   N3    A    
O1    Zn1   S    
C18   C19   A    
C52   H18   S    
C14   H24   S    
C74   H47   S    
C54   C55   A    
C67   H34   S    
C16   C17   A    
C69   H29   S    
C57   N4    A    
C71   H38   S    
C72   H37   S    
C43   C48   A    
C68   H31   S    
C45   O12   S    
C8    C12   S    
C73   H48   S    
C66   H1    S    
C8    C65   A    
C62   N3    A    
C27   C30   A    
C41   C43   A    
C7    C56   A    
C4    C7    A    
C36   C67   S    
C46   H9    S    
C4    C28   A    
C44   C46   A    
C1    C50   S    
C68   C69   S    
C63   H14   S    
C56   N1    A    
C75   H45   S    
C7    C31   A    
C34   O10   A    
C70   C71   S    
C51   C63   A    
C24   C25   A    
C12   O7    A    
C3    N1    S    
C10   C14   A    
C1    O1    A    
C39   C40   A    
C54   H20   S    
C74   C75   S    
C58   C59   A    
C23   C37   S    
N4    Zn2   S    
C60   C61   A    
C62   H17   S    
C38   C39   A    
C43   C44   A    
C12   O6    A    
C74   H46   S    
C61   H22   S    
O14   H42   S    
C37   C49   A    
C60   H15   S    
C23   O8    A    
C16   C20   A    
C69   H30   S    
C17   C18   A    
C71   H39   S    
C53   H21   S    
C25   H6    S    
C37   C48   A    
C57   C61   A    
O5    Zn2   S    
C51   H16   S    
C19   N2    A    
C42   C50   A    
C40   C41   A    
C6    C30   A    
C11   C32   A    
C26   N2    S    
C55   C57   A    
N3    Zn1   S    
C72   H35   S    
O11   Zn2   S    
C31   C35   A    
C36   C44   A    
C51   C59   A    
C1    O5    A    
C52   C53   A    
C15   O15   S    
C67   C68   S    
C39   O14   S    
C20   N2    A    
C46   C47   A    
C35   H7    S    
C70   H40   S    
C14   C15   A    
C30   H25   S    
C2    C66   A    
C10   C13   A    
C19   O4    S    
C9    C24   A    
C53   C54   A    
C32   H3    S    
C38   C50   A    
C38   H11   S    
C67   H33   S    
C75   H43   S    
C29   C35   A    
C13   C17   A    
C64   C65   A    
C2    C3    A    
C25   C26   A    
C32   C33   A    
C11   C13   A    
C5    C6    A    
C5    C45   A    
C22   H23   S    
C9    C34   S    
C52   N4    A    
C40   H12   S    
C42   C47   A    
C3    C64   A    
C18   C33   A    
C33   H5    S    
C4    C5    A    
C20   O2    S    
C11   C29   A    
C55   C58   A    
C27   C28   A    
C72   H36   S    
C31   O13   S    
C49   H8    S    
O6    Zn1   S    
C56   O3    S    
C21   C22   A    
C21   C73   S    
C68   H32   S    
C36   C49   A    
C69   H28   S    
C71   C72   S    
O10   Zn1   S    
