data_mof_unit_14180.cif
_audit_creation_date              2012-12-11T14:37:43-0500
_audit_creation_method            fapswitch 2.2
_symmetry_space_group_name_H-M    P1
_symmetry_Int_Tables_number       1
_space_group_crystal_system       triclinic
_cell_length_a                    14.463993
_cell_length_b                    15.798452
_cell_length_c                    6.986745
_cell_angle_alpha                 89.810022
_cell_angle_beta                  80.478725
_cell_angle_gamma                 89.880802
_cell_volume                      1574.52802765

loop_
_atom_site_label
_atom_site_type_symbol
_atom_type_description
_atom_site_fract_x
_atom_site_fract_y
_atom_site_fract_z
_atom_type_partial_charge
O1    O     O_R   0.337080 0.165770 0.524980 -0.537042
O2    O     O_R   0.662920 0.834230 0.475020 -0.537050
O3    O     O_R   0.662920 0.665770 0.475020 -0.529309
O4    O     O_R   0.337080 0.334230 0.524980 -0.529312
O5    O     O_R   0.348340 0.341430 0.191390 -0.533423
O6    O     O_R   0.651660 0.658570 0.808610 -0.533420
O7    O     O_R   0.651660 0.841430 0.808610 -0.535885
O8    O     O_R   0.348340 0.158570 0.191390 -0.535883
O9    O     O_R   0.165780 0.339950 0.082750 -0.542610
O10   O     O_R   0.834220 0.660050 0.917250 -0.542614
O11   O     O_R   0.834220 0.839950 0.917250 -0.543395
O12   O     O_R   0.165780 0.160050 0.082750 -0.543393
C1    C     C_R   0.369993 0.364533 0.355425 0.643770
C2    C     C_R   0.630007 0.635467 0.644575 0.643849
C3    C     C_R   0.629848 0.864749 0.644089 0.588651
C4    C     C_R   0.370152 0.135251 0.355911 0.588642
O13   O     O_3   0.191540 0.250000 0.407620 -0.370022
O14   O     O_3   0.808460 0.750000 0.592380 -0.370030
V1    V     V_3+5 0.262540 0.250000 0.108780 1.443611
V2    V     V_3+5 0.737460 0.750000 0.891220 1.443634
O15   O     O_R   0.154530 0.164290 0.756910 -0.536356
O16   O     O_R   0.845470 0.835710 0.243090 -0.536358
O17   O     O_R   0.845470 0.664290 0.243090 -0.534755
O18   O     O_R   0.154530 0.335710 0.756910 -0.534754
C5    C     C_R   0.132870 0.133036 0.931920 0.688655
C6    C     C_R   0.867129 0.866964 0.068080 0.688643
C7    C     C_R   0.867081 0.633013 0.068406 0.708111
C8    C     C_R   0.132919 0.366986 0.931594 0.708048
V3    V     V_3+5 0.240320 0.250000 0.616280 1.405130
V4    V     V_3+5 0.759680 0.750000 0.383720 1.405144
O19   O     O_3   0.311330 0.250000 0.867310 -0.367986
O20   O     O_3   0.688670 0.750000 0.132690 -0.367989
C9    C     C_3   0.062508 0.506471 0.121936 -0.171975
C10   C     C_3   0.937490 0.493528 0.878067 -0.171934
C11   C     C_3   0.938111 0.006459 0.876426 -0.165539
C12   C     C_3   0.061888 0.993541 0.123574 -0.165539
C13   C     C_3   0.043995 0.575274 0.973377 -0.203218
C14   C     C_3   0.956004 0.424725 0.026625 -0.203183
C15   C     C_3   0.955722 0.075279 0.024539 -0.184845
C16   C     C_3   0.044277 0.924721 0.975462 -0.184845
H1    H     H_    0.079942 0.637411 0.950917 0.103491
H2    H     H_    0.920059 0.362588 0.049086 0.103470
H3    H     H_    0.919436 0.137375 0.045571 0.109479
H4    H     H_    0.080563 0.862625 0.954429 0.109479
H5    H     H_    0.116620 0.512093 0.215991 0.116110
H6    H     H_    0.883380 0.487907 0.784010 0.116099
H7    H     H_    0.884232 0.012169 0.781710 0.126632
H8    H     H_    0.115767 0.987831 0.218290 0.126633
C17   C     C_3   0.937506 0.562193 0.035192 -0.047096
C18   C     C_3   0.062493 0.437807 0.964809 -0.047117
C19   C     C_3   0.062457 0.062192 0.965294 -0.049240
C20   C     C_3   0.937542 0.937808 0.034707 -0.049237
C21   C     C_3   0.955638 0.494160 0.181554 0.235296
C22   C     C_3   0.044361 0.505840 0.818448 0.235273
C23   C     C_3   0.045184 0.994113 0.819295 0.222186
C24   C     C_3   0.954816 0.005888 0.180705 0.222183
C25   C     C_2   0.603741 0.445347 0.354391 0.338977
C26   C     C_2   0.396302 0.554644 0.645619 0.338958
C27   C     C_2   0.505487 0.931061 0.217156 0.381777
C28   C     C_2   0.494533 0.068956 0.782715 0.381772
C29   C     C_2   0.536628 0.465880 0.505177 0.059393
C30   C     C_2   0.463408 0.534105 0.494826 0.059358
C31   C     C_2   0.530691 0.988198 0.074299 0.088794
C32   C     C_2   0.469326 0.011823 0.925580 0.088792
O21   O     O_3   0.385055 0.515859 0.824788 -0.547365
C33   C     C_3   0.311269 0.557524 0.944013 -0.275155
H9    H     H_    0.245585 0.555940 0.881232 0.132448
H10   H     H_    0.330584 0.624035 0.971659 0.138007
H11   H     H_    0.296956 0.524222 0.085831 0.159418
O22   O     O_3   0.615020 0.484159 0.175252 -0.547347
C34   C     C_3   0.688730 0.442426 0.055956 -0.275268
H12   H     H_    0.754417 0.443850 0.118742 0.132433
H13   H     H_    0.703115 0.475781 0.914212 0.159449
H14   H     H_    0.669279 0.375968 0.028164 0.138067
O23   O     O_3   0.578113 0.112447 0.753824 -0.559966
C35   C     C_3   0.577411 0.165848 0.592875 -0.287655
H15   H     H_    0.519562 0.213152 0.621189 0.151712
H16   H     H_    0.572347 0.128811 0.459644 0.115917
H17   H     H_    0.644432 0.201333 0.565616 0.161859
O24   O     O_3   0.421911 0.887564 0.246038 -0.559968
C36   C     C_3   0.422619 0.834157 0.406975 -0.287622
H18   H     H_    0.427673 0.871190 0.540217 0.115909
H19   H     H_    0.480476 0.786861 0.378656 0.151721
H20   H     H_    0.355604 0.798662 0.434217 0.161854
C37   C     C_3   0.461270 0.583913 0.310822 -0.782626
H21   H     H_    0.452487 0.540163 0.191436 0.260836
H22   H     H_    0.402059 0.629800 0.326512 0.164345
H23   H     H_    0.527071 0.620475 0.271212 0.259143
C38   C     C_3   0.538747 0.416056 0.689162 -0.782686
H24   H     H_    0.547550 0.459793 0.808558 0.260830
H25   H     H_    0.472932 0.379513 0.728766 0.259146
H26   H     H_    0.597940 0.370150 0.673456 0.164344
C39   C     C_3   0.374111 0.972146 0.929023 -0.777094
H27   H     H_    0.381589 0.902624 0.909704 0.227907
H28   H     H_    0.327871 0.986622 0.068310 0.240766
H29   H     H_    0.338560 0.996658 0.810393 0.169001
C40   C     C_3   0.625905 0.027878 0.070861 -0.777103
H30   H     H_    0.672148 0.013400 0.931579 0.240762
H31   H     H_    0.618425 0.097401 0.090172 0.227911
H32   H     H_    0.661454 0.003370 0.189497 0.169000
C41   C     C_3   0.903155 0.486802 0.387472 -0.814912
H33   H     H_    0.928154 0.430165 0.458146 0.207078
H34   H     H_    0.915219 0.544724 0.468883 0.223651
H35   H     H_    0.826911 0.480424 0.386757 0.194067
C42   C     C_3   0.096840 0.513202 0.612528 -0.814926
H36   H     H_    0.071830 0.569835 0.541855 0.207087
H37   H     H_    0.173082 0.519593 0.613233 0.194026
H38   H     H_    0.084785 0.455277 0.531117 0.223661
C43   C     C_3   0.098993 0.986127 0.614923 -0.797279
H39   H     H_    0.073343 0.930183 0.543855 0.206995
H40   H     H_    0.088690 0.044394 0.532061 0.219935
H41   H     H_    0.174824 0.978027 0.619745 0.201674
C44   C     C_3   0.901006 0.013874 0.385077 -0.797276
H42   H     H_    0.926656 0.069817 0.456145 0.206996
H43   H     H_    0.825175 0.021973 0.380254 0.201677
H44   H     H_    0.911309 0.955607 0.467940 0.219934

loop_
_geom_bond_atom_site_label_1
_geom_bond_atom_site_label_2
_ccdc_geom_bond_type
O10   C7    A    
C26   C30   D    
C33   H10   S    
C41   H33   S    
O13   V3    S    
C15   C19   S    
C35   H17   S    
V1    O19   S    
C36   H20   S    
C40   H30   S    
C19   C23   S    
C37   H21   S    
C42   H37   S    
C39   H27   S    
C35   H16   S    
C32   C39   S    
C14   H2    S    
C43   H40   S    
C33   H11   S    
C9    H5    S    
O4    C1    A    
O18   V3    S    
C40   H31   S    
C8    C18   S    
O9    V1    S    
O10   V2    S    
C24   C44   S    
O22   C34   S    
C10   H6    S    
O17   C7    A    
C25   O22   S    
C38   H25   S    
O5    C1    A    
O4    V3    S    
C44   H44   S    
O7    C3    A    
C33   H9    S    
C11   H7    S    
O8    C4    A    
C23   C43   S    
C36   H19   S    
C29   C38   S    
C36   H18   S    
C37   H22   S    
C9    C21   S    
C30   C37   S    
O11   V2    S    
O8    V1    S    
C14   C18   S    
C11   C23   S    
O17   V4    S    
C12   C16   S    
C35   H15   S    
C43   H41   S    
C21   C41   S    
C34   H13   S    
C15   H3    S    
O11   C6    A    
C9    C18   S    
C16   C20   S    
O15   V3    S    
C9    C13   S    
O3    V4    S    
C11   C15   S    
O23   C35   S    
C5    C19   S    
C12   C24   S    
C6    C20   S    
O6    C2    A    
C13   C17   S    
C26   O21   S    
C15   C24   S    
C16   C23   S    
O1    V3    S    
O1    C4    A    
C18   C22   S    
C42   H38   S    
C38   H26   S    
O2    C3    A    
O3    C2    A    
C12   C19   S    
O14   V4    S    
C13   C22   S    
C31   C40   S    
C10   C22   S    
C41   H35   S    
C40   H32   S    
C44   H42   S    
V2    O20   S    
C37   H23   S    
O15   C5    A    
C10   C17   S    
O16   V4    S    
C22   C42   S    
C10   C14   S    
O18   C8    A    
O24   C36   S    
C27   O24   S    
C34   H14   S    
C25   C29   D    
O5    V1    S    
C39   H29   S    
O6    V2    S    
C42   H36   S    
C28   O23   S    
C27   C31   D    
O2    V4    S    
O12   C5    A    
C28   C32   D    
C34   H12   S    
V3    O19   S    
C43   H39   S    
V4    O20   S    
C39   H28   S    
C14   C21   S    
C17   C21   S    
O12   V1    S    
O13   V1    S    
C12   H8    S    
O14   V2    S    
O21   C33   S    
C13   H1    S    
C29   C30   S    
C31   C32   S    
C7    C17   S    
C16   H4    S    
C41   H34   S    
O7    V2    S    
O16   C6    A    
C11   C20   S    
C38   H24   S    
C20   C24   S    
O9    C8    A    
C44   H43   S    
