data_mof_unit_34875.cif
_audit_creation_date              2012-12-10T18:20:33-0500
_audit_creation_method            fapswitch 2.2
_symmetry_space_group_name_H-M    P1
_symmetry_Int_Tables_number       1
_space_group_crystal_system       triclinic
_cell_length_a                    14.295378
_cell_length_b                    13.549512
_cell_length_c                    14.99214
_cell_angle_alpha                 87.12444
_cell_angle_beta                  88.766011
_cell_angle_gamma                 81.075284
_cell_volume                      2864.86042703

loop_
_atom_site_label
_atom_site_type_symbol
_atom_type_description
_atom_site_fract_x
_atom_site_fract_y
_atom_site_fract_z
_atom_type_partial_charge
C1    C     C_R   0.500695 0.500523 0.326991 0.873171
C2    C     C_R   0.499297 0.499192 0.673016 0.876691
C3    C     C_R   0.498419 0.495599 0.953782 0.018440
C4    C     C_R   0.500413 0.496066 0.046632 0.017285
C5    C     C_R   0.583204 0.464406 0.906429 0.098728
C6    C     C_R   0.415770 0.528253 0.093881 0.098129
C7    C     C_R   0.327049 0.557372 0.956468 0.168655
C8    C     C_R   0.671330 0.431883 0.043979 0.170714
C9    C     C_R   0.330513 0.557855 0.049324 -0.265513
C10   C     C_R   0.668041 0.432726 0.951050 -0.265594
C11   C     C_R   0.811906 0.419139 0.536825 0.192252
C12   C     C_R   0.191212 0.574160 0.451475 0.192183
C13   C     C_R   0.789733 0.573834 0.451451 0.197120
C14   C     C_R   0.208800 0.435587 0.558158 0.159473
C15   C     C_R   0.888868 0.579581 0.457224 0.027767
C16   C     C_R   0.110822 0.427235 0.549651 0.043749
C17   C     C_R   0.949526 0.503459 0.503506 0.036307
C18   C     C_R   0.050288 0.503430 0.503083 0.023926
C19   C     C_R   0.910793 0.423736 0.545116 -0.007819
C20   C     C_R   0.090242 0.578690 0.455080 0.020138
C21   C     C_R   0.929984 0.657598 0.414214 -0.206752
C22   C     C_R   0.071151 0.345491 0.585974 -0.185331
C23   C     C_R   0.518309 0.314133 0.500388 0.895161
C24   C     C_R   0.481700 0.685863 0.499704 0.892338
C25   C     C_R   0.027674 0.655692 0.410903 -0.209031
C26   C     C_R   0.973702 0.345954 0.588068 -0.227097
C27   C     C_1   0.466497 0.790836 0.499579 -0.193913
C28   C     C_1   0.533610 0.209138 0.500851 -0.192957
C29   C     C_2   0.458636 0.983724 0.499675 -0.158790
C30   C     C_2   0.541541 0.016207 0.501284 -0.162188
C31   C     C_1   0.541398 0.120505 0.501164 0.001562
C32   C     C_1   0.458770 0.879448 0.499553 -0.002074
C33   C     C_R   0.582477 0.465432 0.814341 -0.240034
C34   C     C_R   0.417099 0.530439 0.185774 -0.239957
C35   C     C_R   0.498284 0.496940 0.769045 -0.071981
C36   C     C_R   0.501574 0.500375 0.231048 -0.066756
C37   C     C_R   0.413751 0.526941 0.815081 -0.267690
C38   C     C_R   0.585702 0.467928 0.185229 -0.266235
C39   C     C_R   0.412039 0.526853 0.908031 0.093980
C40   C     C_R   0.586831 0.464858 0.092394 0.092847
H1    H     H_    0.608364 0.965382 0.502529 0.154377
H2    H     H_    0.391813 0.034546 0.498388 0.156939
H3    H     H_    0.647788 0.441633 0.777927 0.157373
H4    H     H_    0.352086 0.555946 0.222122 0.147201
H5    H     H_    0.350438 0.552392 0.777392 0.166566
H6    H     H_    0.649184 0.443782 0.223082 0.174393
H7    H     H_    0.266258 0.582023 0.087262 0.142938
H8    H     H_    0.732117 0.408045 0.913032 0.144247
H9    H     H_    0.887812 0.720901 0.380429 0.151633
H10   H     H_    0.114946 0.278207 0.610406 0.166527
H11   H     H_    0.052054 0.716102 0.372151 0.153433
H12   H     H_    0.949141 0.283244 0.623525 0.156985
N1    N     N_R   0.750030 0.500040 0.500070 -0.135188
N2    N     N_R   0.249970 0.499960 0.499930 -0.149823
O1    O     O_R   0.580280 0.500020 0.367860 -0.635440
O2    O     O_R   0.419720 0.499980 0.632140 -0.652284
O3    O     O_R   0.419730 0.500030 0.367840 -0.638821
O4    O     O_R   0.580270 0.499970 0.632160 -0.613673
O5    O     O_R   0.591830 0.359650 0.500030 -0.617109
O6    O     O_R   0.408170 0.640350 0.499970 -0.613660
O7    O     O_R   0.431280 0.359660 0.500010 -0.616371
O8    O     O_R   0.568720 0.640340 0.499990 -0.630208
Zn1   Zn    Zn3+2 0.607200 0.499990 0.500020 0.925342
Zn2   Zn    Zn3+2 0.392800 0.500010 0.499980 0.913053
C41   C     C_3   0.231876 0.589649 0.912459 -0.422054
C42   C     C_3   0.221616 0.698002 0.875967 -0.858510
H13   H     H_    0.277994 0.708465 0.825940 0.258341
H14   H     H_    0.151816 0.718974 0.843472 0.248577
H15   H     H_    0.225641 0.748593 0.931357 0.261440
H16   H     H_    0.221205 0.538993 0.858882 0.201285
H17   H     H_    0.173298 0.583775 0.961526 0.204021
C43   C     C_3   0.765815 0.395512 0.087987 -0.420180
C44   C     C_3   0.770513 0.288821 0.127636 -0.864125
H18   H     H_    0.714008 0.283623 0.178762 0.257649
H19   H     H_    0.762603 0.237131 0.074029 0.263376
H20   H     H_    0.840205 0.264727 0.159605 0.247275
H21   H     H_    0.824827 0.395856 0.038461 0.204686
H22   H     H_    0.779797 0.446913 0.139617 0.198443
C45   C     C_3   0.784171 0.315192 0.543266 -0.324982
C46   C     C_3   0.741758 0.288573 0.634056 -0.836048
H23   H     H_    0.673738 0.336390 0.646886 0.284179
H24   H     H_    0.728989 0.209724 0.635841 0.235965
H25   H     H_    0.791095 0.296881 0.688393 0.230727
H26   H     H_    0.742577 0.303308 0.485208 0.221295
H27   H     H_    0.845562 0.256644 0.530450 0.158569
C47   C     C_3   0.232205 0.656821 0.399444 -0.363511
C48   C     C_3   0.221143 0.753152 0.450878 -0.843687
H28   H     H_    0.146492 0.790007 0.454224 0.238935
H29   H     H_    0.246185 0.737244 0.520443 0.276800
H30   H     H_    0.263326 0.806645 0.416952 0.243842
H31   H     H_    0.306747 0.634908 0.382920 0.257543
H32   H     H_    0.199518 0.671635 0.332685 0.155910
C49   C     C_3   0.733952 0.637898 0.378151 -0.349003
C50   C     C_3   0.768489 0.605637 0.285053 -0.921571
H33   H     H_    0.839018 0.626067 0.268064 0.261514
H34   H     H_    0.772850 0.523430 0.281702 0.261336
H35   H     H_    0.717924 0.642638 0.233921 0.253098
H36   H     H_    0.659460 0.631823 0.379353 0.272294
H37   H     H_    0.735942 0.718581 0.385595 0.169639
C51   C     C_3   0.262676 0.398787 0.643513 -0.315673
C52   C     C_3   0.215971 0.348218 0.722694 -0.992317
H38   H     H_    0.143360 0.387225 0.736682 0.279666
H39   H     H_    0.217582 0.267384 0.713074 0.263134
H40   H     H_    0.258075 0.352181 0.783552 0.257517
H41   H     H_    0.330164 0.350815 0.627769 0.243292
H42   H     H_    0.275386 0.468571 0.672538 0.231984

loop_
_geom_bond_atom_site_label_1
_geom_bond_atom_site_label_2
_ccdc_geom_bond_type
C2    C35   S    
C42   H14   S    
C48   H28   S    
C49   C50   S    
C29   H2    S    
C44   H18   S    
C24   C27   S    
C6    C9    A    
C21   H9    S    
C23   O5    A    
C11   C19   A    
C51   H41   S    
C43   H21   S    
C35   C37   A    
C29   C32   S    
C1    O3    A    
C47   H31   S    
C45   H26   S    
C42   H15   S    
C20   C25   A    
C41   H16   S    
C7    C9    A    
C19   C26   A    
C43   H22   S    
C17   C19   A    
C4    C40   A    
C5    C33   A    
O1    Zn1   S    
C24   O8    A    
O2    Zn2   S    
C30   H1    S    
C49   H37   S    
C18   C20   A    
C11   N1    A    
C22   H10   S    
C42   H13   S    
C3    C39   A    
C52   H39   S    
C44   H19   S    
C46   H25   S    
C13   N1    A    
C8    C43   S    
C33   H3    S    
C52   H38   S    
C34   H4    S    
C46   H24   S    
C47   C48   S    
C46   H23   S    
C50   H35   S    
C41   H17   S    
C6    C34   A    
C13   C49   S    
O7    Zn2   S    
C25   H11   S    
C29   C30   D    
C26   H12   S    
C7    C41   S    
C15   C21   A    
C24   O6    A    
C12   C20   A    
O8    Zn1   S    
C17   C18   A    
C16   C18   A    
C23   C28   S    
C50   H34   S    
C11   C45   S    
C4    C6    A    
C14   N2    A    
C9    H7    S    
C52   H40   S    
C13   C15   A    
C10   H8    S    
C44   H20   S    
C14   C16   A    
C37   H5    S    
C3    C4    A    
C45   H27   S    
O3    Zn2   S    
O4    Zn1   S    
C15   C17   A    
C21   C25   A    
C16   C22   A    
C27   C32   T    
C51   H42   S    
C28   C31   T    
C43   C44   S    
C3    C5    A    
C2    O4    A    
C14   C51   S    
O5    Zn1   S    
C12   C47   S    
O6    Zn2   S    
C36   C38   A    
C1    O1    A    
C5    C10   A    
C37   C39   A    
C2    O2    A    
C38   C40   A    
N1    Zn1   S    
C30   C31   S    
N2    Zn2   S    
C51   C52   S    
C33   C35   A    
C34   C36   A    
C50   H33   S    
C38   H6    S    
C45   C46   S    
C23   O7    A    
C8    C10   A    
C41   C42   S    
C22   C26   A    
C48   H30   S    
C48   H29   S    
C7    C39   A    
C47   H32   S    
C8    C40   A    
C49   H36   S    
C12   N2    A    
C1    C36   S    
