data_mof_unit_59857.cif
_audit_creation_date              2013-03-05T15:45:12-0500
_audit_creation_method            fapswitch 2.2
_symmetry_space_group_name_H-M    P1
_symmetry_Int_Tables_number       1
_space_group_crystal_system       triclinic
_cell_length_a                    11.612314
_cell_length_b                    11.614862
_cell_length_c                    19.536481
_cell_angle_alpha                 90.538516
_cell_angle_beta                  89.96888
_cell_angle_gamma                 59.904187
_cell_volume                      2279.62015045

loop_
_atom_site_label
_atom_site_type_symbol
_atom_site_description
_atom_site_fract_x
_atom_site_fract_y
_atom_site_fract_z
_atom_type_partial_charge
O1    O     O_R   0.267740 0.231990 0.575440 -0.505189
O2    O     O_R   0.527280 0.186680 0.570530 -0.501182
C1    C     C_R   0.640228 0.117150 0.599206 0.540824
O3    O     O_R   0.728090 0.003480 0.576380 -0.507473
O4    O     O_R   0.682970 0.789220 0.570490 -0.497005
C2    C     C_R   0.612098 0.746604 0.598591 0.539724
O5    O     O_R   0.499290 0.771920 0.575530 -0.509614
O6    O     O_R   0.285330 0.030900 0.569730 -0.498580
C3    C     C_R   0.241391 0.145246 0.598118 0.544049
O7    O     O_R   0.270980 0.227040 0.423900 -0.508528
O8    O     O_R   0.530280 0.182090 0.430050 -0.506845
C4    C     C_R   0.642687 0.113603 0.402430 0.598870
O9    O     O_R   0.731330 0.998530 0.424830 -0.458627
O10   O     O_R   0.685970 0.784630 0.430010 -0.458973
C5    C     C_R   0.619054 0.740171 0.402445 0.550508
O11   O     O_R   0.502530 0.766960 0.423990 -0.516877
O12   O     O_R   0.288330 0.026310 0.429250 -0.481449
C6    C     C_R   0.246026 0.137486 0.400986 0.579034
Cr1   Cr    Cr6+3 0.404720 0.198220 0.499960 1.026791
Cr2   Cr    Cr6+3 0.698290 0.897110 0.500380 1.085308
Cr3   Cr    Cr6+3 0.396970 0.904720 0.499610 1.020736
O13   O     O_3   0.499990 0.000020 0.499980 -0.267601
C7    C     C_1   0.670542 0.646164 0.860136 0.016279
C8    C     C_1   0.654521 0.683902 0.728376 -0.028550
C9    C     C_1   0.663434 0.666574 0.799678 -0.025975
C10   C     C_1   0.640857 0.704359 0.667930 0.007203
C11   C     C_1   0.126480 0.199081 0.859330 0.016183
C12   C     C_1   0.171505 0.170577 0.727666 -0.028220
C13   C     C_1   0.150054 0.182554 0.798937 -0.025593
C14   C     C_1   0.195429 0.161144 0.667304 0.007658
C15   C     C_1   0.679025 0.191304 0.860804 0.015450
C16   C     C_1   0.658521 0.167221 0.728997 -0.028273
C17   C     C_1   0.665954 0.180874 0.800348 -0.025459
C18   C     C_1   0.652750 0.149656 0.668576 0.007196
C19   C     C_R   0.657644 0.577763 0.312297 0.084855
C20   C     C_R   0.656010 0.558230 0.242495 -0.136007
H1    H     H_    0.648843 0.473929 0.223775 0.141454
C21   C     C_R   0.671005 0.642712 0.196759 -0.022572
C22   C     C_R   0.702238 0.737250 0.219370 0.208471
C23   C     C_R   0.711522 0.752070 0.289789 0.194684
C24   C     C_R   0.668298 0.685243 0.335032 -0.002729
C25   C     C_R   0.100545 0.280438 0.312877 -0.202761
H2    H     H_    0.060496 0.360306 0.350661 0.172947
C26   C     C_R   0.090024 0.310622 0.244037 0.127154
C27   C     C_R   0.133955 0.206729 0.194853 0.005940
C28   C     C_R   0.207792 0.073802 0.215350 0.173678
C29   C     C_R   0.240994 0.045597 0.284693 0.083979
C30   C     C_R   0.186980 0.151859 0.333541 -0.045127
C31   C     C_R   0.770465 0.156906 0.314959 0.137536
C32   C     C_R   0.787085 0.177061 0.246441 -0.120344
H3    H     H_    0.878700 0.172286 0.230123 0.123186
C33   C     C_R   0.686706 0.202451 0.198898 -0.002381
C34   C     C_R   0.563476 0.223308 0.219857 0.199112
C35   C     C_R   0.544256 0.206967 0.288752 0.080458
C36   C     C_R   0.653155 0.160962 0.335141 0.083948
O14   O     O_R   0.821500 0.119550 0.952820 -0.491664
O15   O     O_R   0.037130 0.162750 0.957360 -0.488286
C37   C     C_R   0.081321 0.231580 0.928634 0.557581
O16   O     O_R   0.056440 0.344950 0.951330 -0.494526
O17   O     O_R   0.797900 0.560570 0.957460 -0.492877
C38   C     C_R   0.684086 0.604028 0.929498 0.557802
O18   O     O_R   0.596140 0.579600 0.952720 -0.490718
O19   O     O_R   0.639070 0.321380 0.958660 -0.487353
C39   C     C_R   0.708709 0.206997 0.930140 0.559676
O20   O     O_R   0.821240 0.124490 0.104360 -0.465930
O21   O     O_R   0.036900 0.167320 0.097830 -0.479610
C40   C     C_R   0.081251 0.238229 0.125679 0.595093
O22   O     O_R   0.056190 0.349890 0.102870 -0.433064
O23   O     O_R   0.797670 0.565150 0.097930 -0.456690
C41   C     C_R   0.683913 0.607384 0.126218 0.601049
O24   O     O_R   0.595880 0.584540 0.104260 -0.484917
O25   O     O_R   0.638830 0.325960 0.099140 -0.473446
C42   C     C_R   0.712199 0.214988 0.128357 0.585550
Cr4   Cr    Cr6+3 0.926180 0.152240 0.028110 1.128301
Cr5   Cr    Cr6+3 0.921340 0.452070 0.027460 1.145246
Cr6   Cr    Cr6+3 0.626260 0.447120 0.028700 1.121916
O26   O     O_3   0.824590 0.350480 0.028090 -0.331532
N1    N     N_2   0.668315 0.479859 0.359055 -0.517587
H4    H     H_    0.718322 0.474454 0.403642 0.256288
C43   C     C_3   0.547031 0.478594 0.371243 -0.311978
H5    H     H_    0.472895 0.570706 0.398139 0.160639
H6    H     H_    0.568088 0.393941 0.404734 0.153196
H7    H     H_    0.506659 0.468199 0.321763 0.145081
N2    N     N_R   0.458003 0.260528 0.171500 0.079456
O27   O     O_R   0.424959 0.174114 0.151250 -0.268131
O28   O     O_R   0.396206 0.380251 0.146923 -0.277207
N3    N     N_2   0.414129 0.242083 0.311212 -0.473129
H8    H     H_    0.368640 0.206248 0.279311 0.287213
C44   C     C_3   0.329950 0.383166 0.325895 -0.225268
H9    H     H_    0.330155 0.444422 0.282637 0.184629
H10   H     H_    0.361580 0.410035 0.373897 0.135403
H11   H     H_    0.226130 0.408834 0.334500 0.192612
N4    N     N_R   0.737245 0.806737 0.170752 0.116648
O29   O     O_R   0.861972 0.767491 0.159026 -0.201242
O30   O     O_R   0.647349 0.890670 0.129303 -0.268382
N5    N     N_R   0.786796 0.811836 0.314131 0.121157
O31   O     O_R   0.883654 0.746786 0.356937 -0.301702
O32   O     O_R   0.787332 0.906356 0.279586 -0.322940
N6    N     N_R   0.050570 0.444750 0.225999 0.092116
O33   O     O_R   0.966972 0.540666 0.265361 -0.331110
O34   O     O_R   0.129155 0.466906 0.187874 -0.218475
N7    N     N_R   0.262523 0.968832 0.164950 0.076094
O35   O     O_R   0.350867 0.961648 0.121494 -0.258259
O36   O     O_R   0.207261 0.896694 0.154494 -0.309344
N8    N     N_2   0.343940 0.915895 0.302615 -0.468766
H12   H     H_    0.424909 0.880391 0.270130 0.261391
C45   C     C_3   0.301864 0.819179 0.312935 -0.244748
H13   H     H_    0.228700 0.827490 0.274221 0.192018
H14   H     H_    0.259989 0.830248 0.365121 0.152164
H15   H     H_    0.388074 0.717787 0.307424 0.148295
N9    N     N_2   0.866665 0.142080 0.364214 -0.525202
H16   H     H_    0.892047 0.215140 0.360591 0.258817
C46   C     C_3   0.982977 0.011378 0.364889 -0.261309
H17   H     H_    0.032105 0.989174 0.314109 0.157677
H18   H     H_    0.956174 0.934674 0.376711 0.236013
H19   H     H_    0.052403 0.008234 0.404809 0.134995

loop_
_geom_bond_atom_site_label_1
_geom_bond_atom_site_label_2
_geom_bond_distance
_ccdc_geom_bond_type
N3    H8    1.027955 S    
C21   C41   1.420397 S    
O11   Cr3   2.057158 S    
C11   C13   1.202738 T    
N9    H16   1.031457 S    
O25   Cr6   1.930306 S    
O4    Cr2   1.932261 S    
C2    C10   1.426888 S    
C34   C35   1.394434 A    
C26   C27   1.414203 A    
O22   Cr5   2.050027 S    
N8    C45   1.447716 S    
O8    Cr1   1.935318 S    
N4    O29   1.301373 A    
C34   N2    1.434364 S    
C12   C13   1.407596 S    
N2    O28   1.300513 A    
C35   N3    1.421274 S    
C26   N6    1.433778 S    
N1    C43   1.435592 S    
O19   Cr6   1.942093 S    
C5    O11   1.295983 A    
O21   Cr4   1.939658 S    
O20   C42   1.258267 A    
C22   N4    1.435907 S    
C28   C29   1.404788 A    
C29   C30   1.424180 A    
O6    C3    1.279859 A    
C29   N8    1.423155 S    
Cr4   O26   1.992283 S    
N5    O32   1.296750 A    
C27   C40   1.456137 S    
C32   C33   1.403555 A    
C45   H13   1.105903 S    
C15   C17   1.203608 T    
C41   O24   1.252926 A    
C44   H10   1.105251 S    
C38   O18   1.273498 A    
C31   N9    1.419478 S    
C46   H19   1.109602 S    
O21   C40   1.287194 A    
N4    O30   1.300366 A    
Cr3   O13   1.996066 S    
C45   H14   1.107592 S    
O18   Cr6   2.048700 S    
N7    O35   1.300777 A    
C25   C26   1.382998 A    
C23   N5    1.440439 S    
C43   H7    1.106287 S    
O12   C6    1.261427 A    
Cr6   O26   1.992817 S    
C21   C22   1.386665 A    
O1    Cr1   2.054113 S    
O14   Cr4   2.059047 S    
C40   O22   1.264027 A    
O10   Cr2   1.941952 S    
Cr1   O13   1.992303 S    
O1    C3    1.273735 A    
C8    C9    1.405768 S    
C5    C24   1.444315 S    
C43   H6    1.107145 S    
C33   C42   1.433407 S    
C22   C23   1.395799 A    
N1    H4    1.031965 S    
C43   H5    1.107742 S    
C1    C18   1.430404 S    
C32   H3    1.084733 S    
C37   O16   1.273311 A    
C31   C36   1.395739 A    
O12   Cr3   1.930558 S    
O20   Cr4   2.051561 S    
O17   C38   1.279403 A    
C19   C20   1.382031 A    
C16   C18   1.203635 T    
O15   Cr4   1.935021 S    
C28   N7    1.435124 S    
N6    O33   1.293565 A    
O7    Cr1   2.054867 S    
N5    O31   1.302268 A    
O14   C39   1.272148 A    
O6    Cr3   1.939079 S    
N9    C46   1.439814 S    
C25   C30   1.381737 A    
N2    O27   1.300029 A    
C44   H11   1.099540 S    
N7    O36   1.300656 A    
Cr5   O26   1.996106 S    
C3    C14   1.428855 S    
C23   C24   1.427869 A    
N6    O34   1.300833 A    
Cr2   O13   1.992765 S    
N3    C44   1.451704 S    
C45   H15   1.102630 S    
C25   H2    1.084346 S    
C1    O3    1.272956 A    
O16   Cr5   2.055826 S    
O24   Cr6   2.059508 S    
C33   C34   1.387050 A    
C46   H17   1.105962 S    
C35   C36   1.427820 A    
C20   H1    1.083708 S    
C19   N1    1.421705 S    
O9    Cr2   2.049071 S    
O2    Cr1   1.938699 S    
C15   C39   1.430316 S    
C8    C10   1.201586 T    
O25   C42   1.275163 A    
C11   C37   1.428905 S    
C6    C30   1.457557 S    
O8    C4    1.256022 A    
C2    O5    1.273686 A    
N8    H12   1.030755 S    
O17   Cr5   1.932854 S    
C16   C17   1.409042 S    
C12   C14   1.202723 T    
O2    C1    1.278014 A    
O5    Cr3   2.048840 S    
O15   C37   1.279437 A    
O4    C2    1.279401 A    
O7    C6    1.288394 A    
C20   C21   1.406841 A    
O23   Cr5   1.937790 S    
C7    C9    1.201588 T    
O23   C41   1.278780 A    
C19   C24   1.384024 A    
C4    C36   1.458080 S    
O19   C39   1.279667 A    
O3    Cr2   2.060469 S    
C27   C28   1.401298 A    
C7    C38   1.426902 S    
C4    O9    1.291962 A    
C31   C32   1.390967 A    
O10   C5    1.248243 A    
C44   H9    1.110587 S    
C46   H18   1.107166 S    
