data_mof_unit_52083.cif
_audit_creation_date              2012-10-26T21:04:09-0400
_audit_creation_method            fapswitch 2.2
_symmetry_space_group_name_H-M    P1
_symmetry_Int_Tables_number       1
_space_group_crystal_system       triclinic
_cell_length_a                    15.152231
_cell_length_b                    13.939421
_cell_length_c                    10.852869
_cell_angle_alpha                 90.208988
_cell_angle_beta                  92.563167
_cell_angle_gamma                 90.141099
_cell_volume                      2289.95406665

loop_
_atom_site_label
_atom_site_type_symbol
_atom_type_description
_atom_site_fract_x
_atom_site_fract_y
_atom_site_fract_z
_atom_type_partial_charge
C1    C     C_R   0.330024 0.499478 0.505469 0.540244
C2    C     C_R   0.477175 0.105096 0.397436 0.212893
C3    C     C_R   0.537634 0.211272 0.599309 0.348951
C4    C     C_R   0.467732 0.206284 0.400408 0.363970
C5    C     C_R   0.502268 0.054813 0.506769 -0.032970
C6    C     C_R   0.428422 0.894056 0.456409 0.210679
C7    C     C_R   0.570711 0.891340 0.564580 0.219227
C8    C     C_R   0.433828 0.793456 0.441571 0.084749
C9    C     C_R   0.564054 0.790041 0.568763 0.104654
C10   C     C_R   0.500479 0.945737 0.510673 0.040425
C11   C     C_R   0.499222 0.499820 0.262189 0.550250
C12   C     C_R   0.669788 0.499856 0.496470 0.537019
C13   C     C_R   0.502606 0.500182 0.737607 0.544712
C14   C     C_R   0.486140 0.583427 0.061870 -0.005133
C15   C     C_R   0.492893 0.585494 0.935235 0.021911
C16   C     C_R   0.503625 0.499631 0.128913 0.008312
C17   C     C_R   0.510191 0.501284 0.871057 0.005339
C18   C     C_R   0.531488 0.417629 0.066014 -0.157168
C19   C     C_R   0.533736 0.418228 0.937609 -0.169987
C20   C     C_3   0.415798 0.651237 0.916419 -0.129249
C21   C     C_3   0.405139 0.645504 0.054963 -0.127418
C22   C     C_R   0.093953 0.580242 0.481752 -0.188384
C23   C     C_R   0.187156 0.414163 0.551482 -0.024282
C24   C     C_R   0.905881 0.570333 0.558433 -0.195059
C25   C     C_R   0.185370 0.581029 0.486433 -0.146298
C26   C     C_R   0.814501 0.571823 0.552930 -0.166076
C27   C     C_R   0.233217 0.497574 0.514996 -0.048440
C28   C     C_R   0.766271 0.499075 0.491425 -0.050986
C29   C     C_3   0.298249 0.957489 0.512210 -0.006357
C30   C     C_3   0.218830 0.016379 0.467630 -0.347322
C31   C     C_3   0.707034 0.951811 0.531297 -0.014146
C32   C     C_3   0.794959 0.977961 0.595980 -0.356137
C33   C     C_1   0.366500 0.747839 0.364935 0.280527
C34   C     C_R   0.811221 0.426404 0.428050 -0.026051
C35   C     C_1   0.621024 0.740135 0.656570 0.332491
C36   C     C_1   0.443152 0.746949 0.875669 0.204219
C37   C     C_1   0.324100 0.592833 0.083924 0.216110
C38   C     C_1   0.232672 0.328722 0.595204 0.236522
C39   C     C_1   0.763816 0.352675 0.357693 0.231952
C40   C     C_3   0.028247 0.341280 0.709714 -0.006229
C41   C     C_3   0.990501 0.246346 0.751947 -0.365223
C42   C     C_3   0.968459 0.392912 0.249175 -0.003924
C43   C     C_3   0.013045 0.314402 0.177042 -0.358107
C44   C     C_3   0.486990 0.093687 0.811431 0.021351
C45   C     C_R   0.094498 0.414676 0.551146 0.291983
C46   C     C_3   0.537526 0.124766 0.928994 -0.367741
C47   C     C_3   0.532164 0.022239 0.235531 -0.004018
C48   C     C_3   0.506649 0.943523 0.142932 -0.349213
C49   C     C_3   0.674240 0.245956 0.683529 -0.004266
C50   C     C_3   0.724868 0.318301 0.764999 -0.377886
C51   C     C_3   0.341931 0.242489 0.287522 0.003029
C52   C     C_3   0.304024 0.316315 0.197168 -0.352184
C53   C     C_R   0.903898 0.427372 0.429028 0.292746
C54   C     C_R   0.047974 0.496825 0.510240 0.027933
C55   C     C_R   0.951145 0.497568 0.499082 0.028558
C56   C     C_R   0.527977 0.110404 0.611027 0.204162
Cu1   Cu    Cu3+1 0.500000 0.596430 0.500000 0.970011
Cu2   Cu    Cu3+1 0.500000 0.403570 0.500000 1.047037
H1    H     H_    0.548694 0.352341 0.115209 0.172816
H2    H     H_    0.274113 0.887948 0.548395 0.124409
H3    H     H_    0.181568 0.977748 0.392166 0.161083
H4    H     H_    0.174527 0.028598 0.544924 0.110742
H5    H     H_    0.241032 0.086914 0.433103 0.158660
H6    H     H_    0.686153 0.012642 0.470863 0.119716
H7    H     H_    0.717581 0.886742 0.473583 0.108161
H8    H     H_    0.818049 0.918079 0.656376 0.161341
H9    H     H_    0.845043 0.991690 0.526471 0.101344
H10   H     H_    0.787783 0.043540 0.652909 0.149720
H11   H     H_    0.977545 0.397894 0.720973 0.130615
H12   H     H_    0.550645 0.353022 0.890580 0.174547
H13   H     H_    0.087693 0.358363 0.770211 0.123036
H14   H     H_    0.041211 0.189223 0.746984 0.162610
H15   H     H_    0.970145 0.252942 0.848658 0.087175
H16   H     H_    0.932112 0.225945 0.691929 0.161070
H17   H     H_    0.014717 0.454980 0.258508 0.140039
H18   H     H_    0.907543 0.415335 0.195580 0.122020
H19   H     H_    0.967105 0.252876 0.161635 0.160226
H20   H     H_    0.032001 0.342462 0.086265 0.091676
H21   H     H_    0.073260 0.289334 0.229290 0.165048
H22   H     H_    0.445676 0.030378 0.832259 0.153022
H23   H     H_    0.361046 0.619808 0.857269 0.114782
H24   H     H_    0.440815 0.152614 0.782395 0.131985
H25   H     H_    0.579478 0.187942 0.911549 0.171206
H26   H     H_    0.490332 0.144002 0.000403 0.117684
H27   H     H_    0.581065 0.065700 0.962686 0.160600
H28   H     H_    0.580664 0.990793 0.303763 0.094482
H29   H     H_    0.565134 0.081988 0.188027 0.139917
H30   H     H_    0.457150 0.970627 0.073108 0.171132
H31   H     H_    0.566014 0.918708 0.095726 0.113339
H32   H     H_    0.477740 0.881615 0.191127 0.160677
H33   H     H_    0.696220 0.254149 0.587412 0.145583
H34   H     H_    0.414372 0.714461 0.105711 0.133741
H35   H     H_    0.691352 0.172784 0.717014 0.164223
H36   H     H_    0.796889 0.309710 0.754417 0.095308
H37   H     H_    0.705815 0.392507 0.738414 0.176579
H38   H     H_    0.710263 0.306775 0.863195 0.137464
H39   H     H_    0.311264 0.254407 0.377686 0.140668
H40   H     H_    0.323621 0.169831 0.252233 0.174374
H41   H     H_    0.231402 0.306989 0.185409 0.093008
H42   H     H_    0.318395 0.389646 0.232984 0.188679
H43   H     H_    0.333816 0.307629 0.106118 0.162114
H44   H     H_    0.058849 0.644759 0.453712 0.124699
H45   H     H_    0.941499 0.625438 0.611016 0.123009
H46   H     H_    0.218267 0.647208 0.465610 0.171215
H47   H     H_    0.781727 0.628799 0.600046 0.165416
H48   H     H_    0.333310 0.998091 0.588454 0.131308
N1    N     N_R   0.500000 0.258690 0.500000 -0.255763
N2    N     N_R   0.500000 0.741330 0.500000 -0.319812
N3    N     N_1   0.311106 0.713793 0.302488 -0.318150
N4    N     N_1   0.665806 0.701483 0.729799 -0.322423
N5    N     N_1   0.464465 0.822319 0.843749 -0.312493
N6    N     N_1   0.260355 0.551676 0.106161 -0.316233
N7    N     N_1   0.268783 0.260383 0.630524 -0.340363
N8    N     N_1   0.725935 0.293743 0.301428 -0.324103
O1    O     O_R   0.371460 0.581430 0.500010 -0.503628
O2    O     O_3   0.643823 0.935737 0.620705 -0.508608
O3    O     O_3   0.049744 0.332789 0.584901 -0.516309
O4    O     O_3   0.948017 0.356981 0.366001 -0.516577
O5    O     O_3   0.547974 0.066251 0.722723 -0.502655
O6    O     O_3   0.454928 0.056498 0.288969 -0.511370
O7    O     O_3   0.582683 0.262559 0.691047 -0.534675
O8    O     O_3   0.434664 0.253004 0.296601 -0.519113
O9    O     O_R   0.628540 0.581430 0.499990 -0.509892
O10   O     O_R   0.371470 0.418560 0.500010 -0.493949
O11   O     O_R   0.628530 0.418560 0.499990 -0.486981
O12   O     O_R   0.499990 0.581450 0.319660 -0.504835
O13   O     O_R   0.500010 0.581450 0.680340 -0.501529
O14   O     O_R   0.500010 0.418580 0.319660 -0.450114
O15   O     O_R   0.499990 0.418580 0.680340 -0.452541
O16   O     O_3   0.353356 0.941629 0.412644 -0.521859

loop_
_geom_bond_atom_site_label_1
_geom_bond_atom_site_label_2
_ccdc_geom_bond_type
C51   H39   S    
C7    C10   A    
Cu2   O14   S    
C23   C45   A    
C40   H13   S    
C5    C56   A    
C6    O16   S    
Cu1   O1    S    
C24   C55   A    
C42   H17   S    
C12   C28   S    
C14   C21   S    
C24   C26   A    
C18   C19   A    
C44   H24   S    
C43   H19   S    
C9    C35   S    
C50   H37   S    
Cu2   O15   S    
C43   H21   S    
C15   C17   A    
Cu2   N1    S    
C3    C56   A    
C37   N6    T    
C41   H16   S    
C29   O16   S    
C22   C25   A    
C48   H30   S    
C23   C27   A    
C32   H10   S    
C46   H27   S    
C51   H40   S    
C40   O3    S    
C28   C34   A    
C48   H32   S    
C20   H23   S    
C49   H33   S    
C8    N2    A    
C26   H47   S    
C26   C28   A    
C44   C46   S    
C53   C55   A    
C15   C20   S    
C4    N1    A    
C52   H43   S    
C40   H11   S    
C43   H20   S    
C34   C39   S    
C47   H28   S    
C44   H22   S    
C11   O12   A    
C22   C54   A    
Cu1   O12   S    
C38   N7    T    
C2    O6    S    
C53   O4    S    
C50   H36   S    
C20   C36   S    
C6    C8    A    
C12   O11   A    
C44   O5    S    
C3    N1    A    
C52   H42   S    
C51   C52   S    
C9    N2    A    
C47   H29   S    
C7    O2    S    
C2    C4    A    
C6    C10   A    
C29   C30   S    
Cu1   O9    S    
C11   C16   S    
C47   C48   S    
C29   H2    S    
C39   N8    T    
C49   O7    S    
C36   N5    T    
C4    O8    S    
C35   N4    T    
C34   C53   A    
C32   H9    S    
C46   H26   S    
C40   C41   S    
C45   C54   A    
C48   H31   S    
C41   H14   S    
C56   O5    S    
C14   C16   A    
C29   H48   S    
C2    C5    A    
C33   N3    T    
C42   C43   S    
C31   O2    S    
C32   H8    S    
C45   O3    S    
C31   H7    S    
C54   C55   S    
C47   O6    S    
Cu2   O10   S    
C31   H6    S    
C31   C32   S    
C42   O4    S    
Cu1   O13   S    
C25   H46   S    
C25   C27   A    
C23   C38   S    
C52   H41   S    
C42   H18   S    
C22   H44   S    
C13   C17   S    
C24   H45   S    
C30   H4    S    
C11   O14   A    
C1    O10   A    
C5    C10   S    
C50   H38   S    
Cu1   Cu2   S    
C12   O9    A    
C17   C19   A    
C8    C33   S    
C41   H15   S    
C46   H25   S    
C13   O13   A    
C7    C9    A    
C18   H1    S    
Cu1   N2    S    
C21   C37   S    
C20   C21   S    
Cu2   O11   S    
C16   C18   A    
C49   C50   S    
C30   H3    S    
C1    C27   S    
C51   O8    S    
C13   O15   A    
C14   C15   A    
C19   H12   S    
C1    O1    A    
C49   H35   S    
C30   H5    S    
C3    O7    S    
C21   H34   S    
