data_mof_unit_68344.cif
_audit_creation_date              2012-12-11T14:17:43-0500
_audit_creation_method            fapswitch 2.2
_symmetry_space_group_name_H-M    P1
_symmetry_Int_Tables_number       1
_space_group_crystal_system       triclinic
_cell_length_a                    11.741531
_cell_length_b                    11.89109
_cell_length_c                    18.574888
_cell_angle_alpha                 88.786621
_cell_angle_beta                  90.072172
_cell_angle_gamma                 118.394952
_cell_volume                      2280.77950071

loop_
_atom_site_label
_atom_site_type_symbol
_atom_type_description
_atom_site_fract_x
_atom_site_fract_y
_atom_site_fract_z
_atom_type_partial_charge
C1    C     C_R   0.528698 0.447988 0.143958 0.552193
C2    C     C_R   0.566304 0.102978 0.140562 0.583631
C3    C     C_R   0.941010 0.480903 0.150126 0.523354
C4    C     C_R   0.457358 0.521713 0.850966 0.525705
C5    C     C_R   0.086481 0.555692 0.858392 0.564649
C6    C     C_R   0.477578 0.932500 0.852159 0.561994
C7    C     C_R   0.388238 0.925793 0.450291 -0.209453
C8    C     C_R   0.917153 0.378474 0.476207 -0.182235
C9    C     C_R   0.613147 0.597778 0.461723 -0.165397
C10   C     C_R   0.934388 0.393184 0.550593 -0.197545
C11   C     C_R   0.373272 0.908269 0.525131 -0.186765
C12   C     C_R   0.601896 0.611121 0.536277 -0.165828
C13   C     C_R   0.716292 0.083425 0.577975 0.245061
C14   C     C_R   0.978590 0.711745 0.558871 0.230320
C15   C     C_R   0.358253 0.278772 0.568974 0.230194
C16   C     C_R   0.076189 0.720264 0.419479 0.239134
C17   C     C_R   0.712636 0.979886 0.442361 0.227931
C18   C     C_R   0.280953 0.353498 0.439619 0.232708
C19   C     C_R   0.818779 0.063006 0.555622 0.228288
C20   C     C_R   0.036921 0.826111 0.519352 0.246908
C21   C     C_R   0.236093 0.211416 0.541442 0.307201
C22   C     C_R   0.061735 0.822840 0.445560 0.226276
C23   C     C_R   0.825935 0.036017 0.482574 0.238684
C24   C     C_R   0.214689 0.232407 0.468663 0.314964
C25   C     C_R   0.521641 0.454180 0.353285 0.540703
C26   C     C_R   0.545146 0.060928 0.351643 0.514964
C27   C     C_R   0.927457 0.475022 0.354977 0.565732
C28   C     C_R   0.456600 0.522236 0.647230 0.530734
C29   C     C_R   0.062304 0.546742 0.648303 0.526113
C30   C     C_R   0.474401 0.925964 0.644445 0.578028
C31   C     C_R   0.501112 0.997184 0.921658 -0.040550
C32   C     C_R   0.053964 0.527724 0.938005 -0.063445
C33   C     C_R   0.520667 0.503657 0.916246 -0.046411
C34   C     C_R   0.036095 0.507056 0.089372 -0.023795
C35   C     C_R   0.536489 0.055196 0.067672 -0.023722
C36   C     C_R   0.530870 0.476160 0.065356 -0.060624
C37   C     C_R   0.399775 0.000318 0.963317 0.013018
C38   C     C_R   0.029047 0.413310 0.974345 -0.082089
C39   C     C_R   0.613082 0.608015 0.956015 -0.056974
C40   C     C_R   0.034687 0.406953 0.051064 -0.016874
C41   C     C_R   0.409773 0.996617 0.039759 -0.034342
C42   C     C_R   0.605535 0.599576 0.033303 -0.093837
C43   C     C_R   0.641432 0.078219 0.022861 0.242994
C44   C     C_R   0.108959 0.624994 0.055370 0.287058
C45   C     C_R   0.488229 0.370312 0.019382 0.246181
C46   C     C_R   0.089364 0.631523 0.981788 0.241996
C47   C     C_R   0.618530 0.024031 0.955958 0.231326
C48   C     C_R   0.485125 0.383721 0.944688 0.244625
C49   C     C_R   0.291239 0.007803 0.933713 0.430298
C50   C     C_R   0.002506 0.305601 0.936265 0.352682
C51   C     C_R   0.722165 0.712698 0.922591 0.333439
C52   C     C_R   0.051624 0.308206 0.084202 0.323117
C53   C     C_R   0.293582 0.945344 0.082917 0.394580
C54   C     C_R   0.690277 0.710279 0.072913 0.314167
C55   C     C_R   0.188912 0.986439 0.981001 -0.116148
C56   C     C_R   0.047437 0.226123 0.965637 -0.133058
C57   C     C_R   0.807815 0.809535 0.965567 -0.117697
C58   C     C_R   0.056396 0.218449 0.039919 -0.166294
C59   C     C_R   0.185228 0.942774 0.051600 -0.084077
C60   C     C_R   0.799214 0.801050 0.039219 -0.139964
C61   C     C_R   0.483032 0.969299 0.569496 0.025834
C62   C     C_R   0.989994 0.513137 0.579540 0.010625
C63   C     C_R   0.506947 0.506724 0.576691 0.005264
C64   C     C_R   0.972145 0.487017 0.429925 0.026840
C65   C     C_R   0.510503 0.987375 0.420542 0.010934
C66   C     C_R   0.507985 0.501055 0.424926 0.008871
C67   C     C_R   0.604738 0.029036 0.536679 -0.048289
C68   C     C_R   0.997528 0.611287 0.534280 -0.056716
C69   C     C_R   0.430701 0.399678 0.537689 -0.078938
C70   C     C_R   0.024816 0.607774 0.461490 -0.041621
C71   C     C_R   0.610450 0.999400 0.465375 -0.047212
C72   C     C_R   0.403522 0.424001 0.467330 -0.080684
Cr1   Cr    Cr6+3 0.768550 0.541320 0.250660 1.013957
Cr2   Cr    Cr6+3 0.458680 0.227230 0.250660 1.032180
Cr3   Cr    Cr6+3 0.772770 0.231450 0.250660 1.035833
Cr4   Cr    Cr6+3 0.541320 0.768550 0.749340 0.998564
Cr5   Cr    Cr6+3 0.227230 0.458680 0.749340 1.021598
Cr6   Cr    Cr6+3 0.231450 0.772770 0.749340 1.027772
H1    H     H_    0.106594 0.995828 0.963388 0.037279
H2    H     H_    0.059584 0.159022 0.933303 0.063806
H3    H     H_    0.892878 0.887403 0.941946 0.069272
H4    H     H_    0.060091 0.136776 0.063987 0.073892
H5    H     H_    0.099552 0.915889 0.084350 0.102334
H6    H     H_    0.877577 0.869745 0.071173 0.093210
H7    H     H_    0.308042 0.894664 0.415651 0.161746
H8    H     H_    0.858214 0.284063 0.455711 0.119851
H9    H     H_    0.698733 0.662233 0.433376 0.119669
H10   H     H_    0.904027 0.313266 0.585803 0.160648
H11   H     H_    0.278504 0.846300 0.547528 0.123233
H12   H     H_    0.665926 0.698359 0.561560 0.121123
O1    O     O_R   0.910960 0.572410 0.171010 -0.525763
O2    O     O_R   0.427590 0.338550 0.171010 -0.512517
O3    O     O_R   0.661450 0.089040 0.171010 -0.525899
O4    O     O_R   0.572410 0.910960 0.828990 -0.516447
O5    O     O_R   0.338550 0.427590 0.828990 -0.501484
O6    O     O_R   0.089040 0.661450 0.828990 -0.492632
O7    O     O_R   0.639750 0.528530 0.175600 -0.438057
O8    O     O_R   0.471470 0.111220 0.175600 -0.455151
O9    O     O_R   0.888780 0.360250 0.175600 -0.435799
O10   O     O_R   0.528530 0.639750 0.824400 -0.450561
O11   O     O_R   0.111220 0.471470 0.824400 -0.459832
O12   O     O_R   0.360250 0.888780 0.824400 -0.434567
O13   O     O_R   0.909330 0.572400 0.331540 -0.520844
O14   O     O_R   0.427600 0.336930 0.331540 -0.470905
O15   O     O_R   0.663070 0.090670 0.331540 -0.496058
O16   O     O_R   0.572400 0.909330 0.668460 -0.533038
O17   O     O_R   0.336930 0.427600 0.668460 -0.466956
O18   O     O_R   0.090670 0.663070 0.668460 -0.504622
O19   O     O_R   0.638240 0.528520 0.324410 -0.537890
O20   O     O_R   0.471480 0.109720 0.324410 -0.557356
O21   O     O_R   0.890280 0.361760 0.324410 -0.546111
O22   O     O_R   0.528520 0.638240 0.675590 -0.547108
O23   O     O_R   0.109720 0.471480 0.675590 -0.553803
O24   O     O_R   0.361760 0.890280 0.675590 -0.549039
O25   O     O_3   0.666667 0.333333 0.250630 -0.323836
O26   O     O_3   0.333333 0.666667 0.749370 -0.320371
O27   O     O_3   0.765717 0.137198 0.049008 -0.555062
C73   C     C_3   0.794051 0.042336 0.076559 -0.025487
H13   H     H_    0.708507 0.951813 0.092587 0.147742
H14   H     H_    0.854288 0.076320 0.125352 0.180144
H15   H     H_    0.847495 0.024183 0.034936 0.136094
O28   O     O_3   0.236249 0.691150 0.076210 -0.586676
C74   C     C_3   0.321253 0.660167 0.036508 -0.128539
H16   H     H_    0.282212 0.601410 0.988257 0.107916
H17   H     H_    0.405928 0.750003 0.017602 0.148768
H18   H     H_    0.353824 0.605600 0.071664 0.090992
O29   O     O_3   0.426282 0.250087 0.048556 -0.545678
C75   C     C_3   0.298623 0.226342 0.057010 -0.069819
H19   H     H_    0.252624 0.204209 0.003962 0.134482
H20   H     H_    0.288181 0.309327 0.075244 0.113164
H21   H     H_    0.250732 0.153600 0.100216 0.161027
O30   O     O_3   0.120880 0.744944 0.950496 -0.546346
C76   C     C_3   0.001308 0.740499 0.941946 -0.096838
H22   H     H_    0.976615 0.761704 0.995162 0.119814
H23   H     H_    0.920630 0.646846 0.926959 0.098631
H24   H     H_    0.009893 0.807815 0.898046 0.172376
O31   O     O_3   0.679292 0.951376 0.941591 -0.568101
C77   C     C_3   0.780314 0.011268 0.890278 -0.029302
H25   H     H_    0.868916 0.052449 0.917084 0.128207
H26   H     H_    0.769486 0.075365 0.851597 0.155901
H27   H     H_    0.783949 0.939485 0.855076 0.173325
O32   O     O_3   0.436746 0.276712 0.902500 -0.536275
C78   C     C_3   0.523185 0.294140 0.845094 -0.089438
H28   H     H_    0.624699 0.343366 0.862400 0.044805
H29   H     H_    0.507645 0.345057 0.798605 0.139225
H30   H     H_    0.506417 0.200276 0.825711 0.167369
O33   O     O_3   0.291667 0.037739 0.860353 -0.534327
C79   C     C_3   0.198819 0.073982 0.837725 -0.075331
H31   H     H_    0.217836 0.103827 0.780114 0.161542
H32   H     H_    0.209220 0.158179 0.866918 0.168496
H33   H     H_    0.099087 0.993545 0.841131 0.067138
O34   O     O_3   0.930811 0.275386 0.873092 -0.580837
C80   C     C_3   0.826918 0.306066 0.877205 -0.122215
H34   H     H_    0.794599 0.309963 0.933036 0.138568
H35   H     H_    0.739798 0.233836 0.850828 0.075046
H36   H     H_    0.850958 0.395786 0.846984 0.108264
O35   O     O_3   0.756360 0.724221 0.849803 -0.574844
C81   C     C_3   0.763896 0.617094 0.823755 -0.130256
H37   H     H_    0.753845 0.545567 0.865624 0.060673
H38   H     H_    0.858822 0.650957 0.796415 0.161978
H39   H     H_    0.687949 0.568593 0.783241 0.129821
O36   O     O_3   0.061851 0.293423 0.157934 -0.567730
C82   C     C_3   0.175199 0.395542 0.185415 -0.096142
H40   H     H_    0.154389 0.470653 0.206103 0.127096
H41   H     H_    0.256411 0.438681 0.146220 0.080575
H42   H     H_    0.208549 0.358239 0.231377 0.199291
O37   O     O_3   0.277739 0.906298 0.155879 -0.567746
C83   C     C_3   0.354795 0.851242 0.181414 -0.059005
H43   H     H_    0.425725 0.856163 0.142367 0.113354
H44   H     H_    0.294697 0.749103 0.196578 0.136583
H45   H     H_    0.405014 0.898413 0.231306 0.130437
O38   O     O_3   0.680498 0.733714 0.144944 -0.546571
C84   C     C_3   0.563133 0.733060 0.159273 -0.131219
H46   H     H_    0.532353 0.768735 0.112211 0.086158
H47   H     H_    0.578544 0.798928 0.203910 0.131914
H48   H     H_    0.486628 0.636947 0.176590 0.114474
O39   O     O_3   0.713954 0.153502 0.637162 -0.616753
C85   C     C_3   0.782891 0.150668 0.698695 -0.061513
H49   H     H_    0.729201 0.159043 0.744901 0.120546
H50   H     H_    0.880086 0.234566 0.699792 0.131712
H51   H     H_    0.785817 0.060364 0.708824 0.170880
O40   O     O_3   0.916973 0.708420 0.623702 -0.580143
C86   C     C_3   0.806281 0.589662 0.638083 -0.137540
H52   H     H_    0.828629 0.532786 0.678209 0.126518
H53   H     H_    0.763395 0.532034 0.589375 0.125292
H54   H     H_    0.732301 0.608885 0.662966 0.133061
O41   O     O_3   0.383137 0.244343 0.636771 -0.551501
C87   C     C_3   0.508489 0.256280 0.638660 -0.114361
H55   H     H_    0.539260 0.233869 0.586510 0.135037
H56   H     H_    0.508990 0.187913 0.680025 0.167223
H57   H     H_    0.579423 0.353366 0.655575 0.097164
O42   O     O_3   0.144099 0.723103 0.356871 -0.621321
C88   C     C_3   0.133507 0.793920 0.297794 -0.039141
H58   H     H_    0.130332 0.741577 0.249127 0.176378
H59   H     H_    0.216856 0.891326 0.295273 0.147346
H60   H     H_    0.041558 0.795800 0.292960 0.164545
O43   O     O_3   0.712795 0.921768 0.377824 -0.580941
C89   C     C_3   0.594594 0.810624 0.364760 -0.130350
H61   H     H_    0.537909 0.763516 0.414582 0.120134
H62   H     H_    0.616402 0.741752 0.336763 0.143225
H63   H     H_    0.534216 0.832736 0.327217 0.121980
O44   O     O_3   0.244115 0.381799 0.373511 -0.566357
C90   C     C_3   0.257126 0.506244 0.373145 -0.132844
H64   H     H_    0.354347 0.576792 0.352760 0.106699
H65   H     H_    0.238159 0.534928 0.426746 0.125031
H66   H     H_    0.185816 0.509259 0.335196 0.157616
O45   O     O_3   0.896760 0.048298 0.605929 -0.550419
C91   C     C_3   0.844943 0.917682 0.624162 -0.049438
H67   H     H_    0.846511 0.864374 0.576720 0.185853
H68   H     H_    0.745269 0.874697 0.645206 0.129428
H69   H     H_    0.903189 0.906560 0.667864 0.166626
O46   O     O_3   0.069714 0.940685 0.551885 -0.488578
C92   C     C_3   0.149686 0.956617 0.612982 -0.024043
H70   H     H_    0.252424 0.016014 0.597850 0.134579
H71   H     H_    0.142277 0.869867 0.638587 0.164823
H72   H     H_    0.125534 0.003706 0.656657 0.178804
O47   O     O_3   0.140245 0.181600 0.590928 -0.488225
C93   C     C_3   0.103417 0.277169 0.587353 -0.012483
H73   H     H_    0.041876 0.259721 0.539891 0.134501
H74   H     H_    0.183588 0.376219 0.579900 0.108840
H75   H     H_    0.050736 0.268512 0.637570 0.188526
O48   O     O_3   0.046472 0.904223 0.398043 -0.540926
C94   C     C_3   0.914692 0.849663 0.380563 -0.053335
H76   H     H_    0.858817 0.848229 0.428534 0.186745
H77   H     H_    0.874092 0.750937 0.360970 0.111194
H78   H     H_    0.903759 0.907092 0.336075 0.180445
O49   O     O_3   0.943883 0.070337 0.450435 -0.486577
C95   C     C_3   0.963570 0.152621 0.389245 -0.018233
H79   H     H_    0.018428 0.252889 0.405351 0.140560
H80   H     H_    0.876879 0.143388 0.361775 0.163063
H81   H     H_    0.018849 0.134741 0.346856 0.199205
O50   O     O_3   0.185421 0.138630 0.420381 -0.476334
C96   C     C_3   0.283564 0.104283 0.421754 -0.017550
H82   H     H_    0.268798 0.043987 0.469979 0.129511
H83   H     H_    0.383433 0.185268 0.424593 0.106531
H84   H     H_    0.272548 0.050685 0.372668 0.193615

loop_
_geom_bond_atom_site_label_1
_geom_bond_atom_site_label_2
_ccdc_geom_bond_type
C2    C35   S    
C78   H30   S    
C81   H38   S    
C90   H64   S    
O35   C81   S    
C55   C59   A    
Cr6   O12   S    
C36   C42   A    
C94   H76   S    
C79   H33   S    
O33   C79   S    
C75   H19   S    
C95   H80   S    
C85   H49   S    
C53   C59   A    
C94   H78   S    
C74   H16   S    
Cr2   O8    S    
C54   C60   A    
C92   H70   S    
C28   O22   A    
Cr1   O7    S    
C90   H65   S    
C10   H10   S    
C17   C23   A    
C87   H57   S    
C34   C40   A    
C3    O1    A    
C82   H41   S    
C79   H32   S    
C42   C54   A    
C58   H4    S    
C13   C67   A    
C83   H44   S    
C74   H17   S    
C4    C33   S    
C28   O17   A    
C78   H28   S    
Cr4   O26   S    
C37   C49   A    
C49   O33   S    
C14   C20   A    
C87   H56   S    
Cr2   O2    S    
C11   H11   S    
C73   H13   S    
C20   O46   S    
C29   O23   A    
C16   O42   S    
C81   H39   S    
Cr4   O4    S    
C39   C51   A    
C9    C66   A    
Cr5   O11   S    
C53   O37   S    
C83   H45   S    
C66   C72   A    
C82   H40   S    
Cr6   O6    S    
O30   C76   S    
C88   H59   S    
C76   H24   S    
Cr4   O16   S    
C29   O18   A    
C17   O43   S    
C89   H61   S    
C51   C57   A    
C32   C38   A    
C80   H35   S    
Cr5   O26   S    
C35   C43   A    
C96   H82   S    
C26   O20   A    
C67   C71   A    
C88   H58   S    
C25   O19   A    
C5    C32   S    
C84   H47   S    
C6    C31   S    
C27   O21   A    
C50   O34   S    
C31   C47   A    
C30   O16   A    
Cr6   O18   S    
C19   O45   S    
C10   C62   A    
Cr5   O23   S    
C26   O15   A    
C95   H79   S    
C14   O40   S    
C44   C46   A    
C39   C42   A    
C92   H71   S    
C18   C72   A    
C15   C69   A    
C90   H66   S    
C5    O11   A    
O44   C90   S    
C13   C19   A    
O45   C91   S    
C63   C69   A    
Cr5   O17   S    
C82   H42   S    
C16   C70   A    
C79   H31   S    
Cr1   O1    S    
C27   C64   S    
C86   H54   S    
C1    O7    A    
O37   C83   S    
C12   C63   A    
C19   C23   A    
C91   H67   S    
C57   C60   A    
C22   O48   S    
C3    C34   S    
C6    O4    A    
O47   C93   S    
C65   C71   A    
C15   O41   S    
Cr5   O5    S    
C50   C56   A    
C31   C37   A    
C87   H55   S    
C73   H15   S    
C69   C72   A    
C7    C11   A    
C86   H52   S    
C11   C61   A    
C59   H5    S    
C54   O38   S    
C7    C65   A    
C4    O5    A    
C55   H1    S    
C96   H84   S    
C61   C67   A    
C93   H74   S    
O49   C95   S    
Cr1   O13   S    
Cr4   O22   S    
C88   H60   S    
C49   C55   A    
C47   O31   S    
C89   H63   S    
Cr3   O9    S    
C48   O32   S    
C36   C45   A    
C18   O44   S    
C33   C39   A    
O34   C80   S    
C80   H36   S    
C33   C48   A    
C96   H83   S    
C41   C53   A    
C52   C58   A    
C43   O27   S    
C46   O30   S    
C8    C10   A    
C83   H43   S    
C8    C64   A    
C17   C71   A    
C1    O2    A    
C64   C70   A    
C4    O10   A    
C76   H22   S    
C77   H26   S    
C18   C24   A    
C21   C24   A    
Cr3   O25   S    
O29   C75   S    
C75   H21   S    
C5    O6    A    
O38   C84   S    
Cr3   O3    S    
C93   H75   S    
Cr2   O14   S    
O36   C82   S    
C30   O24   A    
C45   C48   A    
C12   H12   S    
C78   H29   S    
C34   C44   A    
C92   H72   S    
C29   C62   S    
Cr6   O24   S    
C16   C22   A    
C26   C65   S    
C32   C46   A    
C2    O3    A    
Cr6   O26   S    
C25   C66   S    
C57   H3    S    
C20   C22   A    
C89   H62   S    
C74   H18   S    
C77   H27   S    
C75   H20   S    
Cr2   O20   S    
C85   H50   S    
C94   H77   S    
C25   O14   A    
Cr1   O19   S    
C38   C50   A    
Cr4   O10   S    
O31   C77   S    
Cr3   O21   S    
C56   H2    S    
C62   C68   A    
C23   O49   S    
C27   O13   A    
C86   H53   S    
O28   C74   S    
O41   C87   S    
C40   C52   A    
Cr1   O25   S    
O42   C88   S    
C38   C40   A    
C60   H6    S    
C93   H73   S    
C81   H37   S    
C45   O29   S    
C91   H69   S    
C13   O39   S    
Cr2   O25   S    
C44   O28   S    
O50   C96   S    
C84   H48   S    
C56   C58   A    
C8    H8    S    
C6    O12   A    
C37   C41   A    
O43   C89   S    
C35   C41   A    
C9    C12   A    
C73   H14   S    
C85   H51   S    
C77   H25   S    
C84   H46   S    
C28   C63   S    
C3    O9    A    
C15   C21   A    
C7    H7    S    
O46   C92   S    
C2    O8    A    
C91   H68   S    
O39   C85   S    
C30   C61   S    
C52   O36   S    
C76   H23   S    
C68   C70   A    
C14   C68   A    
O32   C78   S    
C21   O47   S    
Cr3   O15   S    
C80   H34   S    
O27   C73   S    
C43   C47   A    
O48   C94   S    
C95   H81   S    
C9    H9    S    
C51   O35   S    
O40   C86   S    
C1    C36   S    
C24   O50   S    
