data_mof_unit_16587.cif
_audit_creation_date              2012-12-11T15:33:51-0500
_audit_creation_method            fapswitch 2.2
_symmetry_space_group_name_H-M    P1
_symmetry_Int_Tables_number       1
_space_group_crystal_system       triclinic
_cell_length_a                    27.017032
_cell_length_b                    7.193423
_cell_length_c                    22.786667
_cell_angle_alpha                 90.143044
_cell_angle_beta                  101.338161
_cell_angle_gamma                 90.165842
_cell_volume                      4342.00762448

loop_
_atom_site_label
_atom_site_type_symbol
_atom_type_description
_atom_site_fract_x
_atom_site_fract_y
_atom_site_fract_z
_atom_type_partial_charge
O1    O     O_R   0.207310 0.594030 0.676830 -0.532531
O2    O     O_R   0.792690 0.405970 0.323170 -0.536909
O3    O     O_R   0.292690 0.094030 0.823170 -0.530868
O4    O     O_R   0.707310 0.905970 0.176830 -0.532235
O5    O     O_R   0.197320 0.262370 0.795700 -0.539342
O6    O     O_R   0.802680 0.737630 0.204300 -0.539475
O7    O     O_R   0.302680 0.762370 0.704300 -0.539670
O8    O     O_R   0.697320 0.237630 0.295700 -0.538884
C1    C     C_R   0.184689 0.432453 0.812022 0.676536
C2    C     C_R   0.815354 0.567537 0.188046 0.683236
C3    C     C_R   0.315288 0.932524 0.687969 0.671562
C4    C     C_R   0.684669 0.067465 0.311974 0.671837
O9    O     O_R   0.201410 0.264250 0.675590 -0.531417
O10   O     O_R   0.798590 0.735750 0.324410 -0.536712
O11   O     O_R   0.298590 0.764250 0.824410 -0.529262
O12   O     O_R   0.701410 0.235750 0.175590 -0.531171
O13   O     O_R   0.296810 0.094940 0.702210 -0.540396
O14   O     O_R   0.703190 0.905060 0.297790 -0.539204
O15   O     O_R   0.203190 0.594940 0.797790 -0.540154
O16   O     O_R   0.796810 0.405060 0.202210 -0.538987
C5    C     C_R   0.189778 0.431525 0.653134 0.716812
C6    C     C_R   0.810131 0.568907 0.347049 0.725036
C7    C     C_R   0.309914 0.932177 0.846914 0.714205
C8    C     C_R   0.690138 0.067890 0.153064 0.722556
O17   O     O_3   0.281300 0.427390 0.758870 -0.368950
O18   O     O_3   0.718700 0.572610 0.241130 -0.368218
O19   O     O_3   0.218700 0.927390 0.741130 -0.370215
O20   O     O_3   0.781300 0.072610 0.258870 -0.374536
V1    V     V_3+5 0.244190 0.152150 0.748350 1.439771
V2    V     V_3+5 0.755810 0.847850 0.251650 1.414383
V3    V     V_3+5 0.255810 0.652150 0.751650 1.441113
V4    V     V_3+5 0.744190 0.347850 0.248350 1.423637
C9    C     C_R   0.655617 0.069671 0.094171 -0.126885
C10   C     C_R   0.344481 0.931530 0.905810 -0.114318
C11   C     C_R   0.846079 0.577789 0.405405 -0.124583
C12   C     C_R   0.155737 0.429696 0.593629 -0.120171
C13   C     C_R   0.633000 0.235491 0.000310 0.462885
C14   C     C_R   0.366246 0.782481 0.002782 0.462905
C15   C     C_R   0.873447 0.774889 0.492619 0.420867
C16   C     C_R   0.135747 0.290019 0.494676 0.456492
C17   C     C_R   0.669179 0.178321 0.049203 -0.227779
C18   C     C_R   0.330886 0.826089 0.951515 -0.206637
C19   C     C_R   0.835547 0.707378 0.446986 -0.243326
C20   C     C_R   0.169588 0.322770 0.548325 -0.217050
C21   C     C_R   0.606207 0.999665 0.086542 -0.194220
C22   C     C_R   0.393712 0.003525 0.913334 -0.181042
C23   C     C_R   0.895063 0.503438 0.413041 -0.235668
C24   C     C_R   0.107347 0.509122 0.584039 -0.194466
C25   C     C_R   0.569672 0.036416 0.033639 0.022391
C26   C     C_R   0.430273 0.969320 0.966424 0.032452
C27   C     C_R   0.935674 0.575885 0.457349 0.025071
C28   C     C_R   0.073416 0.493356 0.527653 0.025283
C29   C     C_R   0.582928 0.167763 0.992864 0.021179
C30   C     C_R   0.416857 0.842058 0.008133 0.014078
C31   C     C_R   0.923354 0.709563 0.498225 0.025091
C32   C     C_R   0.088051 0.377875 0.483547 0.004718
C33   C     C_R   0.519174 0.961131 0.022606 0.027160
C34   C     C_R   0.480895 0.043066 0.976942 0.034807
C35   C     C_R   0.987920 0.521707 0.462842 0.026639
C36   C     C_R   0.024369 0.579232 0.514871 0.031102
C37   C     C_R   0.494796 0.197096 0.944493 -0.058709
C38   C     C_R   0.505218 0.806215 0.054732 -0.055674
C39   C     C_R   0.011105 0.728528 0.549625 -0.065798
C40   C     C_R   0.006659 0.424707 0.417168 -0.060680
C41   C     C_R   0.545347 0.243744 0.948631 -0.208425
C42   C     C_R   0.454583 0.761084 0.051013 -0.210935
C43   C     C_R   0.961294 0.786639 0.542168 -0.203790
C44   C     C_R   0.055472 0.353198 0.428373 -0.223712
H1    H     H_    0.554662 0.354211 0.920327 0.153982
H2    H     H_    0.445032 0.648937 0.078603 0.163105
H3    H     H_    0.952477 0.898974 0.570247 0.172666
H4    H     H_    0.068344 0.278197 0.392830 0.166027
H5    H     H_    0.404059 0.067924 0.874769 0.129613
H6    H     H_    0.595849 0.933580 0.124817 0.136555
H7    H     H_    0.095829 0.570730 0.622387 0.137273
H8    H     H_    0.900174 0.391858 0.383364 0.142005
H9    H     H_    0.293206 0.767569 0.945815 0.132189
H10   H     H_    0.707340 0.231959 0.054622 0.133367
H11   H     H_    0.206344 0.257070 0.555659 0.135602
H12   H     H_    0.797990 0.765860 0.441742 0.130076
C45   C     C_R   0.629726 0.881585 0.367958 -0.153807
C46   C     C_R   0.370027 0.118365 0.631713 -0.153084
C47   C     C_R   0.870649 0.381707 0.132624 -0.135202
C48   C     C_R   0.130014 0.618212 0.868304 -0.153747
H13   H     H_    0.645081 0.753883 0.353851 0.126075
H14   H     H_    0.354670 0.246070 0.645815 0.125416
H15   H     H_    0.855490 0.253965 0.147050 0.123914
H16   H     H_    0.145388 0.745957 0.854173 0.125058
C49   C     C_R   0.593783 0.868617 0.404431 -0.135024
C50   C     C_R   0.405880 0.131314 0.595123 -0.133177
C51   C     C_R   0.906634 0.368716 0.096217 -0.127250
C52   C     C_R   0.094209 0.631163 0.904950 -0.135213
H17   H     H_    0.582765 0.731836 0.417042 0.134578
H18   H     H_    0.416838 0.268086 0.582431 0.134700
H19   H     H_    0.917867 0.231881 0.083961 0.133832
H20   H     H_    0.083308 0.767964 0.917650 0.134609
C53   C     C_R   0.572542 0.029303 0.424436 0.019144
C54   C     C_R   0.427121 0.970626 0.575120 0.018984
C55   C     C_R   0.927636 0.529427 0.075816 0.018235
C56   C     C_R   0.072954 0.470453 0.925010 0.019155
C57   C     C_R   0.588214 0.203733 0.406619 -0.130705
C58   C     C_R   0.411516 0.796207 0.593029 -0.129569
C59   C     C_R   0.911702 0.703929 0.093207 -0.125677
C60   C     C_R   0.088493 0.295994 0.907090 -0.129848
H21   H     H_    0.572738 0.330718 0.421067 0.139853
H22   H     H_    0.426987 0.669219 0.578576 0.140174
H23   H     H_    0.926993 0.830941 0.078451 0.140365
H24   H     H_    0.073005 0.168987 0.921581 0.140079
C61   C     C_R   0.624254 0.216841 0.370005 -0.154188
C62   C     C_R   0.375566 0.783117 0.629760 -0.153243
C63   C     C_R   0.875612 0.717060 0.129753 -0.149132
C64   C     C_R   0.124396 0.282901 0.870292 -0.152935
H25   H     H_    0.635443 0.353495 0.357492 0.122683
H26   H     H_    0.364432 0.646473 0.642348 0.122521
H27   H     H_    0.864197 0.853741 0.141911 0.121838
H28   H     H_    0.135484 0.146244 0.857697 0.121970
C65   C     C_R   0.645652 0.055806 0.350196 -0.046906
C66   C     C_R   0.354198 0.944160 0.649605 -0.046934
C67   C     C_R   0.854434 0.555979 0.149920 -0.040003
C68   C     C_R   0.145786 0.443981 0.850404 -0.045928
N1    N     N_R   0.513857 0.168627 0.483479 -0.277129
N2    N     N_R   0.485760 0.831291 0.516019 -0.276885
N3    N     N_R   0.986222 0.668669 0.016554 -0.275941
N4    N     N_R   0.014461 0.331185 0.984395 -0.276237
N5    N     N_R   0.479965 0.154657 0.518673 -0.282047
N6    N     N_R   0.519652 0.845260 0.480823 -0.282405
N7    N     N_R   0.020087 0.654621 0.981332 -0.281929
N8    N     N_R   0.980600 0.345233 0.019623 -0.280859
C69   C     C_R   0.465118 0.985716 0.535790 0.516992
C70   C     C_R   0.534503 0.014203 0.463711 0.515990
C71   C     C_R   0.035002 0.485604 0.964398 0.516484
C72   C     C_R   0.965675 0.514252 0.036543 0.518927
O21   O     O_3   0.647192 0.357750 0.959678 -0.559539
C73   C     C_3   0.640408 0.543652 0.977356 0.087831
H29   H     H_    0.608521 0.561391 0.001414 0.124771
H30   H     H_    0.630789 0.628613 0.936082 0.154388
C74   C     C_3   0.688929 0.622321 0.015146 -0.708156
H31   H     H_    0.721593 0.590596 0.993924 0.233350
H32   H     H_    0.685646 0.775404 0.018898 0.194205
H33   H     H_    0.695544 0.563062 0.060926 0.209672
O22   O     O_3   0.352055 0.662133 0.043855 -0.560841
C75   C     C_3   0.343348 0.764173 0.094025 0.072253
H34   H     H_    0.369440 0.885022 0.105925 0.113191
H35   H     H_    0.350314 0.670022 0.133311 0.155618
C76   C     C_3   0.288613 0.828893 0.084482 -0.721834
H36   H     H_    0.262662 0.708748 0.072444 0.234963
H37   H     H_    0.281313 0.893340 0.126273 0.194853
H38   H     H_    0.281056 0.933672 0.048167 0.211902
O23   O     O_3   0.861605 0.908242 0.531496 -0.552612
C77   C     C_3   0.860102 0.083942 0.503530 0.072240
H39   H     H_    0.827128 0.092945 0.465690 0.125558
H40   H     H_    0.895421 0.112206 0.486577 0.118863
C78   C     C_3   0.854869 0.234374 0.548882 -0.649189
H41   H     H_    0.887844 0.231174 0.586650 0.222199
H42   H     H_    0.853152 0.372919 0.527316 0.187567
H43   H     H_    0.819752 0.212024 0.566386 0.229387
O24   O     O_3   0.150559 0.175182 0.452470 -0.561032
C79   C     C_3   0.132022 0.992699 0.457814 0.088001
H44   H     H_    0.126510 0.925971 0.412992 0.156043
H45   H     H_    0.094522 0.988361 0.471423 0.116519
C80   C     C_3   0.170124 0.877038 0.500950 -0.710372
H46   H     H_    0.171821 0.923899 0.547753 0.220899
H47   H     H_    0.158499 0.728768 0.497406 0.196028
H48   H     H_    0.208161 0.889647 0.489705 0.231047
C81   C     C_1   0.458814 0.329307 0.913178 0.294835
N9    N     N_1   0.430274 0.436338 0.888397 -0.346329
C82   C     C_1   0.541073 0.673400 0.085916 0.270426
N10   N     N_1   0.569489 0.565945 0.110684 -0.360739
C83   C     C_1   0.048125 0.849130 0.585655 0.275686
N11   N     N_1   0.077564 0.946816 0.614201 -0.356557
C84   C     C_1   0.981181 0.421100 0.355124 0.290201
N12   N     N_1   0.961212 0.418390 0.305269 -0.355131

loop_
_geom_bond_atom_site_label_1
_geom_bond_atom_site_label_2
_ccdc_geom_bond_type
O17   V3    S    
C55   C59   A    
C84   N12   T    
O1    C5    A    
C81   N9    T    
N3    C72   A    
O19   V1    S    
C9    C21   A    
C83   N11   T    
O3    C7    A    
C10   C18   A    
O1    V3    S    
N1    C70   A    
O15   V3    S    
C62   C66   A    
C73   C74   S    
C76   H36   S    
C56   C71   S    
C61   C65   A    
C33   C38   A    
C5    C12   S    
C42   H2    S    
O7    C3    A    
C6    C11   S    
C74   H32   S    
C35   C40   A    
O24   C79   S    
C55   C72   S    
C36   C39   A    
C40   C44   A    
O2    V4    S    
O9    V1    S    
C37   C81   S    
C23   H8    S    
C14   C18   A    
O4    C8    A    
C25   C29   A    
C39   C83   S    
N6    C70   A    
C57   C61   A    
C45   C65   A    
C60   H24   S    
C52   H20   S    
O13   V1    S    
C31   C43   A    
C59   C63   A    
C47   C67   A    
O3    V1    S    
C2    C67   S    
C28   C36   A    
C79   C80   S    
C76   H37   S    
N1    N5    A    
C1    O15   A    
C56   C60   A    
C15   C31   A    
C2    O16   A    
C16   C32   A    
C77   C78   S    
O2    C6    A    
C50   H18   S    
C10   C22   A    
C78   H42   S    
C11   C19   A    
C62   H26   S    
N2    C69   A    
C27   C31   A    
C48   C68   A    
N4    N8    A    
C13   C29   A    
C34   C37   A    
O11   C7    A    
C38   C82   S    
C11   C23   A    
C35   C36   A    
O12   C8    A    
C79   H45   S    
C24   H7    S    
O10   V2    S    
N8    C72   A    
C80   H47   S    
C45   H13   S    
C80   H46   S    
O5    V1    S    
C57   H21   S    
C74   H33   S    
C39   C43   A    
O7    V3    S    
C38   C42   A    
C26   C34   A    
C16   O24   S    
C44   H4    S    
C82   N10   T    
C64   C68   A    
O18   V4    S    
C15   C19   A    
C19   H12   S    
C32   C44   A    
C49   H17   S    
O4    V2    S    
N4    C71   A    
C49   C53   A    
C21   H6    S    
O8    V4    S    
N2    N6    A    
O5    C1    A    
C17   H10   S    
C37   C41   A    
C63   H27   S    
N3    N7    A    
C14   C30   A    
C21   C25   A    
O8    C4    A    
C7    C10   S    
C75   C76   S    
O9    C5    A    
C26   C30   A    
C78   H43   S    
C75   H35   S    
O14   V2    S    
C63   C67   A    
O6    V2    S    
C16   C20   A    
O21   C73   S    
C14   O22   S    
C77   H40   S    
C12   C20   A    
C27   C35   A    
C46   C66   A    
C64   H28   S    
C80   H48   S    
C29   C41   A    
C76   H38   S    
C52   C56   A    
C60   C64   A    
O16   V4    S    
C15   O23   S    
C3    O13   A    
C75   H34   S    
C20   H11   S    
C48   H16   S    
C47   H15   S    
C53   C70   S    
C25   C33   A    
C23   C27   A    
O11   V3    S    
C73   H29   S    
C30   C42   A    
C61   H25   S    
O12   V4    S    
C47   C51   A    
C74   H31   S    
C22   C26   A    
C8    C9    S    
C46   C50   A    
C9    C17   A    
O10   C6    A    
C40   C84   S    
O20   V2    S    
C45   C49   A    
C54   C58   A    
O22   C75   S    
C46   H14   S    
C33   C34   A    
C79   H44   S    
C41   H1    S    
C54   C69   S    
C73   H30   S    
C12   C24   A    
C43   H3    S    
C13   C17   A    
C13   O21   S    
N7    C71   A    
C58   C62   A    
O6    C2    A    
C51   H19   S    
C4    C65   S    
N5    C69   A    
C24   C28   A    
C18   H9    S    
C58   H22   S    
C4    O14   A    
C1    C68   S    
C77   H39   S    
C59   H23   S    
C48   C52   A    
C51   C55   A    
C78   H41   S    
O23   C77   S    
C3    C66   S    
C50   C54   A    
C22   H5    S    
C53   C57   A    
C28   C32   A    
