data_mof_unit_41265.cif
_audit_creation_date              2012-12-10T17:51:23-0500
_audit_creation_method            fapswitch 2.2
_symmetry_space_group_name_H-M    P1
_symmetry_Int_Tables_number       1
_space_group_crystal_system       triclinic
_cell_length_a                    14.691888
_cell_length_b                    14.747733
_cell_length_c                    17.357576
_cell_angle_alpha                 105.805647
_cell_angle_beta                  73.178454
_cell_angle_gamma                 114.896206
_cell_volume                      3215.97508611

loop_
_atom_site_label
_atom_site_type_symbol
_atom_type_description
_atom_site_fract_x
_atom_site_fract_y
_atom_site_fract_z
_atom_type_partial_charge
C1    C     C_R   0.118755 0.687931 0.513133 0.801669
C2    C     C_R   0.881317 0.312016 0.485570 0.803214
C3    C     C_R   0.186158 0.794997 0.514416 -0.053650
C4    C     C_R   0.814650 0.204280 0.474597 -0.053108
C5    C     C_R   0.215443 0.968817 0.513577 -0.198116
C6    C     C_R   0.788593 0.026273 0.447439 -0.197763
C7    C     C_R   0.148136 0.869426 0.519528 -0.193842
C8    C     C_R   0.854192 0.127754 0.455901 -0.194794
C9    C     C_R   0.291438 0.821174 0.504749 -0.247942
C10   C     C_R   0.709574 0.178319 0.482774 -0.253857
C11   C     C_R   0.361293 0.919527 0.494570 0.090959
C12   C     C_R   0.642210 0.076577 0.471908 0.089676
C13   C     C_R   0.321479 0.994338 0.500908 0.162631
C14   C     C_R   0.683028 0.000201 0.456357 0.164053
C15   C     C_R   0.469153 0.945607 0.479223 0.064600
C16   C     C_R   0.535267 0.048979 0.478786 0.065360
C17   C     C_R   0.492540 0.120920 0.483730 -0.220274
C18   C     C_R   0.513198 0.871580 0.462454 -0.221774
C19   C     C_R   0.387725 0.093654 0.494035 -0.230386
C20   C     C_R   0.618183 0.898639 0.450424 -0.228633
C21   C     C_R   0.290591 0.323129 0.366010 0.075637
C22   C     C_R   0.708732 0.675974 0.634792 0.076820
C23   C     C_R   0.988887 0.501979 0.652390 0.794857
C24   C     C_R   0.011144 0.498075 0.347617 0.794540
C25   C     C_R   0.209079 0.356507 0.386685 0.062110
C26   C     C_R   0.790441 0.642856 0.613884 0.062284
C27   C     C_R   0.286969 0.491163 0.486485 -0.019957
C28   C     C_R   0.713284 0.509130 0.513217 -0.018573
C29   C     C_R   0.373440 0.463235 0.468586 -0.061393
C30   C     C_R   0.626642 0.536820 0.531309 -0.062203
C31   C     C_R   0.373500 0.376553 0.407545 0.143422
C32   C     C_R   0.626220 0.623041 0.592785 0.142126
C33   C     C_R   0.458429 0.517222 0.509764 0.093305
C34   C     C_R   0.541729 0.482921 0.490043 0.096883
C35   C     C_R   0.537100 0.395523 0.429998 -0.248450
C36   C     C_R   0.463016 0.604562 0.569874 -0.246889
C37   C     C_R   0.455654 0.344298 0.389738 -0.204650
C38   C     C_R   0.544109 0.655341 0.610552 -0.195435
C39   C     C_R   0.980932 0.498530 0.737425 -0.031612
C40   C     C_R   0.019225 0.501756 0.262615 -0.030541
C41   C     C_R   0.047147 0.466104 0.757129 -0.205330
C42   C     C_R   0.953124 0.534384 0.242967 -0.205439
C43   C     C_R   0.039421 0.461551 0.837598 -0.147045
C44   C     C_R   0.961008 0.539226 0.162540 -0.147389
C45   C     C_R   0.966173 0.490717 0.899652 0.191239
C46   C     C_R   0.034295 0.510145 0.100468 0.191502
C47   C     C_R   0.898272 0.520596 0.879935 -0.168802
C48   C     C_R   0.102100 0.480086 0.120136 -0.168645
C49   C     C_R   0.905804 0.524980 0.799217 -0.192041
C50   C     C_R   0.094414 0.475417 0.200815 -0.191580
C51   C     C_2   0.958931 0.490567 0.985450 -0.229121
C52   C     C_2   0.041590 0.510446 0.014692 -0.229161
Cu1   Cu    Cu3+1 0.916740 0.524770 0.521640 0.935757
Cu2   Cu    Cu3+1 0.083260 0.475230 0.478360 0.936001
H1    H     H_    0.538288 0.198779 0.477243 0.141777
H2    H     H_    0.469049 0.791244 0.455684 0.146782
H3    H     H_    0.457950 0.278020 0.344334 0.160705
H4    H     H_    0.541603 0.721335 0.656237 0.159557
H5    H     H_    0.721806 0.447235 0.465735 0.133150
H6    H     H_    0.278775 0.553480 0.533598 0.133035
H7    H     H_    0.854755 0.682650 0.644408 0.130866
H8    H     H_    0.144496 0.316362 0.356485 0.130161
H9    H     H_    0.595439 0.363673 0.412459 0.129119
H10   H     H_    0.404803 0.636566 0.587298 0.131974
H11   H     H_    0.146901 0.450856 0.214644 0.154051
H12   H     H_    0.853243 0.549409 0.785352 0.154029
H13   H     H_    0.116390 0.524628 0.974601 0.146171
H14   H     H_    0.884132 0.476379 0.025542 0.146207
H15   H     H_    0.840687 0.542261 0.927211 0.125429
H16   H     H_    0.159711 0.458478 0.072846 0.125528
H17   H     H_    0.910433 0.566758 0.149430 0.125462
H18   H     H_    0.090067 0.434149 0.850751 0.125976
H19   H     H_    0.358315 0.151081 0.497184 0.151557
H20   H     H_    0.648652 0.839502 0.437604 0.148344
H21   H     H_    0.681560 0.239146 0.500154 0.150765
H22   H     H_    0.316881 0.763224 0.506207 0.144567
H23   H     H_    0.935385 0.146257 0.449046 0.153945
H24   H     H_    0.066793 0.850637 0.526990 0.155004
H25   H     H_    0.184707 0.025546 0.517798 0.134603
H26   H     H_    0.820282 0.968090 0.434576 0.133903
N1    N     N_R   0.208390 0.438070 0.445820 -0.198195
N2    N     N_R   0.791610 0.561930 0.554180 -0.198639
O1    O     O_R   0.020090 0.662480 0.528530 -0.590665
O2    O     O_R   0.979910 0.337520 0.471470 -0.590707
O3    O     O_R   0.160710 0.620650 0.491980 -0.587520
O4    O     O_R   0.839290 0.379350 0.508020 -0.588072
O5    O     O_R   0.921540 0.523360 0.633990 -0.587462
O6    O     O_R   0.078460 0.476640 0.366010 -0.587562
O7    O     O_R   0.062170 0.481520 0.597440 -0.588078
O8    O     O_R   0.937830 0.518480 0.402560 -0.588871
H27   H     H_    0.104542 0.443512 0.710400 0.156503
H28   H     H_    0.895698 0.556914 0.289708 0.155841
C53   C     C_3   0.286470 0.230575 0.300745 -0.925576
H29   H     H_    0.215940 0.199429 0.275256 0.231026
H30   H     H_    0.353290 0.250639 0.249628 0.242985
H31   H     H_    0.287119 0.170051 0.326902 0.240358
C54   C     C_3   0.712137 0.767610 0.700926 -0.923287
H32   H     H_    0.782288 0.798267 0.726845 0.231038
H33   H     H_    0.711710 0.828802 0.675482 0.242108
H34   H     H_    0.644916 0.746652 0.751597 0.241857

loop_
_geom_bond_atom_site_label_1
_geom_bond_atom_site_label_2
_ccdc_geom_bond_type
C15   C18   A    
Cu2   O6    S    
C43   H18   S    
C46   C52   S    
C27   C29   A    
C2    O2    A    
C4    C8    A    
Cu2   O2    S    
C54   H32   S    
C39   C41   A    
Cu1   Cu2   S    
C21   C31   A    
C53   H29   S    
C22   C32   A    
C35   C37   A    
C26   H7    S    
C3    C7    A    
C27   H6    S    
C23   C39   S    
C45   C51   S    
C15   C16   A    
C29   C33   A    
C33   C36   A    
C44   H17   S    
C34   C35   A    
C47   H15   S    
C17   C19   A    
C38   H4    S    
C11   C15   A    
C12   C16   A    
C16   C17   A    
C23   O7    A    
Cu1   O4    S    
C9    H22   S    
C32   C38   A    
C5    H25   S    
C17   H1    S    
C5    C13   A    
C18   H2    S    
C51   H14   S    
C48   C50   A    
C26   N2    A    
C22   C54   S    
C23   O5    A    
C25   N1    A    
C41   C43   A    
C42   C44   A    
C54   H33   S    
C44   C46   A    
C45   C47   A    
C1    O3    A    
C46   C48   A    
C49   H12   S    
C30   C34   A    
C28   N2    A    
C51   C52   D    
C14   C20   A    
C27   N1    A    
Cu2   O7    S    
C47   C49   A    
C5    C7    A    
C13   C19   A    
C6    C8    A    
C31   C37   A    
Cu1   N2    S    
C1    C3    S    
C2    C4    S    
C3    C9    A    
C6    C14   A    
C43   C45   A    
C10   H21   S    
C6    H26   S    
C19   H19   S    
C33   C34   A    
C20   H20   S    
Cu1   O5    S    
C9    C11   A    
C52   H13   S    
C10   C12   A    
C7    H24   S    
C39   C49   A    
C12   C14   A    
C53   H31   S    
C8    H23   S    
C4    C10   A    
C36   C38   A    
C54   H34   S    
C28   H5    S    
C21   C25   A    
C41   H27   S    
C24   O6    A    
C48   H16   S    
C24   O8    A    
Cu2   O3    S    
C18   C20   A    
C1    O1    A    
Cu1   O1    S    
C28   C30   A    
C29   C31   A    
C30   C32   A    
C11   C13   A    
C21   C53   S    
C40   C50   A    
C40   C42   A    
C24   C40   S    
C2    O4    A    
C42   H28   S    
C25   H8    S    
C50   H11   S    
C53   H30   S    
C22   C26   A    
Cu1   O8    S    
C35   H9    S    
C36   H10   S    
Cu2   N1    S    
C37   H3    S    
