data_mof_unit_60267.cif
_audit_creation_date              2013-03-05T15:39:56-0500
_audit_creation_method            fapswitch 2.2
_symmetry_space_group_name_H-M    P1
_symmetry_Int_Tables_number       1
_space_group_crystal_system       triclinic
_cell_length_a                    15.889984
_cell_length_b                    18.096483
_cell_length_c                    29.304928
_cell_angle_alpha                 89.921057
_cell_angle_beta                  90.262855
_cell_angle_gamma                 90.822628
_cell_volume                      8425.75039539

loop_
_atom_site_label
_atom_site_type_symbol
_atom_site_description
_atom_site_fract_x
_atom_site_fract_y
_atom_site_fract_z
_atom_type_partial_charge
O1    O     O_R   0.429360 0.416280 0.044700 -0.575546
O2    O     O_R   0.570640 0.583720 0.044700 -0.557679
O3    O     O_R   0.570640 0.416280 0.044700 -0.560773
O4    O     O_R   0.429360 0.583720 0.044700 -0.578030
O5    O     O_R   0.427420 0.583550 0.955440 -0.551667
O6    O     O_R   0.572580 0.416450 0.955440 -0.533495
O7    O     O_R   0.572580 0.583550 0.955440 -0.529216
O8    O     O_R   0.427420 0.416450 0.955440 -0.537168
Cu1   Cu    Cu3+1 0.415470 0.500000 0.000080 1.175497
Cu2   Cu    Cu3+1 0.584530 0.500000 0.000080 1.206365
C1    C     C_R   0.499700 0.390374 0.059006 0.802499
C2    C     C_R   0.500540 0.609583 0.058993 0.807556
C3    C     C_R   0.500485 0.610615 0.941799 0.831681
C4    C     C_R   0.499387 0.389773 0.941105 0.820191
C5    C     C_R   0.549844 0.802517 0.895878 -0.144721
C6    C     C_R   0.415616 0.233258 0.865482 -0.141178
C7    C     C_R   0.433601 0.750574 0.852639 -0.148760
C8    C     C_R   0.561246 0.209952 0.882795 -0.157837
C9    C     C_R   0.557628 0.736504 0.920368 0.273646
C10   C     C_R   0.420423 0.301019 0.888470 0.294282
C11   C     C_R   0.440041 0.683620 0.876503 0.288544
C12   C     C_R   0.568276 0.277246 0.906163 0.286771
C13   C     C_R   0.746096 0.946743 0.711566 0.305278
C14   C     C_R   0.196714 0.050226 0.716152 0.302484
C15   C     C_R   0.222802 0.921328 0.696949 0.283902
C16   C     C_R   0.720635 0.075722 0.691905 0.292080
C17   C     C_R   0.826495 0.952715 0.692127 0.293498
C18   C     C_R   0.116152 0.043788 0.696495 0.284892
C19   C     C_R   0.142055 0.915856 0.677433 0.300363
C20   C     C_R   0.801244 0.080719 0.672590 0.310968
C21   C     C_3   0.475183 0.998977 0.785825 -0.084215
C22   C     C_R   0.487987 0.809683 0.862393 -0.008400
C23   C     C_R   0.485328 0.187914 0.862795 -0.010553
C24   C     C_R   0.501244 0.676511 0.911616 -0.251375
C25   C     C_R   0.496951 0.323588 0.910421 -0.262013
C26   C     C_R   0.693162 0.008573 0.711631 -0.214113
C27   C     C_R   0.250116 0.988696 0.716495 -0.214782
C28   C     C_R   0.853542 0.019516 0.673111 -0.085077
C29   C     C_R   0.089380 0.976829 0.677524 -0.065668
H1    H     H_    0.592801 0.848266 0.902837 0.197853
H2    H     H_    0.357443 0.216665 0.848656 0.213657
H3    H     H_    0.387315 0.756004 0.825596 0.210639
H4    H     H_    0.615891 0.175122 0.879746 0.196166
C30   C     C_1   0.478976 0.932625 0.814193 0.038532
C31   C     C_1   0.476807 0.064902 0.814597 0.037017
C32   C     C_1   0.549121 0.001568 0.756350 0.067595
C33   C     C_1   0.397293 0.996697 0.759017 0.067298
C34   C     C_1   0.482676 0.876911 0.836564 0.082820
C35   C     C_1   0.480143 0.120453 0.837142 0.081947
C36   C     C_1   0.331079 0.993580 0.738837 0.214047
C37   C     C_1   0.613407 0.004489 0.734769 0.213573
C38   C     C_R   0.581768 0.056343 0.310221 0.292047
C39   C     C_R   0.417561 0.945326 0.311424 0.291001
C40   C     C_R   0.357491 0.057855 0.278727 0.412343
C41   C     C_R   0.640274 0.943001 0.278239 0.412073
C42   C     C_R   0.642562 0.054633 0.345183 0.351333
C43   C     C_R   0.357568 0.947218 0.346468 0.353077
C44   C     C_R   0.294418 0.054662 0.312584 0.339683
C45   C     C_R   0.704109 0.946316 0.311999 0.339700
C46   C     C_R   0.564309 0.121547 0.197969 0.385894
C47   C     C_R   0.429517 0.877772 0.199899 0.386931
C48   C     C_R   0.432022 0.066688 0.169710 0.249323
C49   C     C_R   0.560676 0.931620 0.169978 0.249572
C50   C     C_R   0.566984 0.166270 0.158283 0.265325
C51   C     C_R   0.424685 0.832364 0.160629 0.266456
C52   C     C_R   0.438895 0.109296 0.129703 0.276007
C53   C     C_R   0.552043 0.887767 0.130651 0.268197
C54   C     C_3   0.498063 0.000099 0.240494 0.137737
C55   C     C_R   0.577449 0.000721 0.274667 -0.125165
C56   C     C_R   0.420326 0.000220 0.275327 -0.126454
C57   C     C_R   0.703468 0.000341 0.345849 -0.191241
C58   C     C_R   0.296024 0.000940 0.346701 -0.191016
C59   C     C_R   0.496917 0.067442 0.204771 -0.099914
C60   C     C_R   0.497393 0.931877 0.205555 -0.099651
C61   C     C_R   0.507065 0.157389 0.123711 -0.222517
C62   C     C_R   0.483165 0.840179 0.125556 -0.225359
C63   C     C_1   0.235104 0.001634 0.383180 0.203466
C64   C     C_1   0.764548 0.999195 0.382584 0.203713
C65   C     C_1   0.184577 0.001324 0.413704 -0.052901
C66   C     C_1   0.815172 0.999066 0.413331 -0.052910
C67   C     C_1   0.520219 0.192373 0.079782 0.158124
C68   C     C_1   0.467555 0.804834 0.081976 0.166053
C69   C     C_1   0.531623 0.219969 0.042808 0.118459
C70   C     C_1   0.453643 0.776999 0.045310 0.116352
O9    O     O_R   0.093410 0.059470 0.464300 -0.567740
O10   O     O_R   0.906590 0.940530 0.464300 -0.567692
O11   O     O_R   0.906590 0.059470 0.464300 -0.560069
O12   O     O_R   0.093410 0.940530 0.464300 -0.559732
O13   O     O_R   0.920740 0.061400 0.553530 -0.526369
O14   O     O_R   0.079260 0.938600 0.553530 -0.524723
O15   O     O_R   0.079260 0.061400 0.553530 -0.541872
O16   O     O_R   0.920740 0.938600 0.553530 -0.541121
Cu3   Cu    Cu3+1 0.000000 0.072960 0.508900 1.152643
Cu4   Cu    Cu3+1 0.000000 0.927040 0.508900 1.155074
C71   C     C_R   0.123038 0.000414 0.449262 0.816254
C72   C     C_R   0.876872 0.999671 0.449149 0.813516
C73   C     C_R   0.892974 0.999621 0.569030 0.784907
C74   C     C_R   0.107209 0.000314 0.569113 0.753460
N1    N     N_R   0.621927 0.732361 0.954657 0.133057
O17   O     O_R   0.626222 0.782864 0.986144 -0.290323
O18   O     O_R   0.687399 0.691732 0.947432 -0.240827
N2    N     N_R   0.347459 0.346784 0.887726 0.160950
O19   O     O_R   0.273192 0.317453 0.894137 -0.261143
O20   O     O_R   0.353195 0.413787 0.871870 -0.223711
N3    N     N_R   0.386931 0.622411 0.863208 0.162653
O21   O     O_R   0.311046 0.633802 0.848119 -0.249654
O22   O     O_R   0.418589 0.556879 0.859184 -0.270366
N4    N     N_R   0.648602 0.297000 0.925219 0.150685
O23   O     O_R   0.685226 0.251986 0.953420 -0.292282
O24   O     O_R   0.692899 0.349761 0.906433 -0.245887
Cl1   Cl    Cl    0.895194 0.877636 0.691160 -0.381426
Cl2   Cl    Cl    0.046922 0.118507 0.695094 -0.378379
Cl3   Cl    Cl    0.104815 0.833391 0.652469 -0.350174
Cl4   Cl    Cl    0.838967 0.162906 0.647536 -0.355964
Cl5   Cl    Cl    0.712635 0.862393 0.736478 -0.420689
Cl6   Cl    Cl    0.229977 0.134870 0.740764 -0.423706
Cl7   Cl    Cl    0.288909 0.843654 0.697377 -0.424008
Cl8   Cl    Cl    0.655112 0.153762 0.692069 -0.415839
Cl9   Cl    Cl    0.643513 0.122500 0.388958 -0.393261
Cl10  Cl    Cl    0.358227 0.880106 0.390796 -0.394831
Cl11  Cl    Cl    0.213627 0.121473 0.314128 -0.367259
Cl12  Cl    Cl    0.784553 0.879157 0.313866 -0.366507
N5    N     N_R   0.635130 0.218103 0.151412 0.187695
O25   O     O_R   0.710109 0.194327 0.142348 -0.189139
O26   O     O_R   0.619499 0.288117 0.146935 -0.299335
N6    N     N_R   0.355843 0.780831 0.154731 0.185387
O27   O     O_R   0.280606 0.804923 0.146247 -0.196295
O28   O     O_R   0.370745 0.710671 0.150526 -0.296818
N7    N     N_R   0.376817 0.101853 0.094072 0.189297
O29   O     O_R   0.363328 0.038054 0.074740 -0.260236
O30   O     O_R   0.338472 0.159799 0.078514 -0.272759
N8    N     N_R   0.613347 0.893020 0.094864 0.194594
O31   O     O_R   0.625621 0.955252 0.073442 -0.250011
O32   O     O_R   0.653394 0.834533 0.081896 -0.227132
Cl13  Cl    Cl    0.516932 0.134915 0.311367 -0.405756
Cl14  Cl    Cl    0.482784 0.866999 0.312984 -0.407616
Cl15  Cl    Cl    0.358096 0.143004 0.248147 -0.368018
Cl16  Cl    Cl    0.638609 0.857405 0.248282 -0.366827
Cl17  Cl    Cl    0.655076 0.133318 0.232810 -0.382576
Cl18  Cl    Cl    0.340469 0.866747 0.235682 -0.384174
Cl19  Cl    Cl    0.336298 0.015638 0.174525 -0.411876
Cl20  Cl    Cl    0.656443 0.983028 0.173228 -0.411162

loop_
_geom_bond_atom_site_label_1
_geom_bond_atom_site_label_2
_geom_bond_distance
_ccdc_geom_bond_type
O8    Cu1   2.012305 S    
O7    Cu2   2.008459 S    
N6    O27   1.301192 A    
C41   C45   1.414368 A    
C53   N8    1.436746 S    
O1    C1    1.286467 A    
O2    C2    1.286479 A    
N5    O25   1.301180 A    
C18   Cl2   1.755645 S    
C5    C9    1.399468 A    
C12   C25   1.425559 A    
N3    O22   1.300533 A    
O5    Cu1   2.005487 S    
Cu3   Cu4   2.640641 S    
C51   C62   1.394445 A    
C40   C44   1.414047 A    
C64   C66   1.205136 T    
N5    O26   1.300966 A    
C40   Cl15  1.781410 S    
C10   N2    1.434525 S    
C17   C28   1.393572 A    
C23   C35   1.435753 S    
C46   C59   1.454791 A    
N4    O23   1.300988 A    
C20   C28   1.394184 A    
C7    H3    1.084056 S    
C38   C55   1.450421 A    
O10   Cu4   1.990643 S    
C15   C27   1.409660 A    
C10   C25   1.427794 A    
O9    Cu3   2.000003 S    
C50   C61   1.394965 A    
N8    O31   1.301257 A    
C21   C32   1.461590 S    
O8    C4    1.318355 A    
C48   C59   1.452262 A    
C13   C17   1.403852 A    
C66   C72   1.432954 S    
Cu1   Cu2   2.686362 S    
O5    C3    1.317200 A    
C52   N7    1.438240 S    
C45   Cl12  1.777013 S    
O12   C71   1.255455 A    
C17   Cl1   1.755389 S    
O15   C74   1.280076 A    
C21   C33   1.463004 S    
C22   C34   1.435243 S    
N8    O32   1.300870 A    
C39   Cl14  1.768309 S    
C39   C56   1.450502 A    
C67   C69   1.205783 T    
O16   C73   1.279678 A    
O14   Cu4   1.821697 S    
C33   C36   1.205227 T    
O12   Cu4   1.994353 S    
C63   C65   1.204669 T    
C15   C19   1.404622 A    
C49   C53   1.405268 A    
C21   C30   1.461296 S    
C48   C52   1.406157 A    
C16   Cl8   1.766580 S    
C5    C22   1.392933 A    
O1    Cu1   2.013783 S    
C62   C68   1.447921 S    
C4    C25   1.498635 S    
C9    N1    1.432409 S    
C54   C55   1.606944 S    
C11   C24   1.419586 A    
C18   C29   1.393985 A    
C54   C59   1.605731 S    
C32   C37   1.204369 T    
C7    C11   1.402908 A    
O13   C73   1.279513 A    
C65   C71   1.432166 S    
C58   C63   1.445660 S    
C6    C23   1.390545 A    
O15   Cu3   1.825432 S    
N1    O17   1.300496 A    
C40   C56   1.457985 A    
C31   C35   1.204108 T    
C6    C10   1.400870 A    
C42   C57   1.389028 A    
O11   C72   1.255349 A    
C19   C29   1.394498 A    
O16   Cu4   1.834105 S    
C14   C27   1.409616 A    
N2    O20   1.300029 A    
C41   Cl16  1.781330 S    
C41   C55   1.458507 A    
C26   C37   1.440953 S    
O10   C72   1.255724 A    
C43   Cl10  1.777185 S    
C16   C26   1.409434 A    
N1    O18   1.300827 A    
C16   C20   1.404417 A    
C68   C70   1.205502 T    
C42   Cl9   1.777021 S    
O4    C2    1.286378 A    
C48   Cl19  1.774321 S    
O2    Cu2   2.017803 S    
N6    O28   1.300989 A    
N7    O29   1.301332 A    
C20   Cl4   1.756653 S    
C7    C22   1.394546 A    
C19   Cl3   1.756706 S    
C44   Cl11  1.776837 S    
C39   C43   1.405214 A    
C8    C12   1.400759 A    
C61   C67   1.448519 S    
C14   C18   1.404741 A    
C9    C24   1.420511 A    
C15   Cl7   1.766802 S    
O6    Cu2   2.007069 S    
C47   Cl18  1.773841 S    
C14   Cl6   1.766964 S    
C49   C60   1.451863 A    
C47   C60   1.455283 A    
C50   N5    1.437102 S    
N3    O21   1.301545 A    
C46   C50   1.416420 A    
C51   N6    1.437221 S    
C3    C24   1.483672 S    
O6    C4    1.319907 A    
O3    Cu2   2.010327 S    
C8    H4    1.084353 S    
C27   C36   1.442480 S    
O9    C71   1.255244 A    
C44   C58   1.393977 A    
C38   C42   1.405542 A    
C12   N4    1.431675 S    
C52   C61   1.391367 A    
O11   Cu3   1.985852 S    
C49   Cl20  1.774391 S    
N4    O24   1.301132 A    
C43   C58   1.388862 A    
O13   Cu3   1.829563 S    
N2    O19   1.301339 A    
C8    C23   1.392177 A    
C5    H1    1.084392 S    
O3    C1    1.286404 A    
C46   Cl17  1.773781 S    
C13   Cl5   1.767161 S    
C47   C51   1.416148 A    
O7    C3    1.312795 A    
C54   C56   1.606082 S    
C13   C26   1.409431 A    
C21   C31   1.461695 S    
C38   Cl13  1.768261 S    
C53   C62   1.390509 A    
O4    Cu1   2.011723 S    
C54   C60   1.604891 S    
C6    H2    1.084435 S    
O14   C74   1.279972 A    
C57   C64   1.446445 S    
C11   N3    1.436047 S    
C30   C34   1.203870 T    
C45   C57   1.393915 A    
N7    O30   1.301220 A    
