data_mof_unit_37755.cif
_audit_creation_date              2013-03-05T16:06:56-0500
_audit_creation_method            fapswitch 2.2
_symmetry_space_group_name_H-M    P1
_symmetry_Int_Tables_number       1
_space_group_crystal_system       triclinic
_cell_length_a                    10.84111
_cell_length_b                    9.579424
_cell_length_c                    10.925353
_cell_angle_alpha                 90.000198
_cell_angle_beta                  92.44885
_cell_angle_gamma                 90.00038
_cell_volume                      1133.57910146

loop_
_atom_site_label
_atom_site_type_symbol
_atom_site_description
_atom_site_fract_x
_atom_site_fract_y
_atom_site_fract_z
_atom_type_partial_charge
O1    O     O_R   0.319640 0.618740 0.499990 -0.603938
O2    O     O_R   0.680360 0.618740 0.500010 -0.603936
O3    O     O_R   0.319620 0.381170 0.499990 -0.549889
O4    O     O_R   0.680380 0.381170 0.500010 -0.549894
C1    C     C_R   0.262269 0.500244 0.500733 0.807801
C2    C     C_R   0.737731 0.500245 0.499267 0.807795
O5    O     O_R   0.499990 0.618810 0.319660 -0.590372
O6    O     O_R   0.500010 0.618810 0.680340 -0.590373
O7    O     O_R   0.499960 0.381240 0.319650 -0.508412
O8    O     O_R   0.500040 0.381240 0.680350 -0.508411
C3    C     C_R   0.503770 0.499110 0.262952 0.860462
C4    C     C_R   0.496228 0.499111 0.737048 0.860464
Cu1   Cu    Cu3+1 0.500000 0.640660 0.500000 0.973783
Cu2   Cu    Cu3+1 0.500000 0.359340 0.500000 1.120108
C5    C     C_R   0.502434 0.615428 0.061665 0.025816
C6    C     C_R   0.497566 0.615428 0.938336 0.025814
C7    C     C_R   0.507038 0.493756 0.130246 -0.241850
C8    C     C_R   0.492955 0.493757 0.869753 -0.241848
C9    C     C_R   0.507455 0.364676 0.064653 0.258436
C10   C     C_R   0.492525 0.364677 0.935344 0.258438
C11   C     C_3   0.497636 0.770670 0.929469 -0.312478
C12   C     C_3   0.502382 0.770669 0.070534 -0.312481
H1    H     H_    0.583054 0.811489 0.889472 0.220982
H2    H     H_    0.416970 0.811501 0.110531 0.220993
C13   C     C_R   0.063716 0.375263 0.502285 -0.097875
C14   C     C_R   0.936280 0.375264 0.497679 -0.097867
H3    H     H_    0.111254 0.276521 0.506695 0.222110
H4    H     H_    0.888739 0.276523 0.493239 0.222096
C15   C     C_R   0.871650 0.501427 0.498538 -0.056298
C16   C     C_R   0.128350 0.501426 0.501462 -0.056304
C17   C     C_R   0.936052 0.628442 0.499791 -0.148046
C18   C     C_R   0.063950 0.628442 0.500244 -0.148042
H5    H     H_    0.887985 0.727575 0.500024 0.181990
H6    H     H_    0.112020 0.727574 0.500040 0.181992
C19   C     C_R   0.404304 0.071636 0.443370 0.415784
C20   C     C_R   0.595696 0.071638 0.556629 0.415781
C21   C     C_R   0.406585 0.923857 0.443257 -0.067843
C22   C     C_R   0.593415 0.923859 0.556743 -0.067845
N1    N     N_R   0.500000 0.852070 0.500000 -0.226273
N2    N     N_R   0.500000 0.147940 0.500000 -0.268388
N3    N     N_R   0.526810 0.233667 0.126717 0.177722
O9    O     O_R   0.446623 0.133233 0.112642 -0.287643
O10   O     O_R   0.633293 0.207569 0.181440 -0.337632
N4    N     N_R   0.473156 0.233671 0.873278 0.177720
O11   O     O_R   0.553334 0.133228 0.887349 -0.287652
O12   O     O_R   0.366674 0.207588 0.818548 -0.337628
H7    H     H_    0.409639 0.812094 0.888027 0.222146
H8    H     H_    0.590385 0.812080 0.111977 0.222136
N5    N     N_R   0.297308 0.136171 0.385766 0.125105
O13   O     O_R   0.308984 0.227453 0.299346 -0.293185
O14   O     O_R   0.190357 0.075999 0.394502 -0.399630
N6    N     N_R   0.702690 0.136178 0.614232 0.125113
O15   O     O_R   0.691013 0.227444 0.700665 -0.293180
O16   O     O_R   0.809645 0.076023 0.605479 -0.399627
H9    H     H_    0.332648 0.865988 0.397005 0.177133
H10   H     H_    0.667353 0.865993 0.602994 0.177120

loop_
_geom_bond_atom_site_label_1
_geom_bond_atom_site_label_2
_geom_bond_distance
_ccdc_geom_bond_type
C19   N5    1.435751 S    
O1    Cu1   1.966539 S    
C12   H8    1.111603 S    
O7    Cu2   1.981508 S    
C17   H5    1.083271 S    
C6    C11   1.490281 S    
Cu1   Cu2   2.694884 S    
C16   C18   1.402595 A    
N3    O10   1.301384 A    
N3    O9    1.301373 A    
C14   H4    1.077276 S    
C17   C18   1.386352 A    
C20   N6    1.435746 S    
C20   N2    1.392298 A    
O6    C4    1.304801 A    
N5    O14   1.301987 A    
C20   C22   1.415854 A    
C19   N2    1.392306 A    
C21   N1    1.352476 A    
C11   C12   1.539841 S    
N4    O11   1.301370 A    
O5    C3    1.304802 A    
O7    C3    1.289395 A    
O2    C2    1.294540 A    
O3    Cu2   1.966666 S    
O8    C4    1.289396 A    
O1    C1    1.294538 A    
O4    C2    1.299300 A    
C10   N4    1.437588 S    
N6    O16   1.301981 A    
C1    C16   1.452240 S    
C8    C10   1.429264 A    
C11   H1    1.111732 S    
O4    Cu2   1.966662 S    
C22   N1    1.352480 A    
C12   H2    1.111730 S    
Cu1   N1    2.025186 S    
C13   H3    1.077270 S    
Cu2   N2    2.025090 S    
C5    C6    1.346188 A    
C21   H9    1.081907 S    
O6    Cu1   1.981361 S    
C9    N3    1.437587 S    
O5    Cu1   1.981360 S    
C2    C15   1.452238 S    
C22   H10   1.081907 S    
N6    O15   1.297042 A    
C14   C15   1.397225 A    
C6    C8    1.385352 A    
N5    O13   1.297041 A    
O8    Cu2   1.981504 S    
C4    C8    1.452708 S    
C13   C16   1.397223 A    
C5    C7    1.385353 A    
O2    Cu1   1.966541 S    
C3    C7    1.452711 S    
C7    C9    1.429265 A    
N4    O12   1.301379 A    
C19   C21   1.415854 A    
C13   C14   1.380318 A    
C15   C17   1.402592 A    
C5    C12   1.490281 S    
C9    C10   1.415104 A    
C11   H7    1.111602 S    
O3    C1    1.299303 A    
C18   H6    1.083271 S    
