data_mof_unit_50416.cif
_audit_creation_date              2012-12-10T17:51:34-0500
_audit_creation_method            fapswitch 2.2
_symmetry_space_group_name_H-M    P1
_symmetry_Int_Tables_number       1
_space_group_crystal_system       triclinic
_cell_length_a                    9.91546
_cell_length_b                    10.710164
_cell_length_c                    16.701075
_cell_angle_alpha                 92.673646
_cell_angle_beta                  83.284289
_cell_angle_gamma                 88.093159
_cell_volume                      1758.16271314

loop_
_atom_site_label
_atom_site_type_symbol
_atom_type_description
_atom_site_fract_x
_atom_site_fract_y
_atom_site_fract_z
_atom_type_partial_charge
C1    C     C_R   0.498571 0.739250 0.492149 0.872305
C2    C     C_R   0.538192 0.539648 0.263850 -0.059738
C3    C     C_R   0.237774 0.896678 0.495975 -0.146493
C4    C     C_R   0.479819 0.494780 0.653210 0.832948
C5    C     C_R   0.120855 0.963725 0.530765 -0.155323
C6    C     C_R   0.132113 0.076608 0.573406 -0.179349
C7    C     C_R   0.259092 0.128315 0.573872 -0.141999
C8    C     C_R   0.376456 0.067169 0.530768 0.098998
C9    C     C_R   0.368738 0.943161 0.502433 0.080983
C10   C     C_R   0.492834 0.872557 0.480851 -0.192079
C11   C     C_R   0.615537 0.933846 0.462783 -0.012023
C12   C     C_R   0.352570 0.565053 0.782551 -0.242088
C13   C     C_R   0.616820 0.060812 0.477296 -0.277945
C14   C     C_R   0.499676 0.127493 0.511147 -0.137636
C15   C     C_R   0.834130 0.666335 0.606565 -0.204754
C16   C     C_R   0.500059 0.260830 0.506535 0.879842
C17   C     C_R   0.889096 0.752233 0.658345 0.159315
C18   C     C_R   0.030594 0.746467 0.662108 0.140101
C19   C     C_R   0.112788 0.662173 0.608777 -0.263441
C20   C     C_R   0.058690 0.580074 0.553676 0.106360
C21   C     C_R   0.914770 0.580841 0.553267 0.096799
C22   C     C_R   0.943824 0.423172 0.447674 0.200813
C23   C     C_R   0.464380 0.666819 0.161036 -0.200461
C24   C     C_R   0.086730 0.426363 0.447395 -0.096251
C25   C     C_R   0.520944 0.504475 0.347015 0.868077
C26   C     C_R   0.465668 0.498740 0.741063 -0.088600
C27   C     C_R   0.571813 0.454598 0.783719 0.161801
C28   C     C_R   0.571681 0.497690 0.863832 -0.166479
C29   C     C_R   0.462197 0.571329 0.903387 0.151196
C30   C     C_R   0.349686 0.599075 0.863879 -0.178787
C31   C     C_3   0.685551 0.363205 0.746621 -0.399632
C32   C     C_3   0.694892 0.246065 0.795046 -0.915029
C33   C     C_3   0.801162 0.489687 0.080122 -0.441579
C34   C     C_R   0.444194 0.624546 0.238335 -0.212498
C35   C     C_3   0.777115 0.358669 0.046007 -0.866953
C36   C     C_1   0.740972 0.870548 0.426795 0.200705
C37   C     C_3   0.893135 0.334561 0.385813 -0.393855
C38   C     C_3   0.945950 0.199642 0.391939 -0.917768
C39   C     C_3   0.792210 0.847198 0.708214 -0.429521
C40   C     C_3   0.716250 0.930674 0.655232 -0.878383
C41   C     C_3   0.097977 0.828657 0.721168 -0.385677
C42   C     C_3   0.063948 0.790944 0.808415 -0.912045
C43   C     C_R   0.656396 0.502288 0.213198 -0.225185
C44   C     C_R   0.677010 0.541928 0.134261 0.211874
C45   C     C_R   0.576375 0.621383 0.107142 0.154021
C46   C     C_2   0.458588 0.607757 0.988732 -0.225280
C47   C     C_2   0.571943 0.636470 0.020795 -0.234331
H1    H     H_    0.222792 0.811985 0.461046 0.173126
H2    H     H_    0.731053 0.439670 0.234566 0.140819
H3    H     H_    0.665100 0.648933 0.981557 0.148585
H4    H     H_    0.262477 0.651390 0.895317 0.139181
H5    H     H_    0.388408 0.730096 0.141692 0.145870
H6    H     H_    0.269595 0.595694 0.750838 0.174725
H7    H     H_    0.363695 0.596014 0.026850 0.157411
H8    H     H_    0.655634 0.470888 0.896078 0.145587
H9    H     H_    0.725863 0.268871 0.855573 0.260800
H10   H     H_    0.595523 0.200378 0.801923 0.267091
H11   H     H_    0.772711 0.178946 0.762678 0.254185
H12   H     H_    0.021720 0.926650 0.525991 0.157321
H13   H     H_    0.670238 0.328857 0.684894 0.231226
H14   H     H_    0.783888 0.410689 0.743162 0.210767
H15   H     H_    0.763271 0.292733 0.095461 0.260017
H16   H     H_    0.685166 0.359429 0.013952 0.262151
H17   H     H_    0.866123 0.325124 0.002869 0.248231
H18   H     H_    0.831082 0.551094 0.030048 0.193843
H19   H     H_    0.889628 0.484966 0.115271 0.204654
H20   H     H_    0.055482 0.188392 0.368976 0.262415
H21   H     H_    0.931346 0.172019 0.455560 0.266216
H22   H     H_    0.890508 0.135475 0.354396 0.253576
H23   H     H_    0.042101 0.126081 0.603779 0.139616
H24   H     H_    0.782267 0.334121 0.391818 0.269674
H25   H     H_    0.927260 0.365776 0.324449 0.183783
H26   H     H_    0.789112 0.975924 0.611023 0.261685
H27   H     H_    0.644756 0.875759 0.622961 0.263979
H28   H     H_    0.655494 0.004748 0.693497 0.254114
H29   H     H_    0.717398 0.796646 0.748292 0.209890
H30   H     H_    0.844298 0.910974 0.747154 0.222782
H31   H     H_    0.960369 0.823773 0.834403 0.251032
H32   H     H_    0.070432 0.687834 0.811990 0.257978
H33   H     H_    0.136572 0.833431 0.846520 0.252375
H34   H     H_    0.264261 0.216967 0.606999 0.154489
H35   H     H_    0.210374 0.821426 0.706447 0.202465
H36   H     H_    0.068964 0.928645 0.715909 0.211145
H37   H     H_    0.709227 0.108300 0.460416 0.181145
H38   H     H_    0.726827 0.670638 0.609074 0.228921
H39   H     H_    0.355605 0.659096 0.278438 0.158411
H40   H     H_    0.219831 0.663903 0.610424 0.218216
H41   H     H_    0.154206 0.368332 0.404350 0.163565
N1    N     N_R   0.857140 0.501200 0.500750 -0.132473
N2    N     N_R   0.142740 0.501280 0.500770 -0.132822
N3    N     N_1   0.841363 0.820186 0.398121 -0.218867
O1    O     O_R   0.385310 0.683220 0.500000 -0.646250
O2    O     O_R   0.614640 0.683250 0.500010 -0.618956
O3    O     O_R   0.371780 0.500010 0.615800 -0.632285
O4    O     O_R   0.601110 0.500030 0.615800 -0.643370
O5    O     O_R   0.385360 0.316750 0.499990 -0.613951
O6    O     O_R   0.614690 0.316780 0.500000 -0.633749
O7    O     O_R   0.398890 0.499970 0.384200 -0.616295
O8    O     O_R   0.628220 0.499990 0.384200 -0.631176
Zn1   Zn    Zn3+2 0.346870 0.499980 0.499990 0.919304
Zn2   Zn    Zn3+2 0.653130 0.500020 0.500010 0.922877

loop_
_geom_bond_atom_site_label_1
_geom_bond_atom_site_label_2
_ccdc_geom_bond_type
C30   H4    S    
C42   H33   S    
C23   C45   A    
C41   C42   S    
C31   H14   S    
C19   C20   A    
C32   H11   S    
C33   H18   S    
C7    C8    A    
C21   N1    A    
C13   H37   S    
C26   C27   A    
C29   C30   A    
C39   H30   S    
C11   C36   S    
C19   H40   S    
C17   C39   S    
C5    C6    A    
C16   O6    A    
C41   H36   S    
C3    H1    S    
C40   H26   S    
C6    H23   S    
C18   C19   A    
C34   H39   S    
C25   O8    A    
C8    C9    A    
C35   H17   S    
C2    C25   S    
C9    C10   A    
C12   H6    S    
C15   H38   S    
C12   C30   A    
C2    C34   A    
C38   H22   S    
C42   H32   S    
C13   C14   A    
C32   H9    S    
C32   H10   S    
N2    Zn1   S    
C28   H8    S    
C33   H19   S    
C47   H3    S    
C45   C47   S    
C16   O5    A    
C5    H12   S    
C27   C31   S    
C18   C41   S    
O2    Zn2   S    
C39   C40   S    
C43   H2    S    
C22   C37   S    
C20   N2    A    
C12   C26   A    
C31   H13   S    
C43   C44   A    
C37   C38   S    
C3    C9    A    
C4    O4    A    
C31   C32   S    
O3    Zn1   S    
C2    C43   A    
C23   C34   A    
C46   H7    S    
C17   C18   A    
C39   H29   S    
C38   H20   S    
C24   H41   S    
C4    O3    A    
C36   N3    T    
C7    H34   S    
C38   H21   S    
C42   H31   S    
C1    O1    A    
O7    Zn1   S    
C37   H24   S    
C14   C16   S    
C44   C45   A    
O1    Zn1   S    
C15   C17   A    
C46   C47   D    
C28   C29   A    
C8    C14   A    
N1    Zn2   S    
C33   C44   S    
C1    C10   S    
C3    C5    A    
C24   N2    A    
C4    C26   S    
C6    C7    A    
C40   H28   S    
C29   C46   S    
C11   C13   A    
C23   H5    S    
C41   H35   S    
O5    Zn1   S    
C33   C35   S    
C22   N1    A    
C40   H27   S    
C35   H15   S    
C22   C24   A    
C10   C11   A    
C25   O7    A    
C15   C21   A    
C20   C21   A    
C1    O2    A    
C37   H25   S    
C27   C28   A    
C35   H16   S    
O8    Zn2   S    
O6    Zn2   S    
O4    Zn2   S    
