data_mof_unit_21675.cif
_audit_creation_date              2012-12-10T16:35:52-0500
_audit_creation_method            fapswitch 2.2
_symmetry_space_group_name_H-M    P1
_symmetry_Int_Tables_number       1
_space_group_crystal_system       triclinic
_cell_length_a                    14.198815
_cell_length_b                    16.512638
_cell_length_c                    13.132232
_cell_angle_alpha                 89.781923
_cell_angle_beta                  107.292972
_cell_angle_gamma                 90.0977
_cell_volume                      2939.78149105

loop_
_atom_site_label
_atom_site_type_symbol
_atom_type_description
_atom_site_fract_x
_atom_site_fract_y
_atom_site_fract_z
_atom_type_partial_charge
C1    C     C_R   0.314529 0.845411 0.476048 0.825021
C2    C     C_R   0.685440 0.843504 0.524009 0.855655
C3    C     C_R   0.186368 0.655467 0.521902 0.837358
C4    C     C_R   0.185451 0.343515 0.523996 0.855254
C5    C     C_R   0.546712 0.998189 0.785670 0.848094
C6    C     C_R   0.046717 0.498205 0.785664 0.848031
C7    C     C_R   0.453797 0.000134 0.215361 0.922760
C8    C     C_R   0.953754 0.500132 0.215363 0.922771
C9    C     C_2   0.442197 0.999866 0.101953 -0.365554
C10   C     C_2   0.942096 0.499844 0.101958 -0.365148
C11   C     C_2   0.516899 0.978870 0.064432 0.365270
C12   C     C_R   0.315917 0.155699 0.477210 0.842810
C13   C     C_2   0.016922 0.479215 0.064445 0.364453
C14   C     C_2   0.564787 0.997616 0.901678 -0.346266
C15   C     C_2   0.064813 0.497734 0.901662 -0.345858
C16   C     C_2   0.498001 0.969838 0.948520 -0.066583
C17   C     C_2   0.998038 0.470019 0.948550 -0.066708
C18   C     C_2   0.764056 0.214032 0.522952 -0.225209
C19   C     C_2   0.756256 0.777086 0.539286 -0.230220
C20   C     C_2   0.264055 0.714044 0.522999 -0.225153
C21   C     C_2   0.256315 0.277136 0.539233 -0.230381
C22   C     C_R   0.407786 0.924492 0.889235 0.151955
C23   C     C_R   0.814523 0.345414 0.476042 0.825129
C24   C     C_R   0.408073 0.839537 0.892605 -0.177054
C25   C     C_R   0.323331 0.796073 0.839132 -0.159340
C26   C     C_R   0.238407 0.837097 0.780671 -0.127018
C27   C     C_R   0.237080 0.921772 0.778196 -0.130889
C28   C     C_R   0.320821 0.965482 0.833943 -0.082085
C29   C     C_R   0.907840 0.424629 0.889295 0.151916
C30   C     C_R   0.908208 0.339672 0.892562 -0.177266
C31   C     C_R   0.823494 0.296180 0.839072 -0.159294
C32   C     C_R   0.738527 0.337180 0.780672 -0.126893
C33   C     C_R   0.737133 0.421855 0.778267 -0.130805
C34   C     C_R   0.815909 0.655697 0.477201 0.842768
C35   C     C_R   0.820840 0.465589 0.834041 -0.082089
C36   C     C_R   0.368638 0.689044 0.576572 0.138221
C37   C     C_R   0.403022 0.614307 0.550446 -0.099391
C38   C     C_R   0.499416 0.588766 0.601519 -0.174373
C39   C     C_R   0.562827 0.637683 0.678569 -0.106045
C40   C     C_R   0.529948 0.712185 0.704801 -0.156779
C41   C     C_R   0.433344 0.737650 0.654567 -0.150975
C42   C     C_R   0.339898 0.276194 0.640251 0.110712
C43   C     C_R   0.407273 0.340850 0.664855 -0.104482
C44   C     C_R   0.482136 0.342254 0.762037 -0.163473
C45   C     C_2   0.240419 0.785538 0.469746 -0.180311
C46   C     C_R   0.491397 0.278752 0.834954 -0.119531
C47   C     C_R   0.424283 0.214566 0.811810 -0.154496
C48   C     C_R   0.348017 0.213800 0.715648 -0.125883
C49   C     C_R   0.868647 0.188997 0.576381 0.138312
C50   C     C_R   0.902985 0.114308 0.550050 -0.098703
C51   C     C_R   0.999420 0.088766 0.600914 -0.174019
C52   C     C_R   0.062909 0.137628 0.677972 -0.105764
C53   C     C_R   0.030069 0.212077 0.704417 -0.156582
C54   C     C_R   0.933428 0.237548 0.654382 -0.151018
C55   C     C_R   0.839792 0.776098 0.640341 0.110596
C56   C     C_2   0.242641 0.217033 0.465754 -0.185430
C57   C     C_R   0.907237 0.840704 0.664995 -0.104583
C58   C     C_R   0.982071 0.842053 0.762201 -0.163581
C59   C     C_R   0.991229 0.778547 0.835093 -0.119494
C60   C     C_R   0.924044 0.714412 0.811899 -0.154392
C61   C     C_R   0.847810 0.713698 0.715707 -0.125825
C62   C     C_R   0.638901 0.312788 0.411807 0.145819
C63   C     C_R   0.580487 0.352362 0.465815 -0.121126
C64   C     C_R   0.485984 0.379527 0.409500 -0.149314
C65   C     C_R   0.449277 0.367096 0.299553 -0.102750
C66   C     C_R   0.507231 0.327985 0.245402 -0.130656
C67   C     C_2   0.740412 0.285541 0.469740 -0.180219
C68   C     C_R   0.602046 0.301348 0.301115 -0.110070
C69   C     C_R   0.661888 0.713730 0.363801 0.117548
C70   C     C_R   0.670085 0.755891 0.273830 -0.071261
C71   C     C_R   0.593991 0.751866 0.177683 -0.097351
C72   C     C_R   0.509412 0.706132 0.171022 -0.123963
C73   C     C_R   0.501238 0.663575 0.260285 -0.122356
C74   C     C_R   0.577530 0.666879 0.356329 -0.114139
C75   C     C_R   0.138913 0.812785 0.411788 0.146022
C76   C     C_R   0.080405 0.852204 0.465818 -0.120967
C77   C     C_R   0.985921 0.879399 0.409482 -0.149346
C78   C     C_2   0.742625 0.717025 0.465749 -0.185492
C79   C     C_R   0.949331 0.867160 0.299488 -0.103439
C80   C     C_R   0.007376 0.828197 0.245317 -0.130908
C81   C     C_R   0.102169 0.801523 0.301055 -0.110199
C82   C     C_R   0.161872 0.213673 0.363843 0.118149
C83   C     C_R   0.169247 0.256901 0.274309 -0.069998
C84   C     C_R   0.093148 0.252764 0.178180 -0.097507
C85   C     C_R   0.009403 0.205824 0.171082 -0.124611
C86   C     C_R   0.002073 0.162193 0.259892 -0.123015
C87   C     C_R   0.078361 0.165637 0.355924 -0.116084
C88   C     C_R   0.686369 0.155464 0.521893 0.837224
Cl1   Cl    Cl    0.637256 0.962341 0.151474 -0.714449
Cl2   Cl    Cl    0.137437 0.463390 0.151519 -0.715285
H1    H     H_    0.633717 0.023826 0.950076 0.189549
H2    H     H_    0.974194 0.307199 0.935812 0.126892
H3    H     H_    0.824351 0.230643 0.841175 0.147316
H4    H     H_    0.673907 0.303202 0.737404 0.129908
H5    H     H_    0.671301 0.453669 0.733197 0.107085
H6    H     H_    0.818723 0.531152 0.832491 0.104439
H7    H     H_    0.355152 0.575742 0.490372 0.117515
H8    H     H_    0.525030 0.531091 0.581153 0.118129
H9    H     H_    0.637243 0.617656 0.718249 0.113338
H10   H     H_    0.579115 0.750047 0.764642 0.129126
H11   H     H_    0.409242 0.795011 0.677161 0.151598
H12   H     H_    0.133730 0.524003 0.949990 0.189856
H13   H     H_    0.400810 0.390844 0.609765 0.120043
H14   H     H_    0.532539 0.392930 0.781141 0.132297
H15   H     H_    0.549825 0.279794 0.909887 0.134099
H16   H     H_    0.430541 0.165951 0.868986 0.132832
H17   H     H_    0.294648 0.165149 0.700749 0.139787
H18   H     H_    0.855051 0.075788 0.489966 0.117356
H19   H     H_    0.025005 0.031129 0.580390 0.117985
H20   H     H_    0.137355 0.117596 0.717493 0.113302
H21   H     H_    0.079299 0.249898 0.764260 0.129081
H22   H     H_    0.909364 0.294879 0.677111 0.151445
H23   H     H_    0.370304 0.015607 0.048227 0.093230
H24   H     H_    0.900858 0.890698 0.609920 0.120095
H25   H     H_    0.032539 0.892687 0.781340 0.132356
H26   H     H_    0.049636 0.779546 0.910045 0.134140
H27   H     H_    0.930226 0.665795 0.869055 0.132884
H28   H     H_    0.794393 0.665080 0.700754 0.139761
H29   H     H_    0.608282 0.362556 0.550864 0.117697
H30   H     H_    0.441266 0.410716 0.450653 0.114221
H31   H     H_    0.376146 0.388180 0.256237 0.160172
H32   H     H_    0.478869 0.318642 0.160181 0.132952
H33   H     H_    0.646608 0.271496 0.258339 0.127981
H34   H     H_    0.870029 0.515123 0.048252 0.093150
H35   H     H_    0.735205 0.791651 0.278348 0.145295
H36   H     H_    0.600703 0.784121 0.108341 0.156158
H37   H     H_    0.450448 0.703396 0.096606 0.129693
H38   H     H_    0.435951 0.627863 0.255005 0.142273
H39   H     H_    0.570831 0.633464 0.424900 0.136623
H40   H     H_    0.108114 0.862260 0.550903 0.117529
H41   H     H_    0.941127 0.910463 0.450656 0.114330
H42   H     H_    0.876218 0.888274 0.256153 0.160441
H43   H     H_    0.979102 0.818999 0.160061 0.133021
H44   H     H_    0.146804 0.771791 0.258264 0.128026
H45   H     H_    0.474018 0.807047 0.935936 0.127174
H46   H     H_    0.233725 0.293572 0.279164 0.144987
H47   H     H_    0.099221 0.285841 0.109181 0.156735
H48   H     H_    0.950446 0.202985 0.096672 0.129805
H49   H     H_    0.937453 0.125538 0.254264 0.142411
H50   H     H_    0.072329 0.131371 0.424128 0.136483
H51   H     H_    0.324129 0.730537 0.841304 0.147396
H52   H     H_    0.173765 0.803137 0.737423 0.129896
H53   H     H_    0.171269 0.953602 0.733100 0.107193
H54   H     H_    0.318754 0.031047 0.832351 0.104559
O1    O     O_3   0.500010 0.000000 0.500000 -0.493039
O2    O     O_R   0.103010 0.337110 0.452470 -0.613652
O3    O     O_R   0.316670 0.095240 0.537470 -0.658962
O4    O     O_R   0.316670 0.904760 0.537470 -0.651898
O5    O     O_R   0.816670 0.595240 0.537470 -0.658752
O6    O     O_R   0.816670 0.404760 0.537470 -0.651904
O7    O     O_R   0.703490 0.904800 0.585920 -0.648555
O8    O     O_R   0.703490 0.095200 0.585920 -0.645348
O9    O     O_R   0.203490 0.404800 0.585920 -0.648483
O10   O     O_R   0.203490 0.595200 0.585920 -0.645341
O11   O     O_R   0.458050 0.000000 0.725250 -0.636456
O12   O     O_3   0.000010 0.500000 0.500000 -0.493061
O13   O     O_R   0.958050 0.500000 0.725250 -0.636342
O14   O     O_R   0.461630 0.932310 0.264690 -0.613238
O15   O     O_R   0.461630 0.067690 0.264690 -0.638820
O16   O     O_R   0.961630 0.432310 0.264690 -0.613814
O17   O     O_R   0.961630 0.567690 0.264690 -0.638490
O18   O     O_R   0.618750 0.000000 0.745380 -0.637576
O19   O     O_R   0.118750 0.500000 0.745380 -0.637609
O20   O     O_R   0.376880 0.837120 0.424150 -0.636256
O21   O     O_R   0.376880 0.162880 0.424150 -0.640202
O22   O     O_R   0.876880 0.337120 0.424150 -0.635936
O23   O     O_R   0.876880 0.662880 0.424150 -0.640520
O24   O     O_R   0.603010 0.162890 0.452470 -0.622284
O25   O     O_R   0.603010 0.837110 0.452470 -0.613600
O26   O     O_R   0.103010 0.662890 0.452470 -0.622191
Zn1   Zn    Zn3+2 0.485630 0.096680 0.411850 0.988426
Zn2   Zn    Zn3+2 0.485630 0.903320 0.411850 1.001186
Zn3   Zn    Zn3+2 0.985630 0.596680 0.411850 0.988436
Zn4   Zn    Zn3+2 0.985630 0.403320 0.411850 1.001157
Zn5   Zn    Zn3+2 0.399590 0.000000 0.573760 0.948570
Zn6   Zn    Zn3+2 0.899590 0.500000 0.573760 0.948744
Zn7   Zn    Zn3+2 0.629190 0.000000 0.602520 0.975863
Zn8   Zn    Zn3+2 0.129190 0.500000 0.602520 0.975891

loop_
_geom_bond_atom_site_label_1
_geom_bond_atom_site_label_2
_ccdc_geom_bond_type
O21   Zn1   S    
C32   H4    S    
C24   C25   A    
O1    Zn1   S    
C75   C76   A    
C5    O11   A    
C13   Cl2   S    
C17   C29   S    
C73   C74   A    
C66   C68   A    
C87   H50   S    
C38   H8    S    
O14   Zn2   S    
C37   H7    S    
C44   H14   S    
C81   H44   S    
C7    O14   A    
C35   H6    S    
O12   Zn4   S    
C26   C27   A    
C37   C38   A    
O15   Zn1   S    
C62   C67   S    
C83   C84   A    
C12   O3    A    
C36   C37   A    
C10   H34   S    
C8    O17   A    
C85   C86   A    
C30   C31   A    
O3    Zn5   S    
O7    Zn7   S    
C48   H17   S    
C7    O15   A    
O11   Zn5   S    
C82   C87   A    
C46   H15   S    
O2    Zn4   S    
C63   H29   S    
C15   C17   D    
C77   H41   S    
C23   C67   S    
O8    Zn7   S    
O18   Zn7   S    
C6    C15   S    
C46   C47   A    
O12   Zn8   S    
O24   Zn1   S    
O1    Zn5   S    
C1    O20   A    
C59   H26   S    
C88   O24   A    
C27   H53   S    
C66   H32   S    
C71   H36   S    
C70   C71   A    
C28   H54   S    
C65   H31   S    
C29   C30   A    
C20   C45   D    
O23   Zn3   S    
C69   C78   S    
C53   H21   S    
C4    O9    A    
C61   H28   S    
O1    Zn2   S    
C59   C60   A    
C51   H19   S    
C22   C28   A    
C50   H18   S    
C88   O8    A    
C36   C41   A    
C76   H40   S    
C33   H5    S    
C68   H33   S    
C34   O5    A    
C44   C46   A    
C43   H13   S    
C77   C79   A    
O12   Zn3   S    
O22   Zn4   S    
O4    Zn5   S    
C72   H37   S    
C51   C52   A    
C69   C74   A    
C84   C85   A    
C72   C73   A    
C30   H2    S    
C12   O21   A    
C86   C87   A    
C75   C81   A    
C2    O25   A    
C18   C67   D    
C53   C54   A    
C82   C83   A    
C3    O10   A    
C18   C88   S    
C80   H43   S    
C21   C42   S    
C60   C61   A    
C19   C78   D    
C43   C44   A    
C62   C63   A    
C23   O22   A    
O17   Zn3   S    
C11   C16   S    
C11   Cl1   S    
C39   H9    S    
C47   C48   A    
C52   H20   S    
C47   H16   S    
C4    O2    A    
O19   Zn8   S    
C50   C51   A    
C5    C14   S    
C54   H22   S    
C3    C20   S    
C42   C48   A    
C76   C77   A    
C9    C11   D    
C83   H46   S    
C12   C56   S    
C86   H49   S    
C24   H45   S    
C40   C41   A    
C23   O6    A    
C84   H47   S    
C65   C66   A    
O10   Zn8   S    
C60   H27   S    
C58   H25   S    
O25   Zn2   S    
C14   C16   D    
O20   Zn2   S    
C42   C43   A    
C34   O23   A    
C8    O16   A    
C39   C40   A    
C6    O13   A    
C52   C53   A    
C70   H35   S    
O6    Zn6   S    
C19   C55   S    
C2    O7    A    
C7    C9    S    
O9    Zn8   S    
O12   Zn6   S    
C16   C22   S    
C2    C19   S    
O16   Zn4   S    
C31   C32   A    
C25   H51   S    
C80   C81   A    
C10   C13   D    
C40   H10   S    
C21   C56   D    
C3    O26   A    
C56   C82   S    
C57   H24   S    
C62   C68   A    
C73   H38   S    
C29   C35   A    
C64   H30   S    
C13   C17   S    
C45   C75   S    
O5    Zn6   S    
C9    H23   S    
C5    O18   A    
C55   C57   A    
C25   C26   A    
C71   C72   A    
C31   H3    S    
C32   C33   A    
C4    C21   S    
C1    C45   S    
C57   C58   A    
C38   C39   A    
C79   H42   S    
C55   C61   A    
C64   C65   A    
C63   C64   A    
C33   C35   A    
C41   H11   S    
C22   C24   A    
C15   H12   S    
C69   C70   A    
C58   C59   A    
C14   H1    S    
O13   Zn6   S    
C79   C80   A    
C20   C36   S    
C6    O19   A    
C8    C10   S    
C49   C50   A    
C74   H39   S    
O1    Zn7   S    
C27   C28   A    
C1    O4    A    
C26   H52   S    
C85   H48   S    
C34   C78   S    
C49   C54   A    
C18   C49   S    
O26   Zn3   S    
