data_mof_unit_31806.cif
_audit_creation_date              2012-12-10T17:43:33-0500
_audit_creation_method            fapswitch 2.2
_symmetry_space_group_name_H-M    P1
_symmetry_Int_Tables_number       1
_space_group_crystal_system       triclinic
_cell_length_a                    14.910194
_cell_length_b                    10.54768
_cell_length_c                    9.894303
_cell_angle_alpha                 90.75124
_cell_angle_beta                  89.971108
_cell_angle_gamma                 91.405255
_cell_volume                      1555.45506908

loop_
_atom_site_label
_atom_site_type_symbol
_atom_type_description
_atom_site_fract_x
_atom_site_fract_y
_atom_site_fract_z
_atom_type_partial_charge
C1    C     C_R   0.507089 0.259072 0.499421 0.911305
C2    C     C_R   0.909419 0.601715 0.427844 -0.072082
C3    C     C_R   0.948099 0.308753 0.627942 -0.140426
C4    C     C_R   0.041224 0.309259 0.632784 -0.159841
C5    C     C_R   0.090738 0.403044 0.565004 0.142642
C6    C     C_R   0.046732 0.496680 0.490411 0.086509
C7    C     C_R   0.096375 0.587355 0.416489 0.056900
C8    C     C_R   0.053087 0.678726 0.341684 -0.298640
C9    C     C_R   0.959477 0.686326 0.345194 0.510343
C10   C     C_R   0.183694 0.405575 0.570673 -0.189269
C11   C     C_R   0.231649 0.496470 0.497572 -0.019043
C12   C     C_R   0.327022 0.497535 0.499743 0.878657
C13   C     C_R   0.189051 0.584571 0.417860 -0.175629
C14   C     C_R   0.560609 0.102274 0.738158 0.507094
C15   C     C_R   0.542178 0.045841 0.863585 -0.333617
C16   C     C_R   0.478409 0.947680 0.872397 -0.244649
C17   C     C_R   0.440176 0.894518 0.755010 0.488858
C18   C     C_R   0.469581 0.938577 0.627217 -0.157199
C19   C     C_R   0.514897 0.055677 0.621045 -0.021489
C20   C     C_R   0.508716 0.122458 0.498366 -0.142122
C21   C     C_R   0.479251 0.060684 0.379648 -0.234815
C22   C     C_R   0.454510 0.934445 0.381371 0.487758
C23   C     C_R   0.482551 0.736855 0.501096 0.968034
C24   C     C_R   0.459125 0.869761 0.504570 -0.183568
C25   C     C_R   0.383508 0.333159 0.138187 -0.261053
C26   C     C_R   0.324896 0.251504 0.067349 0.438338
C27   C     C_R   0.325730 0.250860 0.927139 -0.254519
C28   C     C_R   0.383496 0.332604 0.857932 -0.195251
C29   C     C_R   0.442989 0.417013 0.926673 0.204475
C30   C     C_R   0.443002 0.417124 0.071200 0.020269
C31   C     C_R   0.554103 0.580759 0.073116 0.511877
C32   C     C_R   0.554000 0.579936 0.928893 -0.199705
C33   C     C_R   0.673014 0.503742 0.500285 1.023973
C34   C     C_R   0.816781 0.613721 0.450041 0.426506
C35   C     C_R   0.768772 0.508608 0.501610 -0.218001
C36   C     C_R   0.811730 0.406086 0.557265 -0.291834
C37   C     C_R   0.904229 0.404826 0.559663 0.144205
C38   C     C_R   0.953387 0.500620 0.491577 -0.060802
H1    H     H_    0.574040 0.081700 0.955175 0.179803
H2    H     H_    0.457813 0.914202 0.970935 0.243152
H3    H     H_    0.380287 0.329204 0.245117 0.223125
H4    H     H_    0.280730 0.187671 0.870806 0.200706
H5    H     H_    0.378522 0.327652 0.750845 0.205394
H6    H     H_    0.772756 0.329037 0.601830 0.200649
H7    H     H_    0.597538 0.644869 0.874160 0.164180
H8    H     H_    0.910354 0.235017 0.679921 0.172101
H9    H     H_    0.074475 0.236306 0.688774 0.172246
H10   H     H_    0.218825 0.335908 0.629019 0.132541
H11   H     H_    0.228389 0.653398 0.360810 0.170199
H12   H     H_    0.092216 0.744428 0.280654 0.183931
H13   H     H_    0.472145 0.110950 0.285559 0.190318
N1    N     N_R   0.499150 0.498800 0.142780 -0.124458
N2    N     N_R   0.499120 0.498720 0.857170 -0.104365
O1    O     O_R   0.500000 0.316780 0.614690 -0.612796
O2    O     O_R   0.499990 0.316750 0.385360 -0.671842
O3    O     O_R   0.367850 0.499980 0.614680 -0.594767
O4    O     O_R   0.367840 0.499960 0.385350 -0.654887
O5    O     O_R   0.500010 0.683250 0.614640 -0.576276
O6    O     O_R   0.500000 0.683220 0.385310 -0.547332
O7    O     O_R   0.632160 0.500040 0.614650 -0.587013
O8    O     O_R   0.632150 0.500020 0.385320 -0.570435
Zn1   Zn    Zn3+2 0.500010 0.500020 0.653130 1.030465
Zn2   Zn    Zn3+2 0.499990 0.499980 0.346870 1.023377
S1    S     S_3+6 0.766491 0.765766 0.451006 0.076741
O9    O     O_2   0.835702 0.867103 0.485712 -0.259334
O10   O     O_2   0.727821 0.791633 0.314428 -0.211555
O11   O     O_3   0.684715 0.771895 0.567659 -0.588591
H14   H     H_    0.666716 0.861697 0.570134 0.373918
O12   O     O_3   0.626112 0.196511 0.726673 -0.763405
H15   H     H_    0.650765 0.217360 0.817582 0.330581
S2    S     S_3+6 0.340029 0.803008 0.772991 0.034457
O13   O     O_2   0.359777 0.678723 0.837106 -0.283051
O14   O     O_2   0.277815 0.874590 0.864187 -0.256729
O15   O     O_3   0.289516 0.777583 0.622946 -0.609831
H16   H     H_    0.226470 0.754735 0.645347 0.388007
O16   O     O_3   0.425825 0.877879 0.262011 -0.703935
H17   H     H_    0.384733 0.805839 0.284423 0.351227
O17   O     O_3   0.608740 0.663869 0.145271 -0.662671
H18   H     H_    0.643072 0.717706 0.081002 0.338709
S3    S     S_3+6 0.248782 0.151204 0.153974 0.051310
O18   O     O_2   0.157412 0.160128 0.091293 -0.235929
O19   O     O_2   0.278650 0.016583 0.140909 -0.246178
O20   O     O_3   0.242394 0.192603 0.318526 -0.553591
H19   H     H_    0.294084 0.152488 0.362111 0.343220
O21   O     O_3   0.916086 0.769284 0.262012 -0.670015
H20   H     H_    0.961066 0.820164 0.210863 0.354444

loop_
_geom_bond_atom_site_label_1
_geom_bond_atom_site_label_2
_ccdc_geom_bond_type
O5    Zn1   S    
C23   O5    A    
C32   H7    S    
C35   C36   A    
C22   O16   S    
C31   N1    A    
C7    C8    A    
O21   H20   S    
C23   O6    A    
C26   C27   A    
C29   C30   A    
C18   C24   A    
C36   C37   A    
C34   C35   A    
C5    C6    A    
C15   C16   A    
O7    Zn1   S    
C18   C19   A    
O8    Zn2   S    
C9    O21   S    
C19   C20   A    
C8    C9    A    
O2    Zn2   S    
C23   C24   S    
C6    C38   A    
C2    C34   A    
C21   C22   A    
S3    O20   S    
O4    Zn2   S    
O15   H16   S    
O11   H14   S    
S1    O11   S    
O16   H17   S    
S3    O19   D    
C25   H3    S    
S2    O14   D    
O17   H18   S    
S3    O18   D    
O1    Zn1   S    
C25   C26   A    
C26   S3    S    
S1    O10   D    
C1    O1    A    
C37   C38   A    
N2    Zn1   S    
C2    C38   A    
O20   H19   S    
C34   S1    S    
C17   C18   A    
C15   H1    S    
C12   O3    A    
C16   H2    S    
C13   H11   S    
C12   O4    A    
C17   S2    S    
C33   O7    A    
C10   H10   S    
C14   O12   S    
O3    Zn1   S    
C36   H6    S    
C3    C4    A    
C8    H12   S    
C32   N2    A    
C21   H13   S    
C31   O17   S    
C25   C30   A    
C30   N1    A    
C28   C29   A    
C1    C20   S    
C3    H8    S    
C14   C19   A    
C31   C32   A    
C4    C5    A    
N1    Zn2   S    
S2    O15   S    
C11   C12   S    
C6    C7    A    
C28   H5    S    
O6    Zn2   S    
S1    O9    D    
C1    O2    A    
C5    C10   A    
C11   C13   A    
C27   H4    S    
C16   C17   A    
C29   N2    A    
C33   C35   S    
C22   C24   A    
O12   H15   S    
C10   C11   A    
C7    C13   A    
S2    O13   D    
C20   C21   A    
C3    C37   A    
C33   O8    A    
C27   C28   A    
C14   C15   A    
C2    C9    A    
C4    H9    S    
