data_mof_unit_37273.cif
_audit_creation_date              2012-12-11T17:15:02-0500
_audit_creation_method            fapswitch 2.2
_symmetry_space_group_name_H-M    P1
_symmetry_Int_Tables_number       1
_space_group_crystal_system       triclinic
_cell_length_a                    7.222601
_cell_length_b                    12.164347
_cell_length_c                    21.318006
_cell_angle_alpha                 90.004427
_cell_angle_beta                  91.015129
_cell_angle_gamma                 90.024045
_cell_volume                      1872.66803424

loop_
_atom_site_label
_atom_site_type_symbol
_atom_type_description
_atom_site_fract_x
_atom_site_fract_y
_atom_site_fract_z
_atom_type_partial_charge
O1    O     O_R   0.354460 0.152320 0.595720 -0.533352
O2    O     O_R   0.645540 0.847680 0.404280 -0.533352
O3    O     O_R   0.145540 0.652320 0.404280 -0.533336
O4    O     O_R   0.854460 0.347680 0.595720 -0.533336
O5    O     O_R   0.683670 0.140090 0.727290 -0.538910
O6    O     O_R   0.316330 0.859910 0.272710 -0.538911
O7    O     O_R   0.816330 0.640090 0.272710 -0.538892
O8    O     O_R   0.183670 0.359910 0.727290 -0.538892
O9    O     O_R   0.854010 0.349340 0.727750 -0.536487
O10   O     O_R   0.145990 0.650660 0.272250 -0.536487
O11   O     O_R   0.645990 0.849340 0.272250 -0.536301
O12   O     O_R   0.354010 0.150660 0.727750 -0.536302
C1    C     C_R   0.517067 0.112116 0.746833 0.686058
C2    C     C_R   0.482933 0.887884 0.253167 0.686059
C3    C     C_R   0.982844 0.612102 0.253154 0.686224
C4    C     C_R   0.017155 0.387898 0.746846 0.686224
O13   O     O_R   0.684170 0.139420 0.596190 -0.536066
O14   O     O_R   0.315830 0.860580 0.403810 -0.536066
O15   O     O_R   0.815830 0.639420 0.403810 -0.536136
O16   O     O_R   0.184170 0.360580 0.596190 -0.536135
C5    C     C_R   0.514760 0.113148 0.574446 0.712157
C6    C     C_R   0.485240 0.886852 0.425554 0.712157
C7    C     C_R   0.985210 0.613145 0.425556 0.712121
C8    C     C_R   0.014789 0.386855 0.574444 0.712121
O17   O     O_3   0.520730 0.319480 0.661730 -0.376009
O18   O     O_3   0.479270 0.680520 0.338270 -0.376009
O19   O     O_3   0.979270 0.819480 0.338270 -0.375873
O20   O     O_3   0.020730 0.180520 0.661730 -0.375873
V1    V     V_3+5 0.795560 0.238090 0.661730 1.427266
V2    V     V_3+5 0.204440 0.761910 0.338270 1.427266
V3    V     V_3+5 0.704440 0.738090 0.338270 1.427263
V4    V     V_3+5 0.295560 0.261910 0.661730 1.427263
C9    C     C_R   0.016581 0.466572 0.798398 -0.031668
C10   C     C_R   0.983417 0.533428 0.201602 -0.031669
C11   C     C_R   0.484080 0.966424 0.201585 -0.030642
C12   C     C_R   0.515922 0.033576 0.798415 -0.030643
C13   C     C_R   0.083202 0.647873 0.838611 -0.168761
C14   C     C_R   0.916781 0.352129 0.161389 -0.168761
C15   C     C_R   0.426312 0.148898 0.161688 -0.169101
C16   C     C_R   0.573715 0.851105 0.838312 -0.169100
C17   C     C_R   0.066177 0.575873 0.788151 -0.178422
C18   C     C_R   0.933816 0.424128 0.211849 -0.178420
C19   C     C_R   0.440548 0.076542 0.212062 -0.178859
C20   C     C_R   0.559471 0.923460 0.787938 -0.178859
C21   C     C_R   0.984700 0.428778 0.859057 -0.218179
C22   C     C_R   0.015294 0.571222 0.140943 -0.218181
C23   C     C_R   0.512563 0.928138 0.140820 -0.217848
C24   C     C_R   0.487432 0.071861 0.859180 -0.217850
C25   C     C_R   0.006810 0.499086 0.911497 0.080361
C26   C     C_R   0.993172 0.500916 0.088502 0.080361
C27   C     C_R   0.493529 0.998929 0.088498 0.080927
C28   C     C_R   0.506482 0.001073 0.911502 0.080925
C29   C     C_R   0.055939 0.610317 0.900013 0.130329
C30   C     C_R   0.944039 0.389685 0.099986 0.130330
C31   C     C_R   0.450640 0.110996 0.100188 0.129904
C32   C     C_R   0.549382 0.889007 0.899812 0.129906
C33   C     C_R   0.985834 0.462185 0.974670 0.052796
C34   C     C_R   0.014141 0.537818 0.025329 0.052796
C35   C     C_R   0.512108 0.961843 0.025262 0.053182
C36   C     C_R   0.487907 0.038159 0.974739 0.053183
C37   C     C_R   0.061251 0.647875 0.011117 -0.194700
C38   C     C_R   0.938715 0.352129 0.988882 -0.194698
C39   C     C_R   0.447055 0.149024 0.989143 -0.195396
C40   C     C_R   0.552971 0.850980 0.010857 -0.195394
C41   C     C_R   0.081111 0.682999 0.949780 -0.199313
C42   C     C_R   0.918856 0.317005 0.050219 -0.199312
C43   C     C_R   0.429180 0.184276 0.050543 -0.200440
C44   C     C_R   0.570850 0.815728 0.949458 -0.200437
H1    H     H_    0.118623 0.767993 0.941284 0.140039
H2    H     H_    0.881338 0.232012 0.058715 0.140040
H3    H     H_    0.396539 0.269925 0.059188 0.139496
H4    H     H_    0.603503 0.730082 0.940813 0.139497
H5    H     H_    0.906528 0.395019 0.258819 0.106787
H6    H     H_    0.093467 0.604982 0.741181 0.106788
H7    H     H_    0.583826 0.893912 0.740856 0.106453
H8    H     H_    0.416200 0.106091 0.259145 0.106452
H9    H     H_    0.121959 0.732514 0.829786 0.125818
H10   H     H_    0.878021 0.267489 0.170214 0.125819
H11   H     H_    0.392499 0.234222 0.170675 0.125562
H12   H     H_    0.607540 0.765783 0.829325 0.125562
H13   H     H_    0.085090 0.709912 0.046287 0.129730
H14   H     H_    0.914866 0.290094 0.953712 0.129729
H15   H     H_    0.426901 0.211652 0.954087 0.129917
H16   H     H_    0.573138 0.788353 0.045914 0.129917
C45   C     C_1   0.995780 0.533148 0.478084 -0.177803
C46   C     C_1   0.004220 0.466852 0.521916 -0.177803
C47   C     C_1   0.504181 0.033151 0.521917 -0.177810
C48   C     C_1   0.495819 0.966849 0.478083 -0.177810
H17   H     H_    0.050359 0.656871 0.136601 0.099287
H18   H     H_    0.949642 0.343129 0.863399 0.099287
H19   H     H_    0.456623 0.158053 0.863655 0.098624
H20   H     H_    0.543352 0.841943 0.136345 0.098621

loop_
_geom_bond_atom_site_label_1
_geom_bond_atom_site_label_2
_ccdc_geom_bond_type
C47   C48   T    
C5    C47   S    
O1    C5    A    
O3    V2    S    
C9    C21   A    
C23   H20   S    
O3    C7    A    
C10   C18   A    
C11   C23   A    
C25   C33   A    
C33   C38   A    
C22   H17   S    
C45   C46   T    
C35   C40   A    
C26   C30   A    
C36   C39   A    
C40   C44   A    
O20   V1    S    
O9    C4    A    
C14   C18   A    
O10   C3    A    
O4    C8    A    
O11   C2    A    
C25   C29   A    
C43   H3    S    
O13   V1    S    
C40   H16   S    
C28   C36   A    
C17   H6    S    
C15   C31   A    
O16   C8    A    
C16   C32   A    
C24   H19   S    
O2    C6    A    
C16   H12   S    
C10   C22   A    
C6    C48   S    
C11   C19   A    
C3    C10   S    
O5    C1    A    
O4    V1    S    
O9    V1    S    
C13   C29   A    
C34   C37   A    
O7    C3    A    
C38   H14   S    
O15   V3    S    
C35   C36   A    
O8    C4    A    
O12   V4    S    
O19   V2    S    
O5    V1    S    
C39   C43   A    
O7    V3    S    
C38   C42   A    
O8    V4    S    
C1    C12   S    
C2    C11   S    
C23   C27   A    
C14   H10   S    
C32   C44   A    
C13   H9    S    
O1    V4    S    
O13   C5    A    
C39   H15   S    
O2    V3    S    
C26   C34   A    
C20   H7    S    
O15   C7    A    
C4    C9    S    
O6    C2    A    
O10   V2    S    
C31   C43   A    
C14   C30   A    
C21   C25   A    
C44   H4    S    
C21   H18   S    
O14   V2    S    
O6    V2    S    
C16   C20   A    
C12   C20   A    
C27   C35   A    
C29   C41   A    
O16   V4    S    
C19   H8    S    
C18   H5    S    
O14   C6    A    
O18   V3    S    
C15   C19   A    
C30   C42   A    
C22   C26   A    
C9    C17   A    
C37   H13   S    
C33   C34   A    
C42   H2    S    
O17   V4    S    
C41   H1    S    
C12   C24   A    
C27   C31   A    
C13   C17   A    
O11   V3    S    
C37   C41   A    
C24   C28   A    
O12   C1    A    
C7    C45   S    
C8    C46   S    
C28   C32   A    
C15   H11   S    
