data_mof_unit_53672.cif
_audit_creation_date              2012-10-26T18:53:09-0400
_audit_creation_method            fapswitch 2.2
_symmetry_space_group_name_H-M    P1
_symmetry_Int_Tables_number       1
_space_group_crystal_system       triclinic
_cell_length_a                    14.711649
_cell_length_b                    14.674403
_cell_length_c                    15.883859
_cell_angle_alpha                 76.90034
_cell_angle_beta                  102.771444
_cell_angle_gamma                 114.85909
_cell_volume                      2999.53965706

loop_
_atom_site_label
_atom_site_type_symbol
_atom_type_description
_atom_site_fract_x
_atom_site_fract_y
_atom_site_fract_z
_atom_type_partial_charge
C1    C     C_R   0.880286 0.312000 0.513415 0.572168
C2    C     C_R   0.187244 0.795874 0.470701 -0.064329
C3    C     C_R   0.782105 0.027326 0.520567 -0.095889
C4    C     C_R   0.999667 0.499960 0.659582 0.550543
C5    C     C_R   0.849531 0.127517 0.525201 0.388676
C6    C     C_R   0.707907 0.178646 0.499544 -0.198970
C7    C     C_R   0.638797 0.079142 0.490211 0.020412
C8    C     C_R   0.677425 0.002550 0.503495 -0.008410
C9    C     C_R   0.532501 0.053481 0.469896 -0.016262
C10   C     C_R   0.465860 0.949561 0.474409 0.023685
C11   C     C_R   0.507477 0.875523 0.486081 -0.110323
C12   C     C_3   0.002366 0.394205 0.072940 0.173898
C13   C     C_R   0.611310 0.902008 0.499403 -0.127344
C14   C     C_R   0.490877 0.128294 0.442943 -0.137445
C15   C     C_R   0.387014 0.102321 0.427145 0.384454
C16   C     C_R   0.119706 0.687910 0.484684 0.539496
C17   C     C_R   0.320329 0.000403 0.440157 0.051174
C18   C     C_R   0.359683 0.923265 0.465181 -0.082324
C19   C     C_R   0.214857 0.973744 0.428803 0.410376
C20   C     C_R   0.149101 0.872126 0.443222 -0.114621
C21   C     C_R   0.291659 0.822062 0.482791 -0.160962
C22   C     C_R   0.717190 0.671205 0.357982 -0.152617
C23   C     C_3   0.998284 0.495287 0.083781 0.022765
C24   C     C_R   0.798156 0.640747 0.379960 0.049038
C25   C     C_R   0.714066 0.507902 0.487162 0.043920
C26   C     C_R   0.628532 0.534662 0.467612 0.009640
C27   C     C_R   0.632456 0.618875 0.401755 0.044005
C28   C     C_R   0.000206 0.499834 0.340409 0.540701
C29   C     C_R   0.540591 0.482157 0.511081 -0.006911
C30   C     C_R   0.458565 0.515765 0.488127 0.033853
C31   C     C_R   0.467427 0.601023 0.422682 -0.126114
C32   C     C_R   0.552394 0.650980 0.380407 -0.128352
C33   C     C_R   0.532140 0.397332 0.576616 -0.101384
C34   C     C_3   0.093037 0.584658 0.050340 -0.298133
C35   C     C_R   0.447228 0.346477 0.619341 0.274813
C36   C     C_R   0.367521 0.380081 0.598838 -0.003481
C37   C     C_R   0.370954 0.463615 0.532025 -0.045094
C38   C     C_R   0.283516 0.330163 0.643963 -0.090059
C39   C     C_R   0.202953 0.361045 0.621944 0.546901
C40   C     C_3   0.988351 0.390538 0.973082 0.172684
C41   C     C_R   0.285380 0.490498 0.512010 -0.015276
C42   C     C_3   0.909713 0.525127 0.929200 0.124456
C43   C     C_3   0.900492 0.506194 0.028007 -0.200927
C44   C     C_1   0.000144 0.498619 0.251096 -0.010086
C45   C     C_3   0.096518 0.582052 0.954006 -0.290734
C46   C     C_3   0.997935 0.497124 0.916767 0.021240
C47   C     C_3   0.951483 0.226826 0.144306 -0.008471
C48   C     C_3   0.862517 0.137166 0.180246 -0.354856
C49   C     C_3   0.145753 0.389689 0.955789 -0.005727
C50   C     C_3   0.192211 0.313270 0.960684 -0.348156
C51   C     C_3   0.407410 0.174641 0.648179 -0.011905
C52   C     C_3   0.489672 0.133029 0.663610 -0.383934
C53   C     C_3   0.765673 0.386778 0.873303 -0.020296
C54   C     C_3   0.659922 0.364434 0.822646 -0.331955
C55   C     C_1   0.999502 0.497286 0.175771 -0.015875
C56   C     C_1   0.998248 0.498656 0.824502 -0.002384
C57   C     C_1   0.998728 0.499493 0.748985 -0.001046
C58   C     C_R   0.812543 0.204092 0.514515 0.002384
Cu1   Cu    Cu3+1 0.081750 0.475690 0.522550 1.069257
Cu2   Cu    Cu3+1 0.918250 0.524310 0.477450 0.942333
F1    F     F_    0.352504 0.178261 0.400633 -0.580513
F2    F     F_    0.950377 0.148960 0.539644 -0.573268
F3    F     F_    0.174676 0.045446 0.403886 -0.563354
F4    F     F_    0.122007 0.311594 0.665601 -0.581429
H1    H     H_    0.078118 0.395618 0.105700 0.110685
H2    H     H_    0.536899 0.208306 0.430633 0.137980
H3    H     H_    0.555627 0.716030 0.330585 0.108642
H4    H     H_    0.280034 0.550680 0.460625 0.125319
H5    H     H_    0.721097 0.735760 0.307460 0.094843
H6    H     H_    0.864065 0.681686 0.346850 0.127066
H7    H     H_    0.719075 0.446657 0.537429 0.115735
H8    H     H_    0.936553 0.609254 0.911264 0.160659
H9    H     H_    0.410015 0.631931 0.402578 0.090265
H10   H     H_    0.590539 0.367864 0.596890 0.094929
H11   H     H_    0.279369 0.266851 0.695824 0.160961
H12   H     H_    0.091109 0.658239 0.055401 0.133191
H13   H     H_    0.832996 0.437535 0.045072 0.167435
H14   H     H_    0.890581 0.571326 0.043841 0.103920
H15   H     H_    0.166477 0.574423 0.948852 0.114215
H16   H     H_    0.104058 0.657500 0.914846 0.121180
H17   H     H_    0.163390 0.580543 0.091610 0.122153
H18   H     H_    0.016160 0.245050 0.198221 0.161929
H19   H     H_    0.972383 0.204252 0.091324 0.172059
H20   H     H_    0.796767 0.116567 0.127770 0.151787
H21   H     H_    0.883760 0.070727 0.205699 0.118625
H22   H     H_    0.840822 0.157034 0.234214 0.175331
H23   H     H_    0.639979 0.842996 0.507648 0.115866
H24   H     H_    0.180871 0.428055 0.014320 0.107711
H25   H     H_    0.164585 0.445131 0.895403 0.155556
H26   H     H_    0.161145 0.274337 0.902110 0.195195
H27   H     H_    0.275615 0.352891 0.963461 0.102790
H28   H     H_    0.174973 0.255755 0.020175 0.158868
H29   H     H_    0.377464 0.182096 0.577015 0.189443
H30   H     H_    0.343404 0.117774 0.682105 0.159195
H31   H     H_    0.518071 0.122037 0.734442 0.158971
H32   H     H_    0.458375 0.058737 0.639683 0.116610
H33   H     H_    0.553561 0.186406 0.628030 0.142092
H34   H     H_    0.318571 0.762028 0.508341 0.139953
H35   H     H_    0.756975 0.344626 0.940411 0.128918
H36   H     H_    0.805152 0.358959 0.839345 0.140240
H37   H     H_    0.664721 0.404646 0.754533 0.173515
H38   H     H_    0.619562 0.281490 0.821294 0.127470
H39   H     H_    0.616389 0.390127 0.854177 0.171047
H40   H     H_    0.068358 0.853296 0.433337 0.154169
H41   H     H_    0.811851 0.969008 0.529766 0.141958
H42   H     H_    0.681772 0.237739 0.496975 0.124998
H43   H     H_    0.909019 0.339139 0.958471 0.163247
H44   H     H_    0.461748 0.796437 0.482176 0.099144
N1    N     N_R   0.795410 0.560790 0.443550 -0.232269
N2    N     N_R   0.204590 0.439170 0.556520 -0.229656
O1    O     O_R   0.977910 0.338120 0.529720 -0.366835
O2    O     O_3   0.039833 0.337795 0.950766 -0.578621
O3    O     O_3   0.444831 0.265418 0.684765 -0.591980
O4    O     O_3   0.816034 0.492646 0.872186 -0.561046
O5    O     O_R   0.839850 0.379180 0.491640 -0.537429
O6    O     O_R   0.069060 0.479460 0.639610 -0.450004
O7    O     O_R   0.931000 0.520530 0.601530 -0.504647
O8    O     O_R   0.160150 0.620820 0.508360 -0.526341
O9    O     O_R   0.022090 0.661880 0.470280 -0.510651
O10   O     O_R   0.069000 0.479470 0.398470 -0.500246
O11   O     O_R   0.930940 0.520540 0.360390 -0.502587
O12   O     O_3   0.923393 0.310709 0.112498 -0.587209

loop_
_geom_bond_atom_site_label_1
_geom_bond_atom_site_label_2
_ccdc_geom_bond_type
Cu1   O10   S    
C18   C21   A    
C6    C58   A    
C54   H37   S    
C19   C20   A    
C24   H6    S    
C7    C8    A    
C40   O2    S    
C53   C54   S    
C53   H35   S    
C43   H14   S    
C40   C46   S    
C39   F4    S    
C12   C23   S    
C26   C27   A    
C8    C13   A    
C5    C58   A    
C52   H31   S    
C36   C37   A    
C30   C31   A    
C31   H9    S    
C29   C33   A    
C52   H33   S    
Cu1   N2    S    
C23   C43   S    
C56   C57   T    
Cu2   O9    S    
C15   C17   A    
C42   C46   S    
C47   H18   S    
Cu2   N1    S    
C17   C19   A    
C42   O4    S    
C39   N2    A    
C31   C32   A    
C19   F3    S    
Cu1   O6    S    
C4    C57   S    
Cu1   O1    S    
C35   O3    S    
C25   H7    S    
C34   H17   S    
C47   H19   S    
C2    C16   S    
C9    C10   A    
C22   H5    S    
C25   N1    A    
Cu1   Cu2   S    
C49   H24   S    
C50   H26   S    
C41   H4    S    
C38   H11   S    
C53   H36   S    
C6    H42   S    
C2    C20   A    
C51   C52   S    
C54   H39   S    
C14   H2    S    
C3    C8    A    
C28   O10   A    
C16   O9    A    
C4    O6    A    
C28   O11   A    
C47   O12   S    
C25   C26   A    
C45   C46   S    
C28   C44   S    
C3    H41   S    
C48   H20   S    
C30   C37   A    
C35   C36   A    
C12   C40   S    
C9    C14   A    
C29   C30   A    
C16   O8    A    
C50   H27   S    
C47   C48   S    
C23   C34   S    
C13   H23   S    
C2    C21   A    
C42   H8    S    
C17   C18   A    
C15   F1    S    
Cu2   O7    S    
C45   H15   S    
C34   C45   S    
C51   O3    S    
C51   H29   S    
C40   H43   S    
C50   H28   S    
Cu1   O8    S    
C49   O2    S    
C22   C27   A    
C32   H3    S    
C48   H22   S    
C4    O7    A    
C42   C43   S    
C53   O4    S    
C7    C9    A    
C27   C32   A    
C14   C15   A    
C54   H38   S    
C24   N1    A    
C49   H25   S    
C3    C5    A    
C23   C55   S    
C6    C7    A    
C20   H40   S    
C43   H13   S    
C12   H1    S    
C41   N2    A    
C36   C38   A    
C1    C58   S    
C1    O1    A    
C21   H34   S    
C11   C13   A    
C44   C55   T    
C38   C39   A    
C10   C18   A    
C33   C35   A    
C5    F2    S    
C52   H32   S    
C45   H16   S    
C22   C24   A    
C37   C41   A    
Cu2   O11   S    
C10   C11   A    
C51   H30   S    
C33   H10   S    
C12   O12   S    
C26   C29   A    
C49   C50   S    
C46   C56   S    
C11   H44   S    
C48   H21   S    
Cu2   O5    S    
C1    O5    A    
C34   H12   S    
