data_mof_unit_7737.cif
_audit_creation_date              2012-12-11T15:50:37-0500
_audit_creation_method            fapswitch 2.2
_symmetry_space_group_name_H-M    P1
_symmetry_Int_Tables_number       1
_space_group_crystal_system       triclinic
_cell_length_a                    19.035509
_cell_length_b                    11.374629
_cell_length_c                    18.832467
_cell_angle_alpha                 90.167576
_cell_angle_beta                  90.949002
_cell_angle_gamma                 90.03368
_cell_volume                      4077.06306524

loop_
_atom_site_label
_atom_site_type_symbol
_atom_type_description
_atom_site_fract_x
_atom_site_fract_y
_atom_site_fract_z
_atom_type_partial_charge
C1    C     C_R   0.275209 0.041570 0.854378 0.531424
C2    C     C_R   0.766463 0.592271 0.926212 0.018266
C3    C     C_R   0.224133 0.534389 0.357947 0.536653
C4    C     C_R   0.466937 0.822336 0.646092 0.538263
C5    C     C_R   0.532896 0.823143 0.353411 0.537136
C6    C     C_R   0.966706 0.322303 0.645989 0.539872
C7    C     C_R   0.032913 0.323137 0.353404 0.537874
C8    C     C_R   0.258671 0.635696 0.645457 0.540987
C9    C     C_R   0.725490 0.688335 0.363014 0.569098
C10   C     C_R   0.758662 0.135632 0.645475 0.532332
C11   C     C_R   0.225540 0.188221 0.363019 0.570872
C12   C     C_3   0.475010 0.920558 0.028281 -0.157864
C13   C     C_R   0.733317 0.092059 0.073834 0.016626
C14   C     C_3   0.533794 0.918370 0.971801 -0.152170
C15   C     C_3   0.966565 0.419045 0.029266 -0.154362
C16   C     C_3   0.025370 0.419887 0.972795 -0.155920
C17   C     C_3   0.434173 0.825881 0.986766 -0.113376
C18   C     C_3   0.571999 0.820409 0.013309 -0.109780
C19   C     C_3   0.927381 0.322101 0.987265 -0.112936
C20   C     C_3   0.065225 0.324239 0.013888 -0.109832
C21   C     C_3   0.492504 0.824455 0.930805 0.046921
C22   C     C_3   0.513297 0.823950 0.068597 0.047929
C23   C     C_3   0.986173 0.324297 0.931924 0.048410
C24   C     C_R   0.262892 0.102687 0.922299 0.022698
C25   C     C_3   0.006913 0.324074 0.069740 0.045502
C26   C     C_R   0.082060 0.744609 0.586219 0.052505
C27   C     C_R   0.069029 0.661583 0.640130 -0.070390
C28   C     C_R   0.014642 0.677730 0.687753 -0.111917
C29   C     C_R   0.975073 0.780221 0.686041 -0.108262
C30   C     C_R   0.988903 0.865584 0.635346 -0.136542
C31   C     C_R   0.040927 0.847266 0.584418 -0.119969
C32   C     C_R   0.864618 0.535332 0.405333 0.065988
C33   C     C_R   0.822551 0.436175 0.419557 -0.083956
C34   C     C_R   0.814690 0.346715 0.369133 -0.121481
C35   C     C_R   0.303198 0.603039 0.050225 -0.002654
C36   C     C_R   0.849466 0.353365 0.304659 -0.102545
C37   C     C_R   0.892198 0.449846 0.290417 -0.080241
C38   C     C_R   0.900344 0.539942 0.340600 -0.043261
C39   C     C_R   0.580729 0.240318 0.586476 0.051239
C40   C     C_R   0.569896 0.158560 0.641646 -0.074312
C41   C     C_R   0.514554 0.171616 0.688403 -0.115088
C42   C     C_R   0.471008 0.269277 0.683945 -0.103805
C43   C     C_R   0.482373 0.353422 0.631900 -0.136506
C44   C     C_R   0.536280 0.338899 0.582537 -0.122322
C45   C     C_R   0.364091 0.032170 0.403288 0.066109
C46   C     C_R   0.701467 0.585041 0.956320 -0.010672
C47   C     C_R   0.321534 0.933300 0.416650 -0.084941
C48   C     C_R   0.313914 0.844482 0.365751 -0.120642
C49   C     C_R   0.349166 0.851777 0.301559 -0.096452
C50   C     C_R   0.392137 0.948280 0.288042 -0.073103
C51   C     C_R   0.400155 0.037568 0.338767 -0.041786
C52   C     C_R   0.108715 0.689722 0.063707 0.039180
C53   C     C_R   0.062458 0.608546 0.089393 -0.017651
C54   C     C_R   0.005048 0.641752 0.131668 -0.084726
C55   C     C_R   0.990120 0.760173 0.141455 -0.136606
C56   C     C_R   0.027979 0.841710 0.103073 -0.118695
C57   C     C_R   0.798288 0.084894 0.043686 -0.014176
C58   C     C_R   0.083076 0.801979 0.060946 -0.105473
C59   C     C_R   0.894548 0.683363 0.945493 0.024313
C60   C     C_R   0.938188 0.611277 0.909417 -0.020835
C61   C     C_R   0.997468 0.652202 0.873517 -0.107197
C62   C     C_R   0.017013 0.769191 0.881811 -0.135982
C63   C     C_R   0.983270 0.834930 0.933382 -0.120390
C64   C     C_R   0.927421 0.784466 0.970168 -0.111359
C65   C     C_R   0.605130 0.183779 0.054931 0.023182
C66   C     C_R   0.561956 0.112970 0.092254 -0.019631
C67   C     C_R   0.504495 0.155642 0.130513 -0.094639
C68   C     C_R   0.196550 0.103026 0.949734 0.002528
C69   C     C_R   0.484161 0.271855 0.120719 -0.131773
C70   C     C_R   0.516475 0.335504 0.067421 -0.118043
C71   C     C_R   0.572068 0.284459 0.030332 -0.110855
C72   C     C_R   0.391080 0.189231 0.936746 0.039635
C73   C     C_R   0.437496 0.107200 0.912234 -0.016296
C74   C     C_R   0.496496 0.139218 0.872088 -0.099733
C75   C     C_R   0.511777 0.257357 0.861810 -0.148526
C76   C     C_R   0.472567 0.340159 0.897868 -0.124097
C77   C     C_R   0.416661 0.301587 0.939061 -0.106445
C78   C     C_R   0.315009 0.635890 0.980363 -0.008583
C79   C     C_R   0.692518 0.602856 0.028299 0.004627
C80   C     C_R   0.807346 0.102963 0.971800 0.006872
C81   C     C_R   0.723927 0.039607 0.144800 0.538880
C82   C     C_R   0.184772 0.135894 0.019670 -0.010813
C83   C     C_R   0.194638 0.687445 0.965507 -0.168879
C84   C     C_R   0.814734 0.642455 0.043324 -0.174985
C85   C     C_R   0.685297 0.143555 0.956943 -0.174592
C86   C     C_R   0.305171 0.187754 0.034712 -0.169508
C87   C     C_R   0.181009 0.658542 0.036324 -0.037438
C88   C     C_R   0.823803 0.640309 0.970217 -0.042857
C89   C     C_R   0.675968 0.140501 0.030040 -0.042556
C90   C     C_R   0.318728 0.158749 0.963868 -0.038762
C91   C     C_3   0.347461 0.499138 0.044425 -0.295590
C92   C     C_R   0.776023 0.539810 0.855184 0.538725
C93   C     C_3   0.654825 0.483078 0.954674 -0.286198
C94   C     C_3   0.844636 0.982729 0.044834 -0.286150
C95   C     C_3   0.152053 0.999199 0.955197 -0.294871
C96   C     C_3   0.360586 0.536149 0.968155 -0.274329
C97   C     C_3   0.642022 0.506835 0.032794 -0.269857
C98   C     C_3   0.857527 0.006560 0.966824 -0.268606
C99   C     C_3   0.139006 0.036365 0.031575 -0.275784
C100  C     C_R   0.261052 0.667543 0.935267 -0.004216
C101  C     C_R   0.749706 0.616411 0.073231 0.003022
C102  C     C_R   0.750276 0.117300 0.926906 0.005833
C103  C     C_R   0.224778 0.541463 0.145626 0.530929
C104  C     C_R   0.238753 0.167686 0.064847 -0.006044
C105  C     C_R   0.510455 0.830582 0.426122 0.030668
C106  C     C_R   0.493788 0.826115 0.574129 0.013189
C107  C     C_R   0.010354 0.330575 0.426053 0.031486
C108  C     C_R   0.993164 0.326085 0.573924 0.014060
C109  C     C_R   0.469742 0.820699 0.855329 0.521429
C110  C     C_R   0.531769 0.820376 0.144315 0.520826
C111  C     C_R   0.967972 0.320557 0.855942 0.532755
C112  C     C_R   0.029987 0.320511 0.144943 0.510934
C113  C     C_R   0.499254 0.725643 0.461294 0.018391
C114  C     C_3   0.530385 0.726130 0.971449 -0.110572
C115  C     C_R   0.490421 0.723386 0.533389 0.025129
C116  C     C_R   0.998844 0.225627 0.461139 0.017584
C117  C     C_R   0.989655 0.223324 0.533180 0.023781
C118  C     C_R   0.509846 0.931489 0.539761 -0.179034
C119  C     C_R   0.518846 0.933883 0.466270 -0.148906
C120  C     C_R   0.009284 0.431514 0.539629 -0.178828
C121  C     C_R   0.018658 0.433887 0.466216 -0.148274
C122  C     C_3   0.443045 0.638114 0.446263 -0.278418
C123  C     C_3   0.430711 0.638904 0.524930 -0.255373
C124  C     C_3   0.942659 0.138278 0.445703 -0.277593
C125  C     C_3   0.472983 0.728832 0.028379 -0.111294
C126  C     C_3   0.929597 0.139462 0.524227 -0.255184
C127  C     C_R   0.231388 0.548744 0.433641 0.004654
C128  C     C_R   0.749821 0.602770 0.580987 0.013037
C129  C     C_R   0.731491 0.048861 0.433645 0.004885
C130  C     C_R   0.250242 0.101981 0.580731 0.013841
C131  C     C_R   0.175829 0.599925 0.470555 0.017213
C132  C     C_R   0.802912 0.658932 0.543318 0.011430
C133  C     C_R   0.675825 0.099522 0.470637 0.018245
C134  C     C_R   0.303816 0.155507 0.542533 0.011476
C135  C     C_R   0.182436 0.617430 0.541605 0.010161
C136  C     C_3   0.025563 0.228122 0.971863 -0.108696
C137  C     C_R   0.793640 0.686473 0.473243 0.016966
C138  C     C_R   0.682297 0.116686 0.541715 0.011455
C139  C     C_R   0.294414 0.183734 0.472649 0.016966
C140  C     C_R   0.287116 0.499207 0.546701 -0.164641
C141  C     C_R   0.672728 0.623044 0.477882 -0.165805
C142  C     C_R   0.787214 0.999126 0.546734 -0.164964
C143  C     C_R   0.172782 0.124615 0.478173 -0.166661
C144  C     C_R   0.283373 0.487145 0.472770 -0.165701
C145  C     C_R   0.682939 0.590222 0.549233 -0.173250
C146  C     C_R   0.783551 0.987369 0.472754 -0.165645
C147  C     C_3   0.968113 0.226768 0.028756 -0.112865
C148  C     C_R   0.182992 0.092118 0.549585 -0.172701
C149  C     C_3   0.135365 0.712823 0.460397 -0.269231
C150  C     C_3   0.876387 0.616018 0.531895 -0.258217
C151  C     C_3   0.634847 0.211952 0.460732 -0.269673
C152  C     C_3   0.376476 0.109578 0.530571 -0.257825
C153  C     C_3   0.146603 0.735258 0.539468 -0.115914
C154  C     C_3   0.865653 0.642790 0.454102 -0.127709
C155  C     C_3   0.645561 0.233732 0.539980 -0.115384
C156  C     C_3   0.365908 0.138336 0.453011 -0.127177
C157  C     C_R   0.272890 0.685656 0.858771 0.556575
C158  C     C_R   0.236910 0.602562 0.077741 0.020676
C159  C     C_R   0.738983 0.642321 0.147430 0.554259
C160  C     C_R   0.761103 0.142923 0.852708 0.542731
C161  C     C_R   0.227007 0.185774 0.141338 0.562199
C162  C     C_R   0.240820 0.576810 0.579927 0.000285
C163  C     C_R   0.729711 0.666096 0.438653 0.018634
C164  C     C_R   0.740798 0.076488 0.580009 0.000014
C165  C     C_R   0.230048 0.165419 0.438516 0.017470
C166  C     C_R   0.271158 0.045928 0.646738 0.546546
C167  C     C_R   0.724217 0.034572 0.357915 0.536201
C168  C     C_R   0.771129 0.545980 0.646727 0.544702
Cr1   Cr    Cr6+3 0.229640 0.835880 0.747370 1.003403
Cr2   Cr    Cr6+3 0.614230 0.677220 0.250660 1.011134
Cr3   Cr    Cr6+3 0.885770 0.177220 0.749340 1.002910
Cr4   Cr    Cr6+3 0.114230 0.177220 0.250660 1.008069
Cr5   Cr    Cr6+3 0.770360 0.835880 0.252630 0.983521
Cr6   Cr    Cr6+3 0.729640 0.335880 0.747370 1.004920
Cr7   Cr    Cr6+3 0.270360 0.335880 0.252630 0.980043
Cr8   Cr    Cr6+3 0.387390 0.989720 0.750850 0.976405
Cr9   Cr    Cr6+3 0.612610 0.989720 0.249150 0.983386
Cr10  Cr    Cr6+3 0.887390 0.489720 0.750850 0.977856
Cr11  Cr    Cr6+3 0.112610 0.489720 0.249150 0.985794
Cr12  Cr    Cr6+3 0.385770 0.677220 0.749340 1.000860
H1    H     H_    0.377317 0.835279 0.974660 0.103863
H2    H     H_    0.878726 0.180830 0.538096 0.155498
H3    H     H_    0.421213 0.020044 0.921104 0.151879
H4    H     H_    0.530468 0.074082 0.848931 0.110289
H5    H     H_    0.557067 0.283612 0.831660 0.125425
H6    H     H_    0.489803 0.430613 0.899887 0.103427
H7    H     H_    0.402832 0.346868 0.984127 0.115499
H8    H     H_    0.464580 0.553421 0.426610 0.135143
H9    H     H_    0.379781 0.679465 0.539375 0.155525
H10   H     H_    0.398427 0.673571 0.414507 0.145603
H11   H     H_    0.442412 0.553132 0.548737 0.128772
H12   H     H_    0.898398 0.173556 0.413424 0.145853
H13   H     H_    0.940227 0.053123 0.547903 0.127776
H14   H     H_    0.330365 0.459641 0.575935 0.125867
H15   H     H_    0.622455 0.606718 0.452218 0.144499
H16   H     H_    0.830526 0.959632 0.575981 0.127266
H17   H     H_    0.629151 0.820489 0.025925 0.114941
H18   H     H_    0.122159 0.110153 0.452865 0.144239
H19   H     H_    0.322809 0.434993 0.446434 0.137673
H20   H     H_    0.640677 0.548601 0.577564 0.132600
H21   H     H_    0.823112 0.935554 0.446370 0.137373
H22   H     H_    0.140336 0.053287 0.578620 0.132103
H23   H     H_    0.079526 0.698269 0.444902 0.128223
H24   H     H_    0.881942 0.521250 0.544576 0.153351
H25   H     H_    0.579158 0.196999 0.444851 0.127728
H26   H     H_    0.380523 0.014366 0.542700 0.151523
H27   H     H_    0.163162 0.777199 0.426592 0.130130
H28   H     H_    0.870215 0.323318 0.974702 0.114118
H29   H     H_    0.916088 0.673950 0.557926 0.149193
H30   H     H_    0.662541 0.277037 0.427325 0.129131
H31   H     H_    0.417125 0.165250 0.556730 0.151087
H32   H     H_    0.184123 0.809062 0.548918 0.145200
H33   H     H_    0.899957 0.715675 0.435919 0.109769
H34   H     H_    0.682244 0.308537 0.549858 0.146258
H35   H     H_    0.400886 0.210768 0.435460 0.109619
H36   H     H_    0.445973 0.995823 0.050686 0.113698
H37   H     H_    0.565019 0.992224 0.951544 0.108845
H38   H     H_    0.936761 0.493813 0.050763 0.106890
H39   H     H_    0.122062 0.333114 0.026203 0.104848
H40   H     H_    0.055717 0.494268 0.951455 0.114717
H41   H     H_    0.549876 0.648405 0.943449 0.114979
H42   H     H_    0.452755 0.654701 0.058856 0.121310
H43   H     H_    0.045131 0.153057 0.941493 0.121682
H44   H     H_    0.947833 0.149870 0.056736 0.114740
H45   H     H_    0.151540 0.719984 0.933224 0.138095
H46   H     H_    0.859198 0.664808 0.077298 0.132047
H47   H     H_    0.641012 0.166390 0.923037 0.132803
H48   H     H_    0.348371 0.220440 0.067063 0.138904
H49   H     H_    0.814252 0.900445 0.053462 0.160715
H50   H     H_    0.508888 0.012753 0.567994 0.135994
H51   H     H_    0.183971 0.918109 0.951080 0.144979
H52   H     H_    0.315356 0.418191 0.048265 0.146031
H53   H     H_    0.684971 0.400650 0.945678 0.160101
H54   H     H_    0.392860 0.501506 0.081707 0.123274
H55   H     H_    0.608957 0.494308 0.918523 0.121912
H56   H     H_    0.890555 0.993647 0.081038 0.120197
H57   H     H_    0.106645 0.001766 0.917942 0.125071
H58   H     H_    0.415181 0.561383 0.956473 0.143868
H59   H     H_    0.589243 0.541484 0.044909 0.150451
H60   H     H_    0.910398 0.040924 0.954858 0.149948
H61   H     H_    0.529996 0.016360 0.440712 0.136513
H62   H     H_    0.084484 0.061908 0.043346 0.144121
H63   H     H_    0.335637 0.477121 0.927792 0.168547
H64   H     H_    0.662133 0.437323 0.069264 0.159974
H65   H     H_    0.837293 0.937114 0.930091 0.158295
H66   H     H_    0.163928 0.977476 0.071784 0.169941
H67   H     H_    0.100102 0.582440 0.645468 0.122854
H68   H     H_    0.003772 0.610861 0.726423 0.139203
H69   H     H_    0.934108 0.793987 0.724387 0.129803
H70   H     H_    0.959571 0.946249 0.637391 0.121834
H71   H     H_    0.050800 0.914629 0.545361 0.096351
H72   H     H_    0.008271 0.512823 0.567887 0.133309
H73   H     H_    0.793841 0.429647 0.468500 0.103276
H74   H     H_    0.781590 0.272005 0.380064 0.106813
H75   H     H_    0.843361 0.283678 0.265771 0.118928
H76   H     H_    0.919035 0.454586 0.240416 0.108296
H77   H     H_    0.932746 0.615086 0.327971 0.092440
H78   H     H_    0.603119 0.082187 0.648347 0.122610
H79   H     H_    0.505924 0.105930 0.728436 0.141484
H80   H     H_    0.428717 0.280228 0.721126 0.139339
H81   H     H_    0.449183 0.429772 0.631459 0.115187
H82   H     H_    0.544594 0.405696 0.542703 0.096505
H83   H     H_    0.030080 0.516370 0.440744 0.136740
H84   H     H_    0.292470 0.926385 0.465367 0.102436
H85   H     H_    0.280597 0.769814 0.376066 0.107840
H86   H     H_    0.343177 0.782642 0.262293 0.120694
H87   H     H_    0.419278 0.953720 0.238192 0.112506
H88   H     H_    0.432899 0.112604 0.326799 0.091629
H89   H     H_    0.078220 0.521172 0.080097 0.152149
H90   H     H_    0.971804 0.577503 0.156351 0.107359
H91   H     H_    0.945845 0.787327 0.172885 0.112177
H92   H     H_    0.010617 0.932030 0.100702 0.101847
H93   H     H_    0.096827 0.846634 0.015690 0.114486
H94   H     H_    0.964321 0.053451 0.426399 0.135225
H95   H     H_    0.921897 0.523841 0.914022 0.168068
H96   H     H_    0.029664 0.593246 0.842986 0.115648
H97   H     H_    0.061972 0.804253 0.854520 0.122021
H98   H     H_    0.003482 0.919816 0.948972 0.094122
H99   H     H_    0.913358 0.818159 0.020092 0.122620
H100  H     H_    0.577952 0.025455 0.087503 0.169025
H101  H     H_    0.474603 0.098952 0.164612 0.113122
H102  H     H_    0.439979 0.307999 0.148865 0.113951
H103  H     H_    0.496075 0.419949 0.051589 0.093877
H104  H     H_    0.586436 0.318330 0.980695 0.123227
O1    O     O_R   0.214300 0.709080 0.827500 -0.539253
O2    O     O_R   0.543340 0.717710 0.330180 -0.528964
O3    O     O_R   0.956660 0.217710 0.669820 -0.517680
O4    O     O_R   0.043340 0.217710 0.330180 -0.529230
O5    O     O_R   0.320590 0.625770 0.672930 -0.510469
O6    O     O_R   0.679410 0.625770 0.327070 -0.499954
O7    O     O_R   0.820590 0.125770 0.672930 -0.514367
O8    O     O_R   0.179410 0.125770 0.327070 -0.493600
O9    O     O_3   0.334270 0.834280 0.749190 -0.277759
O10   O     O_3   0.665730 0.834280 0.250810 -0.284137
O11   O     O_3   0.834270 0.334280 0.749190 -0.261414
O12   O     O_R   0.785700 0.709080 0.172500 -0.543275
O13   O     O_3   0.165730 0.334280 0.250810 -0.300999
O14   O     O_R   0.236190 0.958390 0.823150 -0.518530
O15   O     O_R   0.763810 0.958390 0.176850 -0.505946
O16   O     O_R   0.736190 0.458390 0.823150 -0.504803
O17   O     O_R   0.263810 0.458390 0.176850 -0.520380
O18   O     O_R   0.332090 0.075280 0.831290 -0.525245
O19   O     O_R   0.667910 0.075280 0.168710 -0.525583
O20   O     O_R   0.832090 0.575280 0.831290 -0.532618
O21   O     O_R   0.167910 0.575280 0.168710 -0.516862
O22   O     O_R   0.446280 0.918040 0.826620 -0.543687
O23   O     O_R   0.714300 0.209080 0.827500 -0.546204
O24   O     O_R   0.553720 0.918040 0.173380 -0.548898
O25   O     O_R   0.946280 0.418040 0.826620 -0.548116
O26   O     O_R   0.053720 0.418040 0.173380 -0.542420
O27   O     O_R   0.457080 0.716270 0.831760 -0.524513
O28   O     O_R   0.542920 0.716270 0.168240 -0.520174
O29   O     O_R   0.957080 0.216270 0.831760 -0.518168
O30   O     O_R   0.042920 0.216270 0.168240 -0.526811
O31   O     O_R   0.320980 0.624440 0.823040 -0.496034
O32   O     O_R   0.679020 0.624440 0.176960 -0.489465
O33   O     O_R   0.820980 0.124440 0.823040 -0.498293
O34   O     O_R   0.285700 0.209080 0.172500 -0.536088
O35   O     O_R   0.179020 0.124440 0.176960 -0.485805
O36   O     O_R   0.213880 0.710510 0.665560 -0.521721
O37   O     O_R   0.786120 0.710510 0.334440 -0.523341
O38   O     O_R   0.713880 0.210510 0.665560 -0.526397
O39   O     O_R   0.286120 0.210510 0.334440 -0.518814
O40   O     O_R   0.235800 0.959720 0.673040 -0.506558
O41   O     O_R   0.764200 0.959720 0.326960 -0.527750
O42   O     O_R   0.735800 0.459720 0.673040 -0.507323
O43   O     O_R   0.264200 0.459720 0.326960 -0.527424
O44   O     O_R   0.331670 0.076720 0.669350 -0.520031
O45   O     O_R   0.445900 0.919370 0.676500 -0.522608
O46   O     O_R   0.668330 0.076720 0.330650 -0.515602
O47   O     O_R   0.831670 0.576720 0.669350 -0.520948
O48   O     O_R   0.168330 0.576720 0.330650 -0.513868
O49   O     O_R   0.554100 0.919370 0.323500 -0.520145
O50   O     O_R   0.945900 0.419370 0.676500 -0.524068
O51   O     O_R   0.054100 0.419370 0.323500 -0.518025
O52   O     O_R   0.456660 0.717710 0.669820 -0.515785

loop_
_geom_bond_atom_site_label_1
_geom_bond_atom_site_label_2
_ccdc_geom_bond_type
C3    O43   A    
C60   H95   S    
Cr12  O9    S    
C132  C150  S    
C108  C120  A    
C133  C151  S    
C6    C108  S    
Cr11  O26   S    
C5    C105  S    
C125  H42   S    
C65   C89   S    
C91   H54   S    
C4    O45   A    
C71   H104  S    
C14   C21   S    
C146  H21   S    
C81   O15   A    
C46   C79   A    
C95   C99   S    
C128  C145  A    
Cr6   O42   S    
C64   H99   S    
Cr9   O19   S    
Cr10  O20   S    
C5    O2    A    
C82   C99   S    
C142  C146  A    
C7    O4    A    
C25   C112  S    
C91   C96   S    
C50   H87   S    
C113  C122  S    
C152  C156  S    
C78   C96   S    
C103  O21   A    
C151  C155  S    
C117  C126  S    
C149  H23   S    
C141  C145  A    
C58   H93   S    
Cr9   O10   S    
C106  C118  A    
C130  C134  A    
C154  H33   S    
C45   C47   A    
Cr5   O12   S    
C68   C95   S    
C115  C123  S    
Cr6   O11   S    
C84   C88   A    
C1    O14   A    
C98   H65   S    
C86   C90   A    
C167  O46   A    
C102  C160  S    
C40   H78   S    
C132  C137  A    
C17   C21   S    
C19   C23   S    
C75   C76   A    
C37   C38   A    
C27   H67   S    
C122  H8    S    
C16   C20   S    
C109  O27   A    
C18   H17   S    
Cr8   O22   S    
C31   H71   S    
C25   C147  S    
C15   H38   S    
C119  H61   S    
C52   C58   A    
C32   C154  S    
C11   O8    A    
C152  H31   S    
C83   C100  A    
C166  O44   A    
C131  C149  S    
Cr10  O25   S    
C55   H91   S    
C12   H36   S    
C56   H92   S    
C134  C139  A    
Cr4   O13   S    
Cr6   O23   S    
C79   C97   S    
Cr8   O9    S    
C120  H72   S    
C95   H51   S    
C72   C73   A    
C24   C90   A    
C63   H98   S    
C35   C78   A    
C106  C115  A    
C6    O3    A    
C160  O23   A    
C8    C162  S    
C142  C164  A    
C126  H13   S    
Cr7   O43   S    
C30   C31   A    
C48   H85   S    
Cr5   O15   S    
Cr7   O13   S    
Cr6   O16   S    
Cr8   O18   S    
C114  H41   S    
Cr5   O37   S    
C69   C70   A    
C127  C131  A    
C111  O29   A    
Cr3   O33   S    
C80   C102  A    
Cr10  O11   S    
C11   C165  S    
Cr3   O29   S    
C110  O28   A    
C67   C69   A    
C147  H44   S    
C113  C115  A    
C41   C42   A    
C67   H101  S    
C86   C104  A    
C148  H22   S    
C53   C54   A    
C3    O48   A    
C23   C136  S    
C105  C113  A    
C36   C37   A    
C28   H68   S    
Cr4   O4    S    
C15   C25   S    
C74   H4    S    
C140  C162  A    
C12   C22   S    
C41   H79   S    
C95   H57   S    
C139  C165  A    
C149  C153  S    
C100  C157  S    
C11   O39   A    
Cr7   O34   S    
C66   C67   A    
C57   C80   A    
C168  O42   A    
C81   O19   A    
Cr6   O38   S    
C8    O5    A    
C143  C148  A    
C97   H59   S    
Cr11  O13   S    
C39   C40   A    
C137  C163  A    
C22   C125  S    
Cr4   O8    S    
C4    C106  S    
C151  H25   S    
Cr4   O30   S    
C29   H69   S    
C155  H34   S    
C17   C125  S    
C29   C30   A    
C72   C90   S    
C69   H102  S    
Cr12  O27   S    
C37   H76   S    
C45   C156  S    
C20   C136  S    
Cr8   O44   S    
C16   C23   S    
C57   C94   S    
Cr4   O35   S    
C19   H28   S    
C20   H39   S    
C7    C107  S    
C1    O18   A    
C93   C97   S    
C52   C53   A    
C124  C126  S    
C54   C55   A    
C82   C104  A    
C18   C22   S    
C96   H58   S    
C108  C117  A    
C153  H32   S    
C21   C109  S    
C4    O52   A    
C39   C44   A    
C47   H84   S    
C23   C111  S    
C110  O24   A    
C161  O35   A    
C68   C82   A    
C99   H62   S    
C167  O41   A    
C97   H64   S    
C54   H90   S    
C61   H96   S    
C56   C58   A    
C16   H40   S    
C34   C36   A    
C61   C62   A    
C107  C116  A    
C126  H2    S    
C63   C64   A    
C17   H1    S    
C59   C60   A    
C1    C24   S    
C49   C50   A    
C79   C101  A    
C26   C153  S    
C92   O20   A    
C85   C102  A    
C138  C155  S    
C83   C87   A    
C55   C56   A    
C151  H30   S    
C73   C74   A    
C150  H24   S    
Cr11  O48   S    
C15   C19   S    
C26   C27   A    
Cr7   O17   S    
Cr1   O1    S    
C28   C29   A    
Cr9   O49   S    
Cr3   O3    S    
C44   H82   S    
C9    O6    A    
Cr11  O51   S    
C98   H60   S    
C20   C25   S    
C94   C98   S    
C70   H103  S    
C13   C81   S    
C141  H15   S    
C9    C163  S    
C143  C165  A    
Cr12  O52   S    
C22   C110  S    
C12   C17   S    
C70   C71   A    
C85   H47   S    
C62   H97   S    
Cr1   O14   S    
C133  C138  A    
C149  H27   S    
C122  H10   S    
C112  O30   A    
C9    O37   A    
C66   H100  S    
C36   H75   S    
C159  O12   A    
C145  H20   S    
C104  C161  S    
C43   H81   S    
C85   C89   A    
C157  O1    A    
C93   H53   S    
C49   H86   S    
C2    C46   A    
C157  O31   A    
C60   C61   A    
C96   H63   S    
C62   C63   A    
C130  C166  S    
C134  C152  S    
C51   H88   S    
C156  H35   S    
C50   C51   A    
C129  C146  A    
Cr10  O50   S    
C48   C49   A    
C8    O36   A    
Cr1   O40   S    
C78   C100  A    
C42   C43   A    
C107  C121  A    
C123  H11   S    
C124  H12   S    
C152  H26   S    
C143  H18   S    
C112  O26   A    
C116  C124  S    
C80   C98   S    
C140  C144  A    
Cr1   O9    S    
C159  O32   A    
Cr2   O6    S    
C103  C158  S    
C10   O7    A    
Cr12  O31   S    
Cr3   O11   S    
C34   H74   S    
Cr12  O5    S    
Cr9   O24   S    
Cr2   O28   S    
C32   C33   A    
C35   C158  A    
C144  H19   S    
C73   H3    S    
C137  C154  S    
C127  C144  A    
C10   O38   A    
C19   C147  S    
C24   C68   A    
C111  O25   A    
C13   C57   A    
C101  C159  S    
C105  C119  A    
Cr11  O21   S    
C140  H14   S    
Cr8   O45   S    
C86   H48   S    
C14   C18   S    
C168  O47   A    
C43   C44   A    
C84   H46   S    
C18   C114  S    
Cr10  O47   S    
C93   H55   S    
C136  H43   S    
C59   C64   A    
C92   O16   A    
Cr2   O2    S    
C131  C135  A    
C3    C127  S    
C45   C51   A    
C5    O49   A    
C15   C16   S    
C116  C117  A    
C7    O51   A    
C118  C119  A    
Cr1   O36   S    
Cr9   O46   S    
C124  H94   S    
C166  O40   A    
C42   H80   S    
C14   H37   S    
C2    C88   A    
C32   C38   A    
C123  H9    S    
C26   C31   A    
C84   C101  A    
C75   H5    S    
C128  C132  A    
C160  O33   A    
C74   C75   A    
C129  C167  S    
C130  C148  A    
C150  H29   S    
C76   C77   A    
C114  C125  S    
C65   C71   A    
C109  O22   A    
C30   H70   S    
C161  O34   A    
C99   H66   S    
C72   C77   A    
C47   C48   A    
C33   C34   A    
C2    C92   S    
Cr7   O39   S    
C40   C41   A    
C12   C14   S    
C141  C163  A    
C53   H89   S    
C39   C155  S    
C77   H7    S    
C135  C162  A    
C129  C133  A    
C6    O50   A    
Cr5   O41   S    
C38   H77   S    
C76   H6    S    
C83   H45   S    
Cr2   O32   S    
C59   C88   S    
C10   C164  S    
C13   C89   A    
C52   C87   S    
C21   C114  S    
Cr5   O10   S    
C135  C153  S    
C87   C158  A    
C91   H52   S    
C33   H73   S    
C121  H83   S    
C94   H56   S    
C46   C93   S    
C139  C156  S    
C118  H50   S    
C136  C147  S    
C103  O17   A    
C65   C66   A    
C150  C154  S    
C27   C28   A    
C128  C168  S    
C142  H16   S    
C120  C121  A    
C138  C164  A    
C122  C123  S    
Cr2   O10   S    
C94   H49   S    
C35   C91   S    
Cr3   O7    S    
