data_mof_unit_59660.cif
_audit_creation_date              2012-12-11T14:01:43-0500
_audit_creation_method            fapswitch 2.2
_symmetry_space_group_name_H-M    P1
_symmetry_Int_Tables_number       1
_space_group_crystal_system       triclinic
_cell_length_a                    19.157733
_cell_length_b                    10.940337
_cell_length_c                    18.793468
_cell_angle_alpha                 89.588617
_cell_angle_beta                  90.105827
_cell_angle_gamma                 90.218419
_cell_volume                      3938.82490945

loop_
_atom_site_label
_atom_site_type_symbol
_atom_type_description
_atom_site_fract_x
_atom_site_fract_y
_atom_site_fract_z
_atom_type_partial_charge
C1    C     C_R   0.272505 0.043316 0.852723 0.558840
C2    C     C_R   0.006153 0.669410 0.961676 -0.133210
C3    C     C_3   0.312070 0.876864 0.060288 -0.429772
C4    C     C_3   0.517356 0.603283 0.458693 -0.224298
C5    C     C_3   0.568347 0.506808 0.431985 -0.402059
C6    C     C_3   0.600096 0.676621 0.609662 -0.230228
C7    C     C_3   0.577505 0.543891 0.622110 -0.405051
C8    C     C_3   0.054647 0.104609 0.463106 -0.243381
C9    C     C_3   0.059752 0.012867 0.524428 -0.457167
C10   C     C_3   0.122684 0.276455 0.606931 -0.266645
C11   C     C_3   0.118289 0.193929 0.672842 -0.401248
C12   C     C_R   0.496135 0.169543 0.034877 -0.134090
C13   C     C_R   0.506041 0.169419 0.961795 -0.133265
C14   C     C_2   0.250727 0.573185 0.919010 0.018665
C15   C     C_2   0.749454 0.573748 0.081350 0.016732
C16   C     C_2   0.750745 0.073304 0.919069 0.018487
C17   C     C_2   0.249448 0.073726 0.081364 0.017539
C18   C     C_2   0.250400 0.595360 0.080119 -0.123136
C19   C     C_2   0.749631 0.594304 0.919654 -0.123863
C20   C     C_2   0.750459 0.095511 0.080180 -0.123314
C21   C     C_R   0.727483 0.043714 0.147280 0.567095
C22   C     C_2   0.249660 0.094278 0.919664 -0.124861
C23   C     C_2   0.297734 0.538999 0.040168 -0.174211
C24   C     C_2   0.702563 0.537201 0.960368 -0.174442
C25   C     C_2   0.797807 0.039202 0.040221 -0.174089
C26   C     C_2   0.202567 0.037224 0.960367 -0.174519
C27   C     C_2   0.304865 0.574006 0.965549 -0.146781
C28   C     C_2   0.695340 0.572803 0.034715 -0.147445
C29   C     C_2   0.804903 0.074169 0.965588 -0.146780
C30   C     C_2   0.195347 0.072843 0.034713 -0.146785
C31   C     C_2   0.508075 0.832267 0.581951 -0.110907
C32   C     C_R   0.772510 0.543299 0.852733 0.564322
C33   C     C_2   0.567314 0.817290 0.436974 -0.134913
C34   C     C_2   0.998949 0.330001 0.577852 -0.093536
C35   C     C_2   0.063348 0.329536 0.435680 -0.132298
C36   C     C_2   0.552838 0.721798 0.481467 0.006335
C37   C     C_2   0.552781 0.746756 0.558922 -0.006226
C38   C     C_2   0.064232 0.237808 0.484058 -0.019728
C39   C     C_2   0.058450 0.274579 0.559454 0.015082
C40   C     C_2   0.239668 0.571347 0.582177 -0.105779
C41   C     C_2   0.760825 0.570439 0.417522 -0.100783
C42   C     C_2   0.737770 0.070162 0.584289 -0.098120
C43   C     C_R   0.227468 0.543677 0.147261 0.566336
C44   C     C_2   0.252425 0.057128 0.414975 -0.100981
C45   C     C_2   0.214937 0.499644 0.435025 -0.136670
C46   C     C_2   0.778815 0.508328 0.567242 -0.121107
C47   C     C_2   0.726766 0.036296 0.432422 -0.131174
C48   C     C_2   0.277759 0.026814 0.566041 -0.113596
C49   C     C_R   0.471180 0.822443 0.853155 0.537440
C50   C     C_R   0.528910 0.822618 0.146729 0.551609
C51   C     C_R   0.971233 0.322445 0.853111 0.533343
C52   C     C_R   0.028955 0.322616 0.146691 0.552870
C53   C     C_2   0.170679 0.567232 0.472757 -0.145732
C54   C     C_R   0.492718 0.059406 0.072307 -0.095591
C55   C     C_2   0.829875 0.539873 0.523696 -0.148867
C56   C     C_2   0.673296 0.071331 0.472524 -0.152625
C57   C     C_2   0.320996 0.987415 0.515310 -0.144985
C58   C     C_2   0.176138 0.586851 0.549524 -0.012462
C59   C     C_2   0.810428 0.614375 0.462865 0.000883
C60   C     C_2   0.678146 0.099862 0.547976 0.000345
C61   C     C_2   0.316104 0.036668 0.441652 -0.002716
C62   C     C_R   0.261267 0.635490 0.851098 0.551339
C63   C     C_R   0.738678 0.635865 0.148870 0.557861
C64   C     C_R   0.761271 0.135510 0.851114 0.552380
C65   C     C_R   0.508839 0.059162 0.925388 -0.093850
C66   C     C_R   0.238678 0.135859 0.148876 0.555090
C67   C     C_R   0.291290 0.997905 0.639995 0.566994
C68   C     C_R   0.711620 0.004413 0.360141 0.538582
C69   C     C_R   0.792430 0.493063 0.641593 0.579512
C70   C     C_R   0.207368 0.493566 0.358554 0.556899
C71   C     C_R   0.473512 0.824110 0.650250 0.536384
C72   C     C_R   0.566226 0.816685 0.358592 0.564637
C73   C     C_R   0.971697 0.324087 0.648961 0.539009
C74   C     C_R   0.066066 0.318337 0.358456 0.558817
C75   C     C_R   0.258881 0.634981 0.647282 0.538539
C76   C     C_R   0.992846 0.559412 0.072197 -0.095856
C77   C     C_R   0.739515 0.639425 0.355057 0.535026
C78   C     C_R   0.758711 0.135062 0.647752 0.541784
C79   C     C_R   0.239253 0.134549 0.353219 0.525974
C80   C     C_R   0.502433 0.832352 0.074159 -0.009245
C81   C     C_R   0.497797 0.831983 0.925595 -0.006439
C82   C     C_R   0.002591 0.332344 0.074070 -0.009287
C83   C     C_R   0.997958 0.331985 0.925504 -0.006688
C84   C     C_R   0.499116 0.945957 0.036997 0.018949
C85   C     C_R   0.501841 0.945788 0.961739 0.021677
C86   C     C_R   0.999269 0.445954 0.036903 0.018428
C87   C     C_R   0.008963 0.559148 0.925280 -0.093659
C88   C     C_R   0.001994 0.445782 0.961644 0.022167
C89   C     C_R   0.499539 0.722350 0.964093 -0.177593
C90   C     C_R   0.499671 0.722538 0.036643 -0.177203
C91   C     C_R   0.999794 0.222351 0.963992 -0.177711
C92   C     C_R   0.999923 0.222531 0.036542 -0.177122
C93   C     C_3   0.113587 0.647808 0.586350 -0.240100
C94   C     C_3   0.042334 0.638636 0.550591 -0.474827
C95   C     C_3   0.838325 0.746074 0.461003 -0.238036
C96   C     C_3   0.858260 0.798521 0.533551 -0.452385
C97   C     C_3   0.618403 0.175944 0.580266 -0.238127
C98   C     C_R   0.996249 0.669543 0.034757 -0.134257
C99   C     C_3   0.547719 0.163900 0.546030 -0.490564
C100  C     C_3   0.380431 0.074622 0.399513 -0.242788
C101  C     C_3   0.446320 0.020770 0.427602 -0.467486
C102  C     C_3   0.180840 0.512939 0.933786 -0.270510
C103  C     C_3   0.188543 0.375013 0.941764 -0.434019
C104  C     C_3   0.819571 0.515129 0.067116 -0.269823
C105  C     C_3   0.812214 0.377031 0.060176 -0.429087
C106  C     C_3   0.680823 0.013232 0.933946 -0.270501
C107  C     C_3   0.688429 0.875313 0.942133 -0.432928
C108  C     C_3   0.319527 0.014950 0.067182 -0.270045
Cr1   Cr    Cr6+3 0.230530 0.836340 0.748870 0.986096
Cr2   Cr    Cr6+3 0.614360 0.677860 0.250770 0.992071
Cr3   Cr    Cr6+3 0.885640 0.177860 0.749230 1.001546
Cr4   Cr    Cr6+3 0.114360 0.177860 0.250770 0.999436
Cr5   Cr    Cr6+3 0.769470 0.836340 0.251130 1.003581
Cr6   Cr    Cr6+3 0.730530 0.336340 0.748870 0.979879
Cr7   Cr    Cr6+3 0.269470 0.336340 0.251130 0.997391
Cr8   Cr    Cr6+3 0.387420 0.989430 0.750820 0.999943
Cr9   Cr    Cr6+3 0.612580 0.989430 0.249180 0.994560
Cr10  Cr    Cr6+3 0.887420 0.489430 0.750820 0.993912
Cr11  Cr    Cr6+3 0.112580 0.489430 0.249180 1.005368
Cr12  Cr    Cr6+3 0.385640 0.677860 0.749230 1.000898
H1    H     H_    0.497328 0.634122 0.938310 0.141953
H2    H     H_    0.724684 0.508858 0.549606 0.095971
H3    H     H_    0.132462 0.371592 0.624617 0.141371
H4    H     H_    0.779744 0.026835 0.451748 0.098503
H5    H     H_    0.235316 0.088299 0.553767 0.090938
H6    H     H_    0.283039 0.527943 0.555818 0.085308
H7    H     H_    0.738239 0.480099 0.425449 0.083904
H8    H     H_    0.775944 0.008197 0.563129 0.072517
H9    H     H_    0.207197 0.018518 0.441753 0.087228
H10   H     H_    0.481971 0.064999 0.128557 0.131259
H11   H     H_    0.519609 0.064573 0.869077 0.128035
H12   H     H_    0.982088 0.565026 0.128442 0.134069
H13   H     H_    0.500999 0.634338 0.063227 0.143319
H14   H     H_    0.019719 0.564539 0.868963 0.127777
H15   H     H_    0.991686 0.755326 0.062697 0.112202
H16   H     H_    0.011167 0.755083 0.932922 0.110690
H17   H     H_    0.491587 0.255321 0.062824 0.111216
H18   H     H_    0.511073 0.255097 0.933049 0.110298
H19   H     H_    0.329317 0.464499 0.060840 0.151964
H20   H     H_    0.671103 0.462018 0.940454 0.151085
H21   H     H_    0.829381 0.964677 0.060876 0.152018
H22   H     H_    0.171056 0.962122 0.940434 0.151288
H23   H     H_    0.355439 0.610548 0.949995 0.145897
H24   H     H_    0.997631 0.134127 0.938200 0.141992
H25   H     H_    0.644590 0.607965 0.049940 0.144711
H26   H     H_    0.855485 0.110622 0.949987 0.146235
H27   H     H_    0.144614 0.108097 0.049919 0.144476
H28   H     H_    0.220227 0.670525 0.057981 0.108639
H29   H     H_    0.779716 0.670075 0.941030 0.109085
H30   H     H_    0.720300 0.170714 0.058067 0.108444
H31   H     H_    0.279795 0.169969 0.941060 0.109626
H32   H     H_    0.582014 0.902116 0.461072 0.068563
H33   H     H_    0.480374 0.886370 0.543537 0.063969
H34   H     H_    0.063669 0.422241 0.454375 0.089257
H35   H     H_    0.001294 0.134326 0.063118 0.143584
H36   H     H_    0.959637 0.348359 0.537332 0.078024
H37   H     H_    0.038822 0.698839 0.502985 0.134653
H38   H     H_    0.030012 0.544427 0.536073 0.153653
H39   H     H_    0.002596 0.668196 0.589479 0.139052
H40   H     H_    0.107328 0.606042 0.640138 0.164267
H41   H     H_    0.123763 0.747534 0.590980 0.183513
H42   H     H_    0.812876 0.794595 0.570225 0.170636
H43   H     H_    0.902165 0.748109 0.557484 0.156662
H44   H     H_    0.875224 0.895079 0.526864 0.126768
H45   H     H_    0.884210 0.751449 0.425030 0.164192
H46   H     H_    0.129492 0.615884 0.445139 0.164951
H47   H     H_    0.797087 0.808348 0.441227 0.167703
H48   H     H_    0.546106 0.208192 0.492799 0.140473
H49   H     H_    0.537744 0.065216 0.543666 0.153737
H50   H     H_    0.507306 0.207252 0.579759 0.148434
H51   H     H_    0.608445 0.143164 0.635546 0.179395
H52   H     H_    0.632842 0.274428 0.579618 0.171977
H53   H     H_    0.448805 0.047249 0.483376 0.145033
H54   H     H_    0.444211 0.920023 0.422088 0.173320
H55   H     H_    0.491719 0.061051 0.399394 0.166623
H56   H     H_    0.375206 0.045192 0.343183 0.173211
H57   H     H_    0.883625 0.541531 0.542294 0.136629
H58   H     H_    0.386572 0.175621 0.401816 0.173791
H59   H     H_    0.210272 0.336890 0.891937 0.147810
H60   H     H_    0.222921 0.351465 0.987321 0.166204
H61   H     H_    0.137110 0.332202 0.951735 0.153969
H62   H     H_    0.155469 0.551337 0.981520 0.165037
H63   H     H_    0.145205 0.529854 0.888194 0.142717
H64   H     H_    0.789377 0.338412 0.109759 0.154586
H65   H     H_    0.778953 0.352921 0.013992 0.164965
H66   H     H_    0.863874 0.335071 0.051786 0.155002
H67   H     H_    0.844842 0.554143 0.019077 0.163779
H68   H     H_    0.623413 0.084663 0.446734 0.151330
H69   H     H_    0.855229 0.532825 0.112527 0.148048
H70   H     H_    0.710065 0.836924 0.892337 0.149650
H71   H     H_    0.722847 0.851846 0.987671 0.165662
H72   H     H_    0.636972 0.832677 0.952238 0.154398
H73   H     H_    0.655474 0.051890 0.981618 0.164828
H74   H     H_    0.645184 0.030029 0.888342 0.143506
H75   H     H_    0.289129 0.838357 0.109852 0.153810
H76   H     H_    0.278854 0.852794 0.014062 0.165364
H77   H     H_    0.363707 0.834764 0.051996 0.154744
H78   H     H_    0.344839 0.053863 0.019138 0.164381
H79   H     H_    0.363425 0.927084 0.529983 0.118945
H80   H     H_    0.355172 0.032609 0.112610 0.145273
H81   H     H_    0.619823 0.515799 0.458383 0.141438
H82   H     H_    0.547231 0.414261 0.443654 0.108452
H83   H     H_    0.575024 0.513269 0.373653 0.196353
H84   H     H_    0.489025 0.563340 0.504893 0.136547
H85   H     H_    0.475346 0.620531 0.419199 0.168390
H86   H     H_    0.520308 0.535570 0.629354 0.172526
H87   H     H_    0.593458 0.485931 0.577111 0.128403
H88   H     H_    0.603089 0.507812 0.670872 0.157429
H89   H     H_    0.654116 0.678886 0.588414 0.140566
H90   H     H_    0.255223 0.444143 0.459426 0.095025
H91   H     H_    0.602229 0.723150 0.662040 0.145636
H92   H     H_    0.112668 0.015661 0.548362 0.153003
H93   H     H_    0.019393 0.031415 0.565249 0.175271
H94   H     H_    0.050733 0.919445 0.503734 0.127629
H95   H     H_    0.002313 0.093752 0.438266 0.170416
H96   H     H_    0.094379 0.079420 0.423422 0.175406
H97   H     H_    0.086014 0.236771 0.714679 0.157227
H98   H     H_    0.096593 0.102774 0.660072 0.164047
H99   H     H_    0.171425 0.181717 0.695388 0.159374
H100  H     H_    0.168744 0.250079 0.575121 0.139494
O1    O     O_R   0.215090 0.709860 0.828130 -0.525566
O2    O     O_R   0.543740 0.718170 0.330000 -0.517220
O3    O     O_R   0.956260 0.218170 0.670000 -0.511557
O4    O     O_R   0.043740 0.218170 0.330000 -0.514949
O5    O     O_R   0.320940 0.626760 0.674370 -0.498493
O6    O     O_R   0.679060 0.626760 0.325630 -0.527091
O7    O     O_R   0.820940 0.126760 0.674370 -0.497837
O8    O     O_R   0.179060 0.126760 0.325630 -0.530693
O9    O     O_3   0.334530 0.834540 0.749640 -0.258298
O10   O     O_3   0.665470 0.834540 0.250360 -0.281095
O11   O     O_3   0.834530 0.334540 0.749640 -0.261765
O12   O     O_R   0.784910 0.709860 0.171870 -0.520269
O13   O     O_3   0.165470 0.334540 0.250360 -0.289912
O14   O     O_R   0.236990 0.958390 0.823710 -0.494514
O15   O     O_R   0.763010 0.958390 0.176290 -0.488591
O16   O     O_R   0.736990 0.458390 0.823710 -0.493812
O17   O     O_R   0.263010 0.458390 0.176290 -0.489846
O18   O     O_R   0.332380 0.074750 0.830850 -0.511086
O19   O     O_R   0.667620 0.074750 0.169150 -0.509079
O20   O     O_R   0.832380 0.574750 0.830850 -0.509790
O21   O     O_R   0.167620 0.574750 0.169150 -0.509579
O22   O     O_R   0.445800 0.917770 0.825070 -0.508575
O23   O     O_R   0.715090 0.209860 0.828130 -0.526036
O24   O     O_R   0.554200 0.917770 0.174930 -0.502895
O25   O     O_R   0.945800 0.417770 0.825070 -0.507771
O26   O     O_R   0.054200 0.417770 0.174930 -0.503265
O27   O     O_R   0.456410 0.716580 0.829970 -0.527287
O28   O     O_R   0.543590 0.716580 0.170030 -0.521057
O29   O     O_R   0.956410 0.216580 0.829970 -0.529263
O30   O     O_R   0.043590 0.216580 0.170030 -0.519030
O31   O     O_R   0.321080 0.625290 0.822650 -0.501823
O32   O     O_R   0.678920 0.625290 0.177350 -0.501404
O33   O     O_R   0.821080 0.125290 0.822650 -0.500753
O34   O     O_R   0.284910 0.209860 0.171870 -0.524418
O35   O     O_R   0.178920 0.125290 0.177350 -0.499685
O36   O     O_R   0.214930 0.711450 0.668160 -0.539535
O37   O     O_R   0.785070 0.711450 0.331840 -0.526036
O38   O     O_R   0.714930 0.211450 0.668160 -0.546264
O39   O     O_R   0.285070 0.211450 0.331840 -0.534742
O40   O     O_R   0.236850 0.959870 0.675420 -0.512183
O41   O     O_R   0.763150 0.959870 0.324580 -0.501242
O42   O     O_R   0.736850 0.459870 0.675420 -0.516792
O43   O     O_R   0.263150 0.459870 0.324580 -0.491394
O44   O     O_R   0.332230 0.076350 0.670880 -0.511050
O45   O     O_R   0.445660 0.919250 0.676780 -0.519782
O46   O     O_R   0.667770 0.076350 0.329120 -0.516664
O47   O     O_R   0.832230 0.576350 0.670880 -0.516476
O48   O     O_R   0.167770 0.576350 0.329120 -0.519628
O49   O     O_R   0.554340 0.919250 0.323220 -0.524443
O50   O     O_R   0.945660 0.419250 0.676780 -0.527331
O51   O     O_R   0.054340 0.419250 0.323220 -0.511511
O52   O     O_R   0.456260 0.718170 0.670000 -0.512431

loop_
_geom_bond_atom_site_label_1
_geom_bond_atom_site_label_2
_ccdc_geom_bond_type
Cr3   O33   S    
C87   C88   A    
C4    C36   S    
C35   C74   S    
C94   H39   S    
Cr4   O8    S    
C46   C55   D    
C55   C59   S    
Cr8   O9    S    
Cr4   O4    S    
C41   H7    S    
C101  H53   S    
C95   C96   S    
Cr11  O21   S    
Cr12  O31   S    
C80   C84   A    
C8    H95   S    
C100  H58   S    
C54   C84   A    
C49   O22   A    
C65   H11   S    
Cr10  O25   S    
C10   H100  S    
C48   C57   D    
C106  H74   S    
C6    H89   S    
C13   C65   A    
C43   O21   A    
C105  H65   S    
C28   H25   S    
C93   C94   S    
C97   H52   S    
C8    C38   S    
Cr5   O12   S    
C102  H63   S    
C23   H19   S    
C36   C37   S    
C51   O25   A    
Cr11  O26   S    
C99   H48   S    
C18   H28   S    
C73   O50   A    
C5    H81   S    
C38   C39   S    
C86   C88   A    
C14   C102  S    
C103  H59   S    
C106  C107  S    
C104  H69   S    
C9    H92   S    
C76   C98   A    
Cr4   O13   S    
C14   C62   S    
Cr8   O18   S    
Cr9   O10   S    
C33   C36   D    
C82   C92   A    
C4    H85   S    
C103  H60   S    
C62   O1    A    
C49   C81   S    
Cr2   O32   S    
C104  C105  S    
C46   C69   S    
C43   O17   A    
C33   C72   S    
C97   C99   S    
C48   H5    S    
C97   H51   S    
Cr1   O9    S    
Cr11  O13   S    
C6    C7    S    
C56   H68   S    
C20   H30   S    
C8    C9    S    
C20   C25   D    
C107  H72   S    
C100  H56   S    
Cr6   O23   S    
C27   H23   S    
C35   H34   S    
Cr12  O27   S    
C23   C27   S    
C14   C27   D    
Cr2   O10   S    
C11   H97   S    
C11   H99   S    
C68   O46   A    
Cr9   O46   S    
C42   H8    S    
C52   O30   A    
C9    H94   S    
C81   C89   A    
Cr1   O14   S    
C31   C71   S    
C83   C88   A    
C45   C53   D    
C1    C22   S    
C71   O45   A    
C77   O37   A    
C72   O2    A    
C57   H79   S    
C80   C90   A    
C17   C30   D    
C55   H57   S    
C87   H14   S    
C101  H54   S    
C102  C103  S    
C59   C95   S    
C79   O8    A    
C7    H86   S    
C50   O28   A    
C19   C32   S    
C95   H45   S    
C68   O41   A    
C31   H33   S    
C4    H84   S    
C67   O44   A    
C106  H73   S    
C25   C29   S    
C70   O43   A    
C54   H10   S    
C44   C61   D    
Cr8   O22   S    
C40   C58   D    
C73   O3    A    
Cr3   O11   S    
C34   C39   D    
C102  H62   S    
C66   O34   A    
Cr5   O10   S    
C35   C38   D    
C84   C85   A    
C41   C59   D    
C7    H87   S    
Cr8   O45   S    
Cr2   O6    S    
C17   C108  S    
C42   C60   D    
C91   C92   A    
C99   H50   S    
C90   H13   S    
C71   O52   A    
Cr4   O35   S    
Cr6   O16   S    
Cr5   O37   S    
C32   O20   A    
C9    H93   S    
C44   H9    S    
C82   C86   A    
C66   O35   A    
C98   H15   S    
C3    H75   S    
C31   C37   D    
C50   C80   S    
C10   C39   S    
C6    H91   S    
C105  H66   S    
C108  H80   S    
C93   H40   S    
C52   C82   S    
Cr4   O30   S    
C10   H3    S    
C69   O47   A    
C105  H64   S    
Cr8   O44   S    
C30   H27   S    
Cr9   O49   S    
C18   C23   D    
C75   O5    A    
C1    O14   A    
C53   C58   S    
C40   H6    S    
C45   H90   S    
C78   O38   A    
C6    C37   S    
C70   O48   A    
Cr3   O3    S    
C12   C13   A    
C57   C61   S    
Cr6   O38   S    
C11   H98   S    
Cr9   O19   S    
C49   O27   A    
Cr7   O43   S    
C2    C87   A    
C21   O19   A    
C47   C56   D    
C75   O36   A    
C93   H41   S    
C60   C97   S    
C94   H37   S    
C34   H36   S    
C72   O49   A    
C15   C104  S    
C24   C28   S    
C101  H55   S    
C61   C100  S    
C12   C54   A    
C15   C28   D    
Cr11  O51   S    
Cr2   O2    S    
C51   C83   S    
C47   C68   S    
Cr7   O13   S    
C74   O4    A    
Cr1   O1    S    
C42   C78   S    
Cr7   O17   S    
C91   H24   S    
C32   O16   A    
Cr10  O20   S    
C78   O7    A    
Cr5   O15   S    
C104  H67   S    
C22   H31   S    
C62   O31   A    
Cr10  O11   S    
C45   C70   S    
C103  H61   S    
C5    H82   S    
C44   C79   S    
C25   H21   S    
C67   O40   A    
C4    C5    S    
C8    H96   S    
C33   H32   S    
C52   O26   A    
Cr12  O9    S    
C5    H83   S    
C3    H77   S    
C7    H88   S    
C74   O51   A    
C40   C75   S    
C65   C85   A    
C69   O42   A    
C99   H49   S    
C16   C106  S    
C3    C108  S    
Cr3   O29   S    
C83   C91   A    
Cr5   O41   S    
Cr1   O36   S    
C50   O24   A    
C3    H76   S    
Cr12  O52   S    
C96   H43   S    
Cr3   O7    S    
C13   H18   S    
Cr1   O40   S    
C19   C24   D    
Cr6   O42   S    
C79   O39   A    
C1    O18   A    
Cr7   O39   S    
C18   C43   S    
C41   C77   S    
Cr10  O47   S    
C76   H12   S    
C16   C29   D    
C47   H4    S    
C21   O15   A    
Cr7   O34   S    
C89   H1    S    
Cr11  O48   S    
C107  H70   S    
C100  C101  S    
C19   H29   S    
C24   H20   S    
C96   H42   S    
C63   O32   A    
C92   H35   S    
C95   H47   S    
C48   C67   S    
C108  H78   S    
C29   H26   S    
C51   O29   A    
C2    H16   S    
Cr2   O28   S    
C10   C11   S    
C34   C73   S    
C64   O23   A    
Cr6   O11   S    
Cr9   O24   S    
C96   H44   S    
C53   H46   S    
C77   O6    A    
C56   C60   S    
C20   C21   S    
C2    C98   A    
C94   H38   S    
C22   C26   D    
C76   C86   A    
C107  H71   S    
C17   C66   S    
C15   C63   S    
C12   H17   S    
C46   H2    S    
C58   C93   S    
C16   C64   S    
C89   C90   A    
C26   H22   S    
C64   O33   A    
Cr12  O5    S    
C81   C85   A    
C63   O12   A    
Cr10  O50   S    
C26   C30   S    
