data_mof_unit_10599.cif
_audit_creation_date              2013-03-05T16:20:27-0500
_audit_creation_method            fapswitch 2.2
_symmetry_space_group_name_H-M    P1
_symmetry_Int_Tables_number       1
_space_group_crystal_system       triclinic
_cell_length_a                    23.591739
_cell_length_b                    29.564296
_cell_length_c                    8.437067
_cell_angle_alpha                 90.000099
_cell_angle_beta                  93.490336
_cell_angle_gamma                 89.996802
_cell_volume                      5873.71222322

loop_
_atom_site_label
_atom_site_type_symbol
_atom_site_description
_atom_site_fract_x
_atom_site_fract_y
_atom_site_fract_z
_atom_type_partial_charge
P1    P     P_3+3 0.879620 0.451210 0.061380 0.459520
P2    P     P_3+3 0.879620 0.548790 0.561380 0.459873
P3    P     P_3+3 0.379620 0.951210 0.061380 0.459540
P4    P     P_3+3 0.379620 0.048790 0.561380 0.459549
O1    O     O_2   0.885280 0.436300 0.888260 -0.364524
O2    O     O_2   0.885280 0.563700 0.388260 -0.364020
O3    O     O_2   0.385280 0.936300 0.888260 -0.364537
O4    O     O_2   0.385280 0.063700 0.388260 -0.364520
O5    O     O_3   0.933180 0.477650 0.134870 -0.415121
O6    O     O_3   0.933180 0.522350 0.634870 -0.415241
O7    O     O_3   0.433180 0.977650 0.134870 -0.415106
O8    O     O_3   0.433180 0.022350 0.634870 -0.415111
O9    O     O_3   0.980100 0.397030 0.639600 -0.362064
O10   O     O_3   0.980100 0.602970 0.139600 -0.361924
O11   O     O_3   0.480100 0.897030 0.639600 -0.362049
O12   O     O_3   0.480100 0.102970 0.139600 -0.362055
O13   O     O_2   0.884806 0.362888 0.709858 -0.413103
O14   O     O_2   0.884641 0.636927 0.209468 -0.412659
O15   O     O_2   0.384860 0.862855 0.710002 -0.413165
O16   O     O_2   0.384804 0.137117 0.209826 -0.413111
O17   O     O_3   0.821182 0.487856 0.052252 -0.554870
O18   O     O_3   0.821169 0.512163 0.552273 -0.554991
O19   O     O_3   0.321181 0.987854 0.052264 -0.554846
O20   O     O_3   0.321178 0.012154 0.552267 -0.554854
O21   O     O_3   0.965332 0.302392 0.677975 -0.499769
O22   O     O_3   0.965101 0.697548 0.178238 -0.498537
O23   O     O_3   0.465397 0.802387 0.677928 -0.499945
O24   O     O_3   0.465330 0.197608 0.177966 -0.499747
H1    H     H_    0.051598 0.313358 0.667296 0.131762
H2    H     H_    0.051676 0.687202 0.173096 0.132858
H3    H     H_    0.551641 0.813447 0.667119 0.131733
H4    H     H_    0.551600 0.186639 0.167340 0.131766
C1    C     C_3   0.029023 0.244669 0.592719 -0.092856
C2    C     C_3   0.028567 0.755065 0.090531 -0.093760
C3    C     C_3   0.529179 0.744711 0.592842 -0.092894
C4    C     C_3   0.529020 0.255325 0.092702 -0.092894
H5    H     H_    0.990408 0.226458 0.544930 0.148408
H6    H     H_    0.990180 0.772474 0.037060 0.146282
H7    H     H_    0.490598 0.726446 0.545113 0.148316
H8    H     H_    0.490407 0.273534 0.044872 0.148370
P5    P     P_3+3 0.120160 0.450850 0.628590 0.464936
P6    P     P_3+3 0.120160 0.549150 0.128590 0.465039
P7    P     P_3+3 0.620160 0.950850 0.628590 0.464954
P8    P     P_3+3 0.620160 0.049150 0.128590 0.464978
P9    P     P_3+3 0.065072 0.351936 0.085961 0.455790
P10   P     P_3+3 0.065130 0.648012 0.585713 0.454358
P11   P     P_3+3 0.565068 0.851926 0.085959 0.455946
P12   P     P_3+3 0.565074 0.148061 0.585949 0.455777
O25   O     O_2   0.114450 0.435960 0.801790 -0.363150
O26   O     O_2   0.114450 0.564040 0.301790 -0.362615
O27   O     O_2   0.614450 0.935960 0.801790 -0.363118
O28   O     O_2   0.614450 0.064040 0.301790 -0.363013
O29   O     O_3   0.019500 0.396970 0.050670 -0.373855
O30   O     O_3   0.019500 0.603030 0.550670 -0.372252
O31   O     O_3   0.519500 0.896970 0.050670 -0.373965
O32   O     O_3   0.519500 0.103030 0.550670 -0.373860
O33   O     O_2   0.114185 0.362053 0.979303 -0.407701
O34   O     O_2   0.114111 0.637836 0.478683 -0.408998
O35   O     O_2   0.614170 0.862008 0.979214 -0.407534
O36   O     O_2   0.614183 0.137942 0.479271 -0.407688
O37   O     O_3   0.178759 0.487345 0.638456 -0.549862
O38   O     O_3   0.178744 0.512636 0.138605 -0.549834
O39   O     O_3   0.678738 0.987365 0.638540 -0.549809
O40   O     O_3   0.678742 0.012634 0.138554 -0.549804
O41   O     O_3   0.032572 0.302683 0.010423 -0.458107
O42   O     O_3   0.032594 0.697263 0.510327 -0.458742
O43   O     O_3   0.532542 0.802673 0.010506 -0.457958
O44   O     O_3   0.532572 0.197316 0.510421 -0.458118
C5    C     C_3   0.980564 0.298047 0.081656 0.399137
C6    C     C_3   0.981417 0.702596 0.585327 0.394098
C7    C     C_3   0.480502 0.798087 0.081599 0.399438
C8    C     C_3   0.480569 0.201959 0.581676 0.399140
H9    H     H_    0.950375 0.324788 0.037627 0.118793
H10   H     H_    0.950774 0.675620 0.546109 0.115884
H11   H     H_    0.450355 0.824843 0.037450 0.118812
H12   H     H_    0.450379 0.175218 0.537674 0.118781
H13   H     H_    0.986759 0.299848 0.212930 -0.004164
H14   H     H_    0.988939 0.701800 0.716513 -0.003966
H15   H     H_    0.486657 0.799905 0.212877 -0.004161
H16   H     H_    0.486772 0.200164 0.712950 -0.004163
C9    C     C_3   0.954615 0.252131 0.040684 -0.741249
C10   C     C_3   0.955190 0.748255 0.541932 -0.737020
C11   C     C_3   0.454513 0.752183 0.040629 -0.741580
C12   C     C_3   0.454615 0.247875 0.540689 -0.741288
H17   H     H_    0.945652 0.249108 0.910742 0.315076
H18   H     H_    0.944466 0.750098 0.412369 0.314159
H19   H     H_    0.445601 0.749141 0.910670 0.314948
H20   H     H_    0.445646 0.250892 0.410748 0.315093
H21   H     H_    0.984142 0.224817 0.082689 0.262863
H22   H     H_    0.985344 0.775800 0.577736 0.265671
H23   H     H_    0.483991 0.724853 0.082786 0.262852
H24   H     H_    0.484142 0.275189 0.582669 0.262849
C13   C     C_3   0.161952 0.470148 0.192240 0.402325
C14   C     C_3   0.162023 0.529822 0.692332 0.401655
C15   C     C_3   0.661955 0.970147 0.192217 0.402213
C16   C     C_3   0.661953 0.029849 0.692246 0.402392
H25   H     H_    0.145497 0.473397 0.311676 0.088893
H26   H     H_    0.145725 0.526544 0.811945 0.088952
H27   H     H_    0.645517 0.973398 0.311673 0.088825
H28   H     H_    0.645535 0.026591 0.811723 0.088795
H29   H     H_    0.129066 0.454891 0.108873 0.138768
H30   H     H_    0.129042 0.545091 0.609282 0.138684
H31   H     H_    0.629059 0.954889 0.108885 0.138759
H32   H     H_    0.629043 0.045109 0.608958 0.138763
C17   C     C_3   0.213189 0.438825 0.202216 -0.882461
C18   C     C_3   0.213255 0.561148 0.701898 -0.881279
C19   C     C_3   0.713192 0.938824 0.202142 -0.881990
C20   C     C_3   0.713185 0.061172 0.702133 -0.882262
H33   H     H_    0.246067 0.452086 0.289940 0.273367
H34   H     H_    0.246263 0.547845 0.789158 0.273241
H35   H     H_    0.746077 0.952081 0.289850 0.273434
H36   H     H_    0.746090 0.047905 0.789770 0.273381
H37   H     H_    0.200401 0.404555 0.239661 0.223741
H38   H     H_    0.200524 0.595397 0.739742 0.223858
H39   H     H_    0.700406 0.904552 0.239578 0.223613
H40   H     H_    0.700404 0.095439 0.739644 0.223700
H41   H     H_    0.231342 0.436198 0.084134 0.266029
H42   H     H_    0.231219 0.563842 0.583584 0.266047
H43   H     H_    0.731333 0.936201 0.084044 0.266084
H44   H     H_    0.731301 0.063810 0.584005 0.266063
Ba1   Ba    Ba6+2 0.999920 0.468170 0.845000 1.553948
Ba2   Ba    Ba6+2 0.999920 0.531830 0.345000 1.553981
Ba3   Ba    Ba6+2 0.499920 0.968170 0.845000 1.553833
Ba4   Ba    Ba6+2 0.499920 0.031830 0.345000 1.553842
C21   C     C_3   0.837905 0.530232 0.997704 0.449062
C22   C     C_3   0.837882 0.469776 0.497782 0.449002
C23   C     C_3   0.337904 0.030237 0.997776 0.449136
C24   C     C_3   0.337898 0.969769 0.497787 0.449233
H45   H     H_    0.853314 0.526820 0.877141 0.084400
H46   H     H_    0.853287 0.473170 0.377206 0.084511
H47   H     H_    0.353318 0.026838 0.877213 0.084499
H48   H     H_    0.353314 0.973164 0.377226 0.084518
H49   H     H_    0.871527 0.545315 0.079145 0.135632
H50   H     H_    0.871504 0.454693 0.579232 0.135558
H51   H     H_    0.371521 0.045315 0.079243 0.135578
H52   H     H_    0.371512 0.954686 0.579260 0.135541
C25   C     C_3   0.786912 0.561807 0.990868 -0.962732
C26   C     C_3   0.786883 0.438213 0.491011 -0.962908
C27   C     C_3   0.286907 0.061807 0.990971 -0.962889
C28   C     C_3   0.286897 0.938207 0.490981 -0.963159
H53   H     H_    0.753143 0.548531 0.905889 0.272704
H54   H     H_    0.753117 0.451483 0.406000 0.272761
H55   H     H_    0.253149 0.048545 0.905928 0.272787
H56   H     H_    0.253142 0.951474 0.405932 0.272827
H57   H     H_    0.799527 0.595935 0.951523 0.217329
H58   H     H_    0.799491 0.404076 0.451745 0.217397
H59   H     H_    0.299522 0.095944 0.951730 0.217390
H60   H     H_    0.299508 0.904068 0.451746 0.217374
H61   H     H_    0.769985 0.564764 0.110443 0.269794
H62   H     H_    0.769953 0.435283 0.610591 0.269728
H63   H     H_    0.269964 0.064736 0.110535 0.269748
H64   H     H_    0.269952 0.935283 0.610543 0.269745
H65   H     H_    0.163360 0.676055 0.290946 0.198380
H66   H     H_    0.164014 0.324529 0.791060 0.199598
H67   H     H_    0.664012 0.175481 0.291054 0.199585
H68   H     H_    0.664156 0.824566 0.790989 0.199645
O45   O     O_3   0.066770 0.522240 0.054830 -0.414274
O46   O     O_3   0.066770 0.477760 0.554830 -0.414197
O47   O     O_3   0.566770 0.022240 0.054830 -0.414266
O48   O     O_3   0.566770 0.977760 0.554830 -0.414253
P13   P     P_3+3 0.933851 0.647575 0.103834 0.457915
P14   P     P_3+3 0.933953 0.352357 0.603861 0.457012
P15   P     P_3+3 0.433954 0.147646 0.103844 0.457025
P16   P     P_3+3 0.433977 0.852344 0.603885 0.456844
C29   C     C_3   0.016096 0.295306 0.601725 0.315639
C30   C     C_3   0.016316 0.704418 0.103906 0.317783
C31   C     C_3   0.516162 0.795337 0.601653 0.315709
C32   C     C_3   0.516099 0.204688 0.101737 0.315706
H69   H     H_    0.013277 0.307705 0.477357 -0.052365
H70   H     H_    0.014612 0.690982 0.980872 -0.052471
H71   H     H_    0.513297 0.807695 0.477235 -0.052336
H72   H     H_    0.513292 0.192282 0.977378 -0.052385
H73   H     H_    0.062894 0.238957 0.509212 0.064293
H74   H     H_    0.063465 0.760376 0.010021 0.064038
H75   H     H_    0.563064 0.739012 0.509367 0.064319
H76   H     H_    0.562899 0.261031 0.009216 0.064274
H77   H     H_    0.217173 0.656441 0.536672 0.191412
H78   H     H_    0.217855 0.343903 0.036603 0.191064
H79   H     H_    0.717849 0.156102 0.536601 0.191058
H80   H     H_    0.717993 0.843972 0.036451 0.190923
H81   H     H_    0.914049 0.248039 0.099079 0.191766
H82   H     H_    0.915564 0.753096 0.604370 0.190289
H83   H     H_    0.413915 0.748133 0.098890 0.191835
H84   H     H_    0.414052 0.251971 0.599097 0.191761
C33   C     C_R   0.170505 0.633745 0.045839 -0.289544
C34   C     C_R   0.170603 0.366384 0.545337 -0.291546
C35   C     C_R   0.670611 0.133615 0.045345 -0.291451
C36   C     C_R   0.670662 0.866428 0.545245 -0.291565
H85   H     H_    0.204968 0.624474 0.129879 0.159992
H86   H     H_    0.205189 0.375756 0.628823 0.159522
H87   H     H_    0.705193 0.124243 0.128849 0.159540
H88   H     H_    0.705251 0.875824 0.628688 0.159621
C37   C     C_R   0.127452 0.601557 0.011367 0.292269
C38   C     C_R   0.127404 0.398464 0.511302 0.293176
C39   C     C_R   0.627416 0.101534 0.011296 0.293008
C40   C     C_R   0.627425 0.898476 0.511273 0.293079
C41   C     C_R   0.122042 0.685253 0.861680 -0.353893
C42   C     C_R   0.121995 0.314715 0.362056 -0.352980
C43   C     C_R   0.622006 0.185282 0.862032 -0.352965
C44   C     C_R   0.622091 0.814732 0.361987 -0.352938
H89   H     H_    0.111027 0.718428 0.816264 0.142696
H90   H     H_    0.111094 0.281505 0.316736 0.143305
H91   H     H_    0.611100 0.218491 0.816710 0.143293
H92   H     H_    0.611245 0.781516 0.316620 0.143466
C45   C     C_R   0.092145 0.648426 0.794667 0.227552
C46   C     C_R   0.091940 0.351483 0.295091 0.226863
C47   C     C_R   0.591954 0.148514 0.795070 0.226896
C48   C     C_R   0.591978 0.851480 0.295070 0.226769
C49   C     C_R   0.878125 0.314999 0.326303 -0.349020
C50   C     C_R   0.878334 0.685046 0.826044 -0.350277
C51   C     C_R   0.378061 0.815015 0.326408 -0.348833
C52   C     C_R   0.378132 0.185003 0.826279 -0.349031
H93   H     H_    0.890431 0.281725 0.368395 0.155778
H94   H     H_    0.890685 0.718302 0.868188 0.155287
H95   H     H_    0.390351 0.781734 0.368462 0.155756
H96   H     H_    0.390432 0.218278 0.868369 0.155775
C53   C     C_R   0.907486 0.351928 0.394441 0.235442
C54   C     C_R   0.907605 0.648082 0.894254 0.234123
C55   C     C_R   0.407464 0.851931 0.394501 0.235429
C56   C     C_R   0.407497 0.148074 0.894418 0.235406
C57   C     C_R   0.828963 0.366539 0.143837 -0.321039
C58   C     C_R   0.829095 0.633552 0.643559 -0.320847
C59   C     C_R   0.328937 0.866575 0.143931 -0.321125
C60   C     C_R   0.328965 0.133461 0.643845 -0.321056
H97   H     H_    0.794456 0.375741 0.059825 0.154269
H98   H     H_    0.794593 0.624390 0.559480 0.154044
H99   H     H_    0.294435 0.875786 0.059914 0.154352
H100  H     H_    0.294454 0.124259 0.559849 0.154290
C61   C     C_R   0.872018 0.398800 0.178321 0.307490
C62   C     C_R   0.872065 0.601225 0.678208 0.308406
C63   C     C_R   0.372018 0.898810 0.178361 0.307509
C64   C     C_R   0.372024 0.101201 0.678317 0.307529
C65   C     C_R   0.166225 0.678415 0.980868 0.111283
C66   C     C_R   0.166302 0.321674 0.480837 0.111815
C67   C     C_R   0.666310 0.178325 0.980829 0.111823
C68   C     C_R   0.666404 0.821721 0.480739 0.111696
C69   C     C_R   0.090223 0.608369 0.879481 -0.440862
C70   C     C_R   0.090014 0.391560 0.379812 -0.441087
C71   C     C_R   0.590030 0.108439 0.879798 -0.441106
C72   C     C_R   0.590020 0.891552 0.379822 -0.441215
H101  H     H_    0.062222 0.581444 0.836825 0.157991
H102  H     H_    0.061927 0.418445 0.337272 0.158202
H103  H     H_    0.561945 0.081555 0.837260 0.158195
H104  H     H_    0.561899 0.918419 0.337330 0.158252
C73   C     C_R   0.833504 0.321786 0.208310 0.090814
C74   C     C_R   0.833706 0.678305 0.708026 0.092143
C75   C     C_R   0.333446 0.821825 0.208424 0.090631
C76   C     C_R   0.333508 0.178215 0.708302 0.090820
C77   C     C_R   0.909189 0.392042 0.310267 -0.454520
C78   C     C_R   0.909226 0.607951 0.810178 -0.453855
C79   C     C_R   0.409197 0.892040 0.310291 -0.454668
C80   C     C_R   0.409201 0.107959 0.810249 -0.454495
H105  H     H_    0.937026 0.419015 0.353406 0.158706
H106  H     H_    0.936986 0.580940 0.853437 0.158563
H107  H     H_    0.437062 0.919000 0.353387 0.158766
H108  H     H_    0.437042 0.080986 0.853386 0.158716
C81   C     C_R   0.209093 0.752719 0.770804 -0.125284
C82   C     C_R   0.209223 0.247500 0.270765 -0.125138
C83   C     C_R   0.709226 0.252504 0.770765 -0.125137
C84   C     C_R   0.709432 0.747644 0.270567 -0.125210
C85   C     C_R   0.723761 0.288434 0.675656 -0.146486
C86   C     C_R   0.723972 0.711731 0.175399 -0.146608
C87   C     C_R   0.223720 0.788637 0.675764 -0.147389
C88   C     C_R   0.223756 0.211570 0.175653 -0.146431
C89   C     C_R   0.768729 0.315712 0.724889 -0.090121
C90   C     C_R   0.768941 0.684446 0.224592 -0.090412
C91   C     C_R   0.268773 0.815822 0.725012 -0.089527
C92   C     C_R   0.268723 0.184286 0.224886 -0.090094
C93   C     C_R   0.795923 0.308623 0.873324 -0.071789
C94   C     C_R   0.796147 0.691518 0.373036 -0.072006
C95   C     C_R   0.295947 0.808673 0.873432 -0.071960
C96   C     C_R   0.295918 0.191371 0.373320 -0.071787
C97   C     C_R   0.771859 0.281124 0.988031 0.046987
C98   C     C_R   0.772082 0.719005 0.487783 0.046917
C99   C     C_R   0.271795 0.781215 0.988099 0.046759
C100  C     C_R   0.271857 0.218874 0.488028 0.046985
C101  C     C_R   0.228426 0.749861 0.933189 0.142074
C102  C     C_R   0.228551 0.250290 0.433169 0.140971
C103  C     C_R   0.728554 0.249711 0.933169 0.140976
C104  C     C_R   0.728754 0.750409 0.432974 0.140763
C105  C     C_R   0.792721 0.283332 0.150728 -0.035988
C106  C     C_R   0.792955 0.716789 0.650473 -0.035408
C107  C     C_R   0.292632 0.783404 0.150813 -0.036232
C108  C     C_R   0.292721 0.216668 0.650723 -0.035965
C109  C     C_R   0.772214 0.249528 0.255141 0.085459
C110  C     C_R   0.772442 0.750588 0.754917 0.085150
C111  C     C_R   0.272012 0.749657 0.255225 0.086003
C112  C     C_R   0.272213 0.250471 0.755141 0.085447
C113  C     C_R   0.228063 0.718885 0.200773 0.073048
C114  C     C_R   0.228385 0.281360 0.700699 0.074932
C115  C     C_R   0.728386 0.218641 0.200696 0.074933
C116  C     C_R   0.728569 0.781448 0.700531 0.075077
C117  C     C_R   0.207154 0.716709 0.038310 -0.024963
C118  C     C_R   0.207350 0.283466 0.538297 -0.023475
C119  C     C_R   0.707354 0.216535 0.038292 -0.023492
C120  C     C_R   0.707514 0.783549 0.538149 -0.023432
C121  C     C_R   0.793439 0.244985 0.415519 -0.325007
C122  C     C_R   0.793698 0.755153 0.915262 -0.324903
C123  C     C_R   0.293242 0.745040 0.415570 -0.324624
C124  C     C_R   0.293438 0.255011 0.915519 -0.325020
C125  C     C_R   0.280256 0.707587 0.507765 0.393145
C126  C     C_R   0.280646 0.292501 0.007776 0.393456
C127  C     C_R   0.780645 0.207495 0.507773 0.393481
C128  C     C_R   0.780865 0.792633 0.007534 0.393581
C129  C     C_R   0.233030 0.682048 0.459508 -0.236535
C130  C     C_R   0.233604 0.318239 0.959457 -0.238350
C131  C     C_R   0.733600 0.181764 0.459455 -0.238306
C132  C     C_R   0.733775 0.818326 0.959286 -0.238402
C133  C     C_R   0.204028 0.691452 0.315295 -0.138969
C134  C     C_R   0.204584 0.308964 0.815198 -0.133483
C135  C     C_R   0.704582 0.191042 0.315194 -0.133522
C136  C     C_R   0.704747 0.809029 0.815064 -0.133530
H109  H     H_    0.186090 0.726592 0.707813 0.146751
H110  H     H_    0.186276 0.273694 0.207892 0.147316
H111  H     H_    0.686279 0.226314 0.707888 0.147303
H112  H     H_    0.686470 0.773843 0.207761 0.147354
H113  H     H_    0.205097 0.791661 0.555693 0.170612
H114  H     H_    0.205131 0.208597 0.055569 0.171537
H115  H     H_    0.705136 0.291409 0.555572 0.171517
H116  H     H_    0.705344 0.708770 0.055314 0.171571
H117  H     H_    0.784720 0.340046 0.643222 0.154048
H118  H     H_    0.784906 0.660118 0.142866 0.154323
H119  H     H_    0.284823 0.840134 0.643371 0.154076
H120  H     H_    0.284712 0.159949 0.143219 0.154050
H121  H     H_    0.836064 0.324743 0.898542 0.174307
H122  H     H_    0.836293 0.675396 0.398257 0.174958
H123  H     H_    0.336126 0.824729 0.898722 0.174259
H124  H     H_    0.336058 0.175248 0.398536 0.174317
H125  H     H_    0.816755 0.270883 0.478274 0.179729
H126  H     H_    0.817060 0.729278 0.978007 0.179646
H127  H     H_    0.316725 0.770840 0.478348 0.179661
H128  H     H_    0.316753 0.229108 0.978271 0.179742
N1    N     N_R   0.048086 0.226404 0.747429 0.288553
O49   O     O_R   0.022713 0.191308 0.803307 -0.345722
O50   O     O_R   0.095811 0.240045 0.816783 -0.388091
N2    N     N_R   0.045372 0.774837 0.244673 0.288210
O51   O     O_R   0.092696 0.762467 0.319652 -0.386175
O52   O     O_R   0.018283 0.809891 0.294685 -0.342722
N3    N     N_R   0.548267 0.726512 0.747630 0.288659
O53   O     O_R   0.522922 0.691429 0.803698 -0.345920
O54   O     O_R   0.595981 0.740204 0.816904 -0.388070
N4    N     N_R   0.548068 0.273599 0.247409 0.288547
O55   O     O_R   0.595790 0.259963 0.316801 -0.388091
O56   O     O_R   0.522683 0.308698 0.303244 -0.345817
N5    N     N_R   0.811549 0.198778 0.657240 0.240761
O57   O     O_R   0.856760 0.222106 0.699455 -0.393348
O58   O     O_R   0.796806 0.165699 0.747882 -0.405341
N6    N     N_R   0.811781 0.801373 0.156963 0.241079
O59   O     O_R   0.857051 0.778099 0.199070 -0.390948
O60   O     O_R   0.796995 0.834427 0.247656 -0.404749
N7    N     N_R   0.311152 0.698736 0.657149 0.240730
O61   O     O_R   0.356474 0.721926 0.699408 -0.393182
O62   O     O_R   0.296276 0.665674 0.747673 -0.405598
N8    N     N_R   0.311550 0.301214 0.157244 0.240746
O63   O     O_R   0.356760 0.277881 0.199456 -0.393362
O64   O     O_R   0.296809 0.334294 0.247889 -0.405409

loop_
_geom_bond_atom_site_label_1
_geom_bond_atom_site_label_2
_geom_bond_distance
_ccdc_geom_bond_type
P10   C45   1.837812 S    
C33   C65   1.431085 A    
C77   H105  1.081958 S    
C42   C46   1.398114 A    
O27   Ba3   2.908604 S    
C94   C98   1.409546 A    
C96   H124  1.069896 S    
P5    O37   1.751672 S    
C25   H61   1.110845 S    
P7    O39   1.751660 S    
N1    O49   1.300617 A    
P8    O40   1.751659 S    
C87   C91   1.376457 A    
P9    O33   1.539073 D    
C130  C134  1.387041 A    
C53   C77   1.384172 A    
C66   C118  1.546456 S    
C15   H27   1.105885 S    
C57   H97   1.081144 S    
C72   H104  1.081952 S    
C20   H44   1.110817 S    
C25   H53   1.110532 S    
C91   H119  1.079928 S    
C98   C106  1.431287 A    
C6    H10   1.113152 S    
C111  C113  1.433814 A    
C64   C80   1.389020 A    
P4    O8    1.580058 S    
C28   H64   1.110846 S    
C16   C20   1.520945 S    
P14   C53   1.837827 S    
C44   C48   1.398178 A    
C18   H42   1.110821 S    
C127  N5    1.440934 S    
C60   H100  1.081147 S    
P5    O25   1.539905 D    
C89   H117  1.079966 S    
H65   C133  1.070504 S    
C29   H69   1.109650 S    
O31   Ba3   2.749132 S    
C122  H126  1.064720 S    
C13   H29   1.110711 S    
O37   C14   1.400478 S    
C31   H71   1.109654 S    
C52   C56   1.397799 A    
O16   P15   1.538601 D    
O39   C16   1.400526 S    
C113  C117  1.429680 A    
C34   H86   1.081081 S    
C115  C119  1.429956 A    
C2    H74   1.109941 S    
C43   C67   1.418369 A    
O22   C30   1.409505 S    
C12   H84   1.109357 S    
O44   C8    1.405409 S    
C112  C124  1.420282 A    
C11   H83   1.109353 S    
C46   C70   1.385930 A    
C8    C12   1.520313 S    
H3    C31   1.111789 S    
C16   H32   1.110714 S    
C90   C94   1.387948 A    
C59   C63   1.410602 A    
P6    O45   1.584736 S    
P4    C64   1.851462 S    
C76   C108  1.548304 S    
C2    N2    1.458572 S    
C81   C87   1.386858 A    
C82   C88   1.386854 A    
C12   H20   1.107434 S    
O3    Ba3   2.907933 S    
N2    O51   1.301677 A    
C83   C85   1.386857 A    
C82   H110  1.067306 S    
C11   H23   1.110315 S    
C126  C130  1.386253 A    
O22   P13   1.750483 S    
C49   C53   1.397815 A    
O10   P13   1.726353 S    
C68   C120  1.546433 S    
C3    H75   1.109947 S    
O28   Ba4   2.908701 S    
O42   C6    1.405705 S    
Ba3   O47   2.799473 S    
C103  C119  1.432790 A    
Ba4   O48   2.799377 S    
N6    O59   1.301533 A    
O12   Ba4   2.747097 S    
C6    C10   1.520307 S    
C23   H47   1.105461 S    
P3    O7    1.580128 S    
O24   C32   1.409188 S    
P11   O35   1.539139 D    
P5    O46   1.584667 S    
C21   H45   1.105458 S    
C14   H30   1.110739 S    
O38   C13   1.400533 S    
P8    O47   1.584736 S    
C14   H26   1.105868 S    
C71   H103  1.081953 S    
C125  N7    1.440965 S    
C61   C77   1.389005 A    
C81   C101  1.419901 A    
P9    C46   1.838213 S    
C5    H13   1.109591 S    
O7    Ba4   2.801485 S    
C4    C32   1.530608 S    
C52   C76   1.418379 A    
C63   C79   1.389061 A    
C7    H15   1.109576 S    
Ba3   Ba4   4.619323 S    
C19   H39   1.108595 S    
C39   C71   1.389725 A    
H78   C130  1.080182 S    
O14   P13   1.538564 D    
C59   H99   1.081153 S    
C84   H112  1.067329 S    
C102  C118  1.432772 A    
P4    Ba4   3.502814 S    
C51   C75   1.418337 A    
C27   H55   1.110534 S    
C92   C96   1.387823 A    
C42   H90   1.079058 S    
C99   C107  1.431206 A    
P6    O38   1.751664 S    
C131  C135  1.387038 A    
P8    O28   1.539898 D    
C126  N8    1.440933 S    
P9    O29   1.725701 S    
P10   O34   1.538912 D    
C91   C95   1.387798 A    
C15   H31   1.110711 S    
C7    C11   1.520349 S    
C113  C133  1.407004 A    
C115  C135  1.407295 A    
C116  C120  1.429934 A    
P3    C63   1.851428 S    
C41   C65   1.418078 A    
C100  C108  1.431256 A    
C59   C75   1.431989 A    
C112  C114  1.433929 A    
P6    C37   1.851781 S    
P2    O18   1.751362 S    
O9    Ba1   2.747133 S    
C44   H92   1.079080 S    
O25   Ba1   2.908604 S    
C38   C70   1.389734 A    
C22   H50   1.110772 S    
P6    O26   1.539898 D    
H66   C134  1.070281 S    
P16   C55   1.837851 S    
C30   H70   1.109899 S    
Ba1   O46   3.005235 S    
P9    O41   1.747842 S    
C50   C74   1.418473 A    
P7    Ba3   3.503310 S    
C17   H33   1.110520 S    
C114  C118  1.429955 A    
C19   H35   1.110519 S    
C34   C38   1.408867 A    
C1    C29   1.530607 S    
C33   H85   1.081057 S    
C51   C55   1.397818 A    
C10   H82   1.109886 S    
C110  C116  1.433994 A    
C36   H88   1.081086 S    
C24   C28   1.520989 S    
C8    H16   1.109594 S    
C73   C105  1.548363 S    
O8    Ba3   2.801388 S    
C26   H58   1.108497 S    
C129  C133  1.387266 A    
C16   H28   1.105879 S    
C27   H63   1.110846 S    
C104  C120  1.432668 A    
H68   C136  1.070311 S    
P1    Ba1   3.502862 S    
P2    C62   1.851446 S    
C128  C132  1.386278 A    
C58   C62   1.410777 A    
N8    O63   1.301540 A    
O20   C24   1.399688 S    
C12   H24   1.110316 S    
C4    N4    1.458138 S    
C9    H17   1.107433 S    
C132  C136  1.386976 A    
O24   P15   1.750603 S    
C34   C66   1.430701 A    
C83   H111  1.067299 S    
C78   H106  1.081964 S    
C11   H19   1.107465 S    
H80   C132  1.080204 S    
O10   Ba2   2.747097 S    
C13   H25   1.105878 S    
C54   C78   1.384041 A    
C41   C45   1.397867 A    
O26   Ba2   2.908701 S    
O9    P14   1.726459 S    
C92   H120  1.079963 S    
C111  C123  1.420273 A    
P11   C48   1.838350 S    
P1    O1    1.539255 D    
O32   Ba4   2.749167 S    
C25   H57   1.108507 S    
C23   H51   1.110766 S    
P10   O42   1.747643 S    
P3    O3    1.539255 D    
C24   H52   1.110769 S    
C40   C72   1.389769 A    
P4    O20   1.751358 S    
N4    O56   1.300619 A    
C22   H46   1.105470 S    
H1    C29   1.111779 S    
C89   C93   1.387820 A    
C75   C107  1.548148 S    
C83   C103  1.419906 A    
C60   C76   1.432057 A    
C22   C26   1.520992 S    
N7    O61   1.301554 A    
P3    Ba3   3.502862 S    
C82   C102  1.419909 A    
C5    H9    1.112656 S    
N5    O58   1.301782 A    
C47   C71   1.385921 A    
C9    H21   1.110315 S    
N1    O50   1.300966 A    
C55   C79   1.384249 A    
P13   C54   1.837652 S    
C43   H91   1.079053 S    
C17   H41   1.110815 S    
H79   C131  1.080183 S    
C19   H43   1.110817 S    
C124  C126  1.397864 A    
P2    Ba2   3.502814 S    
C123  H127  1.064702 S    
C107  C111  1.435401 A    
O11   P16   1.726363 S    
C108  C112  1.435541 A    
P1    O5    1.580128 S    
N2    O52   1.301233 A    
C26   H54   1.110530 S    
O4    Ba4   2.907836 S    
O21   C29   1.409184 S    
C10   H18   1.108254 S    
P8    Ba4   3.503355 S    
C1    H5    1.112505 S    
C20   H36   1.110520 S    
C3    H7    1.112504 S    
C85   C89   1.376537 A    
P5    C38   1.851378 S    
C79   H107  1.081956 S    
N3    O53   1.300614 A    
C96   C100  1.409546 A    
P10   O30   1.725180 S    
N6    O60   1.301782 A    
O5    Ba2   2.801485 S    
C121  C127  1.397868 A    
P12   O44   1.747840 S    
C45   C69   1.385834 A    
Ba1   Ba2   4.619323 S    
C15   C19   1.520938 S    
C114  C134  1.407295 A    
C98   C104  1.436328 A    
O17   C21   1.399707 S    
C49   C73   1.418391 A    
O19   C23   1.399696 S    
C17   H37   1.108597 S    
C109  C115  1.433955 A    
P8    C39   1.851423 S    
C109  C121  1.420280 A    
N4    O55   1.300969 A    
C28   H56   1.110531 S    
N7    O62   1.301778 A    
C69   H101  1.081953 S    
C10   H22   1.111059 S    
C93   C97   1.409545 A    
C97   C105  1.431258 A    
C20   H40   1.108597 S    
O29   Ba1   2.749132 S    
C58   C74   1.432175 A    
P7    O27   1.539905 D    
C93   H121  1.069902 S    
O41   C5    1.405414 S    
P12   C47   1.838233 S    
Ba2   O45   3.005218 S    
C65   C117  1.546656 S    
C74   C106  1.548413 S    
O43   C7    1.405402 S    
C49   H93   1.079594 S    
C5    C9    1.520315 S    
C121  H125  1.064779 S    
C32   H72   1.109654 S    
C128  N6    1.440921 S    
C57   C61   1.410727 A    
C2    C30   1.530453 S    
C88   H114  1.083089 S    
C51   H95   1.079586 S    
P1    O17   1.751379 S    
C6    H14   1.110491 S    
P3    O19   1.751366 S    
C9    H81   1.109358 S    
P4    O4    1.539260 D    
O6    Ba1   2.801388 S    
O11   Ba3   2.747133 S    
C28   H60   1.108481 S    
C48   C72   1.385971 A    
C26   H62   1.110846 S    
C95   C99   1.409534 A    
C27   H59   1.108488 S    
C97   C103  1.436340 A    
C21   C25   1.521000 S    
C18   H38   1.108612 S    
C116  C136  1.407324 A    
C99   C101  1.436359 A    
C60   C64   1.410697 A    
C84   C104  1.419848 A    
O18   C22   1.399709 S    
Ba3   O48   3.005235 S    
C58   H98   1.081140 S    
P5    Ba1   3.503310 S    
Ba4   O47   3.005218 S    
O1    Ba1   2.907933 S    
C85   H115  1.083089 S    
C86   H116  1.083092 S    
C124  H128  1.064790 S    
C87   H113  1.083097 S    
C13   C17   1.520942 S    
C52   H96   1.079595 S    
C3    C31   1.530597 S    
C41   H89   1.078977 S    
C125  C129  1.386363 A    
C1    H73   1.109948 S    
C35   H87   1.081080 S    
C36   C68   1.430611 A    
C80   H108  1.081957 S    
P15   C56   1.837815 S    
O30   Ba2   2.749167 S    
Ba1   O45   2.799473 S    
C94   H122  1.070000 S    
C1    N1    1.458135 S    
P2    O2    1.539260 D    
C23   C27   1.520994 S    
C24   H48   1.105463 S    
P11   O43   1.747866 S    
P12   O36   1.539077 D    
C90   H118  1.079912 S    
O12   P15   1.726428 S    
Ba2   O46   2.799377 S    
H67   C135  1.070289 S    
C4    H8    1.112506 S    
H2    C30   1.111951 S    
C84   C86   1.386775 A    
P7    O48   1.584667 S    
C42   C66   1.418355 A    
C127  C131  1.386255 A    
C50   H94   1.079547 S    
P7    C40   1.851284 S    
C81   H109  1.067015 S    
O23   P16   1.750592 S    
O21   P14   1.750601 S    
C88   C92   1.376535 A    
C43   C47   1.398129 A    
C8    H12   1.112655 S    
C56   C80   1.384174 A    
C122  C128  1.397915 A    
C123  C125  1.397857 A    
C37   C69   1.389658 A    
N3    O54   1.300961 A    
C100  C102  1.436315 A    
C106  C110  1.435636 A    
N8    O64   1.301781 A    
O2    Ba2   2.907836 S    
P2    O6    1.580058 S    
P6    Ba2   3.503355 S    
P11   O31   1.725871 S    
C18   H34   1.110520 S    
C21   H49   1.110760 S    
P12   O32   1.725738 S    
C14   C18   1.520973 S    
C35   C39   1.408896 A    
C2    H6    1.113013 S    
C44   C68   1.418428 A    
O40   C15   1.400536 S    
C33   C37   1.409224 A    
C86   C90   1.376500 A    
C4    H76   1.109946 S    
C95   H123  1.069947 S    
C70   H102  1.081952 S    
C50   C54   1.397812 A    
H4    C32   1.111781 S    
C7    H11   1.112653 S    
C57   C73   1.432089 A    
H77   C129  1.080104 S    
O15   P16   1.538559 D    
C67   C119  1.546517 S    
O13   P14   1.538604 D    
P1    C61   1.851505 S    
C101  C117  1.432936 A    
C36   C40   1.408783 A    
C3    N3    1.458136 S    
C110  C122  1.420300 A    
N5    O57   1.301539 A    
C62   C78   1.388902 A    
C35   C67   1.430737 A    
O23   C31   1.409155 S    
C105  C109  1.435558 A    
