data_mof_unit_47071.cif
_audit_creation_date              2012-12-10T17:19:01-0500
_audit_creation_method            fapswitch 2.2
_symmetry_space_group_name_H-M    P1
_symmetry_Int_Tables_number       1
_space_group_crystal_system       triclinic
_cell_length_a                    10.250304
_cell_length_b                    10.717793
_cell_length_c                    13.502236
_cell_angle_alpha                 92.166097
_cell_angle_beta                  100.764521
_cell_angle_gamma                 95.705039
_cell_volume                      1447.6312306

loop_
_atom_site_label
_atom_site_type_symbol
_atom_type_description
_atom_site_fract_x
_atom_site_fract_y
_atom_site_fract_z
_atom_type_partial_charge
Br1   Br    Br    0.061454 0.279138 0.199635 -0.560302
Br2   Br    Br    0.891758 0.582409 0.844643 -0.437809
Br3   Br    Br    0.758320 0.063261 0.548314 -0.435882
Br4   Br    Br    0.256676 0.938265 0.480548 -0.462936
Br5   Br    Br    0.668411 0.693275 0.626211 -0.325097
Br6   Br    Br    0.342639 0.274941 0.439173 -0.374493
C1    C     C_R   0.051293 0.732472 0.489703 0.860964
C2    C     C_2   0.982958 0.062486 0.446650 -0.158257
C3    C     C_2   0.429014 0.523356 0.493556 0.032230
C4    C     C_2   0.568831 0.492873 0.487627 0.046948
C5    C     C_R   0.094250 0.513424 0.686835 0.891952
C6    C     C_R   0.904569 0.478996 0.313905 0.871502
C7    C     C_R   0.143357 0.507548 0.796130 -0.171570
C8    C     C_R   0.849253 0.442457 0.207118 -0.148236
C9    C     C_R   0.122355 0.513848 0.972358 -0.202284
C10   C     C_R   0.848900 0.331122 0.046149 -0.190154
C11   C     C_R   0.067387 0.528848 0.871338 0.279843
C12   C     C_R   0.945271 0.266821 0.502744 0.859292
C13   C     C_R   0.910566 0.364279 0.146518 0.238881
C14   C     C_R   0.271840 0.471421 0.824748 -0.238999
C15   C     C_R   0.720547 0.470744 0.169673 -0.235689
C16   C     C_R   0.322228 0.444477 0.923515 0.083114
C17   C     C_R   0.649688 0.415643 0.077791 0.086630
C18   C     C_R   0.248917 0.472531 0.999032 0.028360
C19   C     C_R   0.718110 0.357899 0.010830 0.050915
C20   C     C_R   0.449350 0.400916 0.950351 -0.115264
C21   C     C_R   0.510780 0.414428 0.052829 -0.130018
C22   C     C_3   0.503939 0.260054 0.228026 0.101063
C23   C     C_R   0.430069 0.420641 0.127321 0.484763
C24   C     C_3   0.384315 0.161569 0.187847 -0.334294
C25   C     C_3   0.424836 0.028605 0.196356 -0.862777
C26   C     C_3   0.366489 0.189010 0.787619 0.067370
C27   C     C_3   0.433368 0.071208 0.768538 -0.299804
C28   C     C_3   0.338681 0.952051 0.769305 -0.850955
C29   C     C_R   0.517701 0.342033 0.881088 0.501196
C30   C     C_R   0.302568 0.457520 0.100126 -0.219520
C31   C     C_R   0.651002 0.319817 0.912969 -0.219032
C32   C     C_2   0.075378 0.863968 0.470687 0.089606
C33   C     C_2   0.907773 0.132505 0.492330 0.078183
C34   C     C_2   0.968707 0.927903 0.448942 -0.175064
H1    H     H_    0.245776 0.474264 0.158350 0.209520
H2    H     H_    0.415420 0.615063 0.524032 0.165551
H3    H     H_    0.543567 0.242238 0.307872 0.199541
H4    H     H_    0.586446 0.245093 0.187967 0.136860
H5    H     H_    0.305135 0.171329 0.232187 0.306358
H6    H     H_    0.343203 0.175216 0.107305 0.211874
H7    H     H_    0.502881 0.014937 0.151087 0.252307
H8    H     H_    0.336506 0.959585 0.167305 0.275930
H9    H     H_    0.463709 0.011007 0.276501 0.301094
H10   H     H_    0.278197 0.192107 0.726215 0.198287
H11   H     H_    0.327368 0.182762 0.859331 0.120188
H12   H     H_    0.701537 0.272698 0.861076 0.183742
H13   H     H_    0.464727 0.074820 0.694105 0.292259
H14   H     H_    0.523697 0.067888 0.828015 0.213984
H15   H     H_    0.311415 0.943674 0.844818 0.253067
H16   H     H_    0.388471 0.868609 0.752126 0.287151
H17   H     H_    0.246330 0.953587 0.711497 0.281006
H18   H     H_    0.671477 0.529107 0.215365 0.204412
H19   H     H_    0.334924 0.468199 0.769430 0.238709
H20   H     H_    0.065753 0.534090 0.030162 0.177698
H21   H     H_    0.898776 0.276063 0.998647 0.176881
H22   H     H_    0.065207 0.105477 0.414863 0.245049
H23   H     H_    0.867965 0.881479 0.442082 0.213982
H24   H     H_    0.580108 0.416729 0.436010 0.166193
N1    N     N_2   0.322180 0.446120 0.460900 0.023353
N2    N     N_2   0.677820 0.553880 0.539100 0.012722
O1    O     O_R   0.935190 0.693030 0.507870 -0.588841
O2    O     O_3   0.455474 0.298155 0.784284 -0.633601
O3    O     O_R   0.064810 0.306970 0.492130 -0.575071
O4    O     O_R   0.142080 0.658430 0.482770 -0.594322
O5    O     O_R   0.857920 0.341570 0.517230 -0.587316
O6    O     O_R   0.969700 0.527180 0.651960 -0.533043
O7    O     O_R   0.030300 0.472820 0.348040 -0.558495
O8    O     O_R   0.176600 0.492580 0.626860 -0.615764
O9    O     O_R   0.823400 0.507420 0.373140 -0.634456
O10   O     O_3   0.469453 0.385732 0.225766 -0.645462
Zn1   Zn    Zn3+2 0.861850 0.523100 0.516760 1.061077
Zn2   Zn    Zn3+2 0.138150 0.476900 0.483240 1.053200

loop_
_geom_bond_atom_site_label_1
_geom_bond_atom_site_label_2
_ccdc_geom_bond_type
C28   H16   S    
C10   C19   A    
O4    Zn2   S    
C9    H20   S    
C24   H5    S    
O1    Zn1   S    
C1    O4    A    
C30   H1    S    
C23   O10   S    
C23   C30   A    
C3    H2    S    
C18   C30   A    
C34   H23   S    
C8    C15   A    
C29   C31   A    
C24   C25   S    
C21   C23   A    
C27   H14   S    
C19   C31   A    
Br6   N1    S    
C28   H17   S    
O7    Zn2   S    
C2    C33   D    
C17   C21   A    
C3    C4    S    
C26   O2    S    
C12   O3    A    
Br3   C33   S    
C28   H15   S    
C25   H7    S    
C6    O7    A    
Br2   C11   S    
O3    Zn2   S    
C25   H9    S    
C4    N2    D    
C27   H13   S    
Br1   C13   S    
C31   H12   S    
C5    O6    A    
C22   H4    S    
C12   C33   S    
C26   H11   S    
O6    Zn1   S    
C27   C28   S    
C20   C21   A    
C14   H19   S    
O9    Zn1   S    
C26   H10   S    
C9    C18   A    
C6    C8    S    
C25   H8    S    
C15   C17   A    
C16   C20   A    
C16   C18   A    
C10   H21   S    
C14   C16   A    
C22   O10   S    
O5    Zn1   S    
C12   O5    A    
C9    C11   A    
N2    Zn1   S    
N1    Zn2   S    
C7    C14   A    
C8    C13   A    
C24   H6    S    
C4    H24   S    
Br4   C32   S    
Br5   N2    S    
C5    O8    A    
C22   H3    S    
C7    C11   A    
C26   C27   S    
C22   C24   S    
C15   H18   S    
C32   C34   D    
C5    C7    S    
C29   O2    S    
C10   C13   A    
C1    C32   S    
C17   C19   A    
C3    N1    D    
C1    O1    A    
C20   C29   A    
O8    Zn2   S    
C6    O9    A    
C2    C34   S    
C2    H22   S    
