data_mof_unit_44984.cif
_audit_creation_date              2012-12-10T17:51:29-0500
_audit_creation_method            fapswitch 2.2
_symmetry_space_group_name_H-M    P1
_symmetry_Int_Tables_number       1
_space_group_crystal_system       triclinic
_cell_length_a                    9.874243
_cell_length_b                    10.727886
_cell_length_c                    16.641054
_cell_angle_alpha                 91.660627
_cell_angle_beta                  85.110697
_cell_angle_gamma                 89.603992
_cell_volume                      1755.55282775

loop_
_atom_site_label
_atom_site_type_symbol
_atom_type_description
_atom_site_fract_x
_atom_site_fract_y
_atom_site_fract_z
_atom_type_partial_charge
Br1   Br    Br    0.788161 0.506984 0.047676 -0.594908
C1    C     C_R   0.499316 0.739914 0.494189 0.867501
C2    C     C_R   0.530922 0.546478 0.263955 -0.088169
C3    C     C_R   0.243807 0.889142 0.475341 -0.160753
C4    C     C_R   0.481088 0.502470 0.653657 0.847033
C5    C     C_R   0.121186 0.950225 0.499146 -0.138276
C6    C     C_R   0.121614 0.063036 0.542210 -0.157581
C7    C     C_R   0.244830 0.120281 0.554203 -0.153621
C8    C     C_R   0.369786 0.064245 0.523208 0.098554
C9    C     C_R   0.369427 0.940286 0.495254 0.096074
C10   C     C_R   0.495046 0.873593 0.489505 -0.121612
C11   C     C_R   0.618170 0.936066 0.493114 -0.216437
C12   C     C_R   0.342847 0.541186 0.784174 -0.204754
C13   C     C_R   0.618375 0.062959 0.503591 -0.216345
C14   C     C_R   0.495223 0.128001 0.516606 -0.132249
C15   C     C_R   0.843724 0.664853 0.605446 -0.178363
C16   C     C_R   0.498681 0.260817 0.507711 0.889529
C17   C     C_R   0.906425 0.745339 0.657481 -0.208899
C18   C     C_R   0.046488 0.744407 0.657806 -0.180540
C19   C     C_R   0.124611 0.663266 0.605904 -0.165223
C20   C     C_R   0.064544 0.580841 0.552069 0.151448
C21   C     C_R   0.919722 0.581178 0.551933 0.170930
C22   C     C_R   0.936068 0.422146 0.450497 -0.130117
C23   C     C_R   0.647687 0.559456 0.129938 0.285017
C24   C     C_R   0.079439 0.422230 0.450485 -0.115335
C25   C     C_R   0.519042 0.504567 0.346702 0.891434
C26   C     C_R   0.470132 0.522010 0.740955 -0.038526
C27   C     C_R   0.589196 0.532424 0.780751 -0.221214
C28   C     C_R   0.581606 0.564728 0.861979 -0.124295
C29   C     C_R   0.455066 0.588010 0.904589 0.179446
C30   C     C_R   0.335509 0.572934 0.866140 -0.163295
C31   C     C_3   0.732819 0.402266 0.226761 -0.825321
C32   C     C_3   0.619540 0.783230 0.989284 -0.848279
C33   C     C_R   0.636849 0.505267 0.206516 0.122027
C34   C     C_R   0.440841 0.641087 0.245751 -0.237431
C35   C     C_R   0.451659 0.693205 0.170708 -0.235231
C36   C     C_R   0.552695 0.651728 0.112483 0.070589
C37   C     C_2   0.447421 0.609840 0.991678 -0.218741
C38   C     C_2   0.535954 0.681186 0.028990 0.187531
H1    H     H_    0.688657 0.517138 0.749097 0.169844
H2    H     H_    0.735880 0.671128 0.609390 0.209046
H3    H     H_    0.845728 0.808637 0.697929 0.156823
H4    H     H_    0.095136 0.807129 0.698361 0.157397
H5    H     H_    0.231411 0.668295 0.609649 0.209386
H6    H     H_    0.139832 0.358681 0.410168 0.158264
H7    H     H_    0.361611 0.675524 0.290119 0.167941
H8    H     H_    0.237097 0.586525 0.899420 0.152360
H9    H     H_    0.249574 0.533403 0.754617 0.162414
H10   H     H_    0.379795 0.548656 0.027100 0.148660
H11   H     H_    0.674778 0.569685 0.891643 0.192408
H12   H     H_    0.377115 0.762065 0.156568 0.166798
H13   H     H_    0.789532 0.358055 0.173100 0.276118
H14   H     H_    0.807661 0.440163 0.266963 0.249578
H15   H     H_    0.674758 0.326441 0.257568 0.216985
H16   H     H_    0.605635 0.870237 0.026929 0.238963
H17   H     H_    0.728864 0.757075 0.983896 0.263686
H18   H     H_    0.587879 0.803518 0.928564 0.237439
H19   H     H_    0.715103 0.887170 0.487311 0.171977
H20   H     H_    0.238035 0.804084 0.439534 0.163749
H21   H     H_    0.025813 0.908550 0.485709 0.142133
H22   H     H_    0.026593 0.108074 0.564145 0.139593
H23   H     H_    0.241036 0.207584 0.588522 0.162470
H24   H     H_    0.715391 0.109997 0.500503 0.169187
H25   H     H_    0.888226 0.358581 0.410180 0.146811
N1    N     N_R   0.857140 0.501200 0.500750 -0.118786
N2    N     N_R   0.142740 0.501280 0.500770 -0.126320
O1    O     O_R   0.385310 0.683220 0.500000 -0.652775
O2    O     O_R   0.614640 0.683250 0.500010 -0.636125
O3    O     O_R   0.371780 0.500010 0.615800 -0.641312
O4    O     O_R   0.601110 0.500030 0.615800 -0.634549
O5    O     O_R   0.385360 0.316750 0.499990 -0.621443
O6    O     O_R   0.614690 0.316780 0.500000 -0.616018
O7    O     O_R   0.398890 0.499970 0.384200 -0.616326
O8    O     O_R   0.628220 0.499990 0.384200 -0.602304
Zn1   Zn    Zn3+2 0.346870 0.499980 0.499990 0.920922
Zn2   Zn    Zn3+2 0.653130 0.500020 0.500010 0.933409

loop_
_geom_bond_atom_site_label_1
_geom_bond_atom_site_label_2
_ccdc_geom_bond_type
C32   H16   S    
C20   N2    A    
C34   C35   A    
O6    Zn2   S    
C6    C7    A    
C37   H10   S    
C4    O4    A    
N1    Zn2   S    
O8    Zn2   S    
C35   C36   A    
C1    O2    A    
C17   H3    S    
C29   C30   A    
C13   H24   S    
C25   O7    A    
C29   C37   S    
C17   C18   A    
C6    H22   S    
C4    O3    A    
C4    C26   S    
C31   H13   S    
C18   C19   A    
C7    C8    A    
C15   C21   A    
C8    C9    A    
C11   H19   S    
C32   H17   S    
C30   H8    S    
C20   C21   A    
O7    Zn1   S    
C1    C10   S    
C31   H15   S    
C19   H5    S    
C18   H4    S    
C28   H11   S    
C5    H21   S    
C3    C5    A    
C1    O1    A    
C2    C33   A    
C23   C33   A    
C31   C33   S    
C21   N1    A    
C28   C29   A    
C2    C34   A    
C23   C36   A    
C32   C38   S    
C35   H12   S    
Br1   C23   S    
C22   H25   S    
C11   C13   A    
C16   O5    A    
O4    Zn2   S    
O1    Zn1   S    
C3    C9    A    
C24   H6    S    
C31   H14   S    
C14   C16   S    
C27   C28   A    
C32   H18   S    
C12   C30   A    
C2    C25   S    
C24   N2    A    
C12   H9    S    
C10   C11   A    
C5    C6    A    
O2    Zn2   S    
C22   N1    A    
C8    C14   A    
C36   C38   S    
O5    Zn1   S    
C37   C38   D    
N2    Zn1   S    
C3    H20   S    
C25   O8    A    
O3    Zn1   S    
C22   C24   A    
C9    C10   A    
C19   C20   A    
C16   O6    A    
C15   C17   A    
C26   C27   A    
C27   H1    S    
C13   C14   A    
C12   C26   A    
C34   H7    S    
C15   H2    S    
C7    H23   S    
