data_mof_unit_52529.cif
_audit_creation_date              2012-12-10T16:41:57-0500
_audit_creation_method            fapswitch 2.2
_symmetry_space_group_name_H-M    P1
_symmetry_Int_Tables_number       1
_space_group_crystal_system       triclinic
_cell_length_a                    10.880609
_cell_length_b                    8.676397
_cell_length_c                    7.499266
_cell_angle_alpha                 103.130436
_cell_angle_beta                  94.642985
_cell_angle_gamma                 92.924987
_cell_volume                      685.432859607

loop_
_atom_site_label
_atom_site_type_symbol
_atom_type_description
_atom_site_fract_x
_atom_site_fract_y
_atom_site_fract_z
_atom_type_partial_charge
C1    C     C_R   0.496164 0.199811 0.453145 0.880538
C2    C     C_2   0.505359 0.968401 0.572812 -0.312646
C3    C     C_R   0.265822 0.500149 0.501335 0.813714
C4    C     C_R   0.503679 0.800187 0.546839 0.847142
C5    C     C_R   0.733816 0.490832 0.497069 0.841096
C6    C     C_2   0.928857 0.462161 0.354900 0.233846
C7    C     C_2   0.859051 0.442371 0.488807 0.141216
C8    C     C_2   0.056373 0.418660 0.365224 0.038579
C9    C     C_2   0.134176 0.508858 0.501760 -0.283326
C10   C     C_2   0.494486 0.031627 0.427161 -0.360231
Cu1   Cu    Cu3+1 0.513740 0.517380 0.684380 1.070826
Cu2   Cu    Cu3+1 0.486260 0.482620 0.315620 1.061275
H1    H     H_    0.100948 0.603709 0.603947 0.152391
H2    H     H_    0.484125 0.959527 0.287057 0.180317
H3    H     H_    0.515721 0.040478 0.712894 0.211662
H4    H     H_    0.597507 0.622495 0.051046 0.223434
N1    N     N_2   0.465540 0.456420 0.038510 0.087630
N2    N     N_2   0.534460 0.543580 0.961490 -0.146379
O1    O     O_R   0.508930 0.286130 0.619780 -0.529569
O2    O     O_R   0.485720 0.256780 0.308360 -0.565821
O3    O     O_R   0.333540 0.514670 0.655670 -0.536254
O4    O     O_R   0.310330 0.485320 0.344250 -0.552173
O5    O     O_R   0.514280 0.743220 0.691640 -0.592899
O6    O     O_R   0.491070 0.713870 0.380220 -0.603901
O7    O     O_R   0.689670 0.514680 0.655750 -0.533661
O8    O     O_R   0.666460 0.485330 0.344330 -0.575422
Cl1   Cl    Cl    0.884924 0.572126 0.191233 -0.608295
Cl2   Cl    Cl    0.910608 0.336812 0.653507 -0.646104
C11   C     C_R   0.089986 0.267732 0.244864 0.121284
C12   C     C_R   0.152606 0.156072 0.321099 -0.117145
C13   C     C_R   0.180850 0.012776 0.208641 -0.107612
C14   C     C_R   0.146547 0.979067 0.019521 -0.068971
C15   C     C_R   0.083284 0.088251 0.942854 -0.077736
C16   C     C_R   0.054746 0.231538 0.055132 -0.035705
H5    H     H_    0.178316 0.179006 0.467805 0.152626
H6    H     H_    0.228748 0.927477 0.268319 0.141670
H7    H     H_    0.168574 0.868197 0.932541 0.140743
H8    H     H_    0.056634 0.062076 0.796311 0.171386
H9    H     H_    0.006629 0.315218 0.994247 0.231067
Cl3   Cl    Cl    0.354286 0.319066 0.907684 -0.488595

loop_
_geom_bond_atom_site_label_1
_geom_bond_atom_site_label_2
_ccdc_geom_bond_type
Cu2   N1    S    
C2    C4    S    
Cu1   Cu2   S    
Cu1   N2    S    
C6    C7    D    
C3    C9    S    
Cu2   O6    S    
C15   H8    S    
C6    Cl1   S    
C14   C15   A    
Cu2   O2    S    
N1    N2    D    
C14   H7    S    
C2    H3    S    
Cu1   O1    S    
C11   C12   A    
C12   H5    S    
C5    O7    A    
C8    C11   S    
C11   C16   A    
Cu1   O5    S    
C15   C16   A    
C12   C13   A    
C4    O6    A    
C3    O3    A    
C1    O1    A    
Cu1   O7    S    
C5    O8    A    
C2    C10   D    
Cu2   O4    S    
H4    N2    S    
C10   H2    S    
C5    C7    S    
C4    O5    A    
C9    H1    S    
C13   H6    S    
C1    O2    A    
C6    C8    S    
C7    Cl2   S    
C16   H9    S    
Cu1   O3    S    
C1    C10   S    
C13   C14   A    
Cu2   O8    S    
C8    C9    D    
C3    O4    A    
N1    Cl3   S    
