data_mof_unit_11982.cif
_audit_creation_date              2012-12-10T20:55:01-0500
_audit_creation_method            fapswitch 2.2
_symmetry_space_group_name_H-M    P1
_symmetry_Int_Tables_number       1
_space_group_crystal_system       triclinic
_cell_length_a                    15.833543
_cell_length_b                    15.092953
_cell_length_c                    10.663803
_cell_angle_alpha                 91.361222
_cell_angle_beta                  89.890794
_cell_angle_gamma                 89.889927
_cell_volume                      2547.6527543

loop_
_atom_site_label
_atom_site_type_symbol
_atom_type_description
_atom_site_fract_x
_atom_site_fract_y
_atom_site_fract_z
_atom_type_partial_charge
C1    C     C_R   0.338990 0.500031 0.500352 0.828901
C2    C     C_R   0.661042 0.499841 0.499626 0.990912
C3    C     C_R   0.956596 0.413210 0.482521 0.306291
C4    C     C_R   0.044612 0.412949 0.503627 0.309086
C5    C     C_1   0.824128 0.497171 0.493705 0.248252
C6    C     C_1   0.176037 0.497947 0.506957 0.263787
C7    C     C_1   0.250794 0.499771 0.503615 -0.027563
C8    C     C_1   0.749324 0.499064 0.496721 0.052138
C9    C     C_R   0.423308 0.952866 0.498246 0.303285
C10   C     C_R   0.576658 0.952579 0.501664 0.292336
C11   C     C_R   0.499979 0.905179 0.500015 -0.266359
C12   C     C_R   0.577509 0.046919 0.495612 0.310137
C13   C     C_R   0.422497 0.047431 0.504114 0.261338
C14   C     C_R   0.500022 0.095100 0.499855 -0.333016
C15   C     C_1   0.499987 0.807028 0.500014 0.357313
C16   C     C_1   0.500027 0.192990 0.499896 0.362914
C17   C     C_R   0.503436 0.498730 0.260049 0.955434
C18   C     C_R   0.503077 0.501221 0.739966 0.957988
C19   C     C_R   0.346442 0.498031 0.131032 -0.245209
C20   C     C_R   0.346175 0.499590 0.870426 -0.249479
C21   C     C_R   0.269776 0.497841 0.066685 0.405796
C22   C     C_R   0.269632 0.498379 0.935590 0.412106
C23   C     C_R   0.424319 0.500103 0.935042 -0.008727
C24   C     C_R   0.424433 0.498666 0.065659 -0.003231
C25   C     C_R   0.502766 0.495074 0.127612 -0.199350
C26   C     C_R   0.502554 0.504515 0.872418 -0.200970
C27   C     C_R   0.580677 0.490938 0.063645 0.215217
C28   C     C_R   0.580616 0.507904 0.935669 0.224400
C29   C     C_R   0.955937 0.575862 0.506035 0.342480
C30   C     C_R   0.043438 0.576065 0.510788 0.346660
C31   C     C_R   0.913314 0.495085 0.491662 -0.237852
C32   C     C_R   0.086932 0.495240 0.509553 -0.214368
H1    H     H_    0.344162 0.496602 0.232271 0.159499
H2    H     H_    0.343677 0.500903 0.769199 0.161278
N1    N     N_1   0.500000 0.270550 0.500000 -0.057506
N2    N     N_1   0.500000 0.729450 0.500000 -0.066056
O1    O     O_R   0.378020 0.573650 0.500040 -0.603364
O2    O     O_R   0.621980 0.573650 0.499960 -0.573395
O3    O     O_R   0.378020 0.426320 0.500100 -0.576957
O4    O     O_R   0.621980 0.426320 0.499900 -0.599963
O5    O     O_R   0.500000 0.573680 0.316780 -0.617101
O6    O     O_R   0.500000 0.573680 0.683220 -0.583906
O7    O     O_R   0.500000 0.426350 0.316830 -0.579387
O8    O     O_R   0.500000 0.426350 0.683170 -0.623674
Zn1   Zn    Zn3+2 0.500000 0.598370 0.500000 1.101393
Zn2   Zn    Zn3+2 0.500000 0.401630 0.500000 1.097283
S1    S     S_3+6 0.675053 0.458022 0.142723 0.102088
O9    O     O_2   0.712662 0.537688 0.208498 -0.264383
O10   O     O_2   0.655876 0.389371 0.238285 -0.267750
O11   O     O_3   0.746936 0.413612 0.043312 -0.365268
H3    H     H_    0.721125 0.357651 0.011840 0.380405
S2    S     S_3+6 0.675227 0.539158 0.855543 0.089043
O12   O     O_2   0.711481 0.458919 0.788834 -0.274009
O13   O     O_2   0.656779 0.608458 0.760600 -0.287447
O14   O     O_3   0.748064 0.581844 0.954192 -0.371866
H4    H     H_    0.723209 0.638286 0.986200 0.380696
Cl1   Cl    Cl    0.174948 0.496164 0.152967 -0.447671
Cl2   Cl    Cl    0.174537 0.498170 0.850491 -0.431970
Cl3   Cl    Cl    0.098635 0.678000 0.520888 -0.350493
Cl4   Cl    Cl    0.899658 0.677423 0.515449 -0.335049
S3    S     S_3+6 0.900138 0.314537 0.439377 0.149731
O15   O     O_2   0.866971 0.273039 0.556324 -0.207169
O16   O     O_2   0.827009 0.336012 0.355655 -0.228079
O17   O     O_3   0.962215 0.241604 0.360899 -0.420946
H5    H     H_    0.928060 0.186848 0.352885 0.418816
S4    S     S_3+6 0.102394 0.312798 0.528317 0.170201
O18   O     O_2   0.136238 0.278860 0.404419 -0.171076
O19   O     O_2   0.175220 0.329946 0.615760 -0.239623
O20   O     O_3   0.041322 0.234903 0.592582 -0.422173
H6    H     H_    0.076547 0.180574 0.591537 0.420266
S5    S     S_3+6 0.323688 0.105140 0.512428 0.137882
O21   O     O_2   0.289629 0.112439 0.381681 -0.157194
O22   O     O_2   0.260914 0.055438 0.589765 -0.178964
O23   O     O_3   0.332730 0.207770 0.575837 -0.502409
H7    H     H_    0.345771 0.198706 0.665452 0.360041
S6    S     S_3+6 0.676410 0.103615 0.486534 0.139305
O24   O     O_2   0.711992 0.112627 0.616844 -0.221702
O25   O     O_2   0.737698 0.051542 0.406028 -0.138298
O26   O     O_3   0.666952 0.204733 0.424561 -0.502932
H8    H     H_    0.691219 0.246683 0.487516 0.402674
Cl5   Cl    Cl    0.328208 0.891768 0.485266 -0.391168
Cl6   Cl    Cl    0.671798 0.891554 0.514463 -0.372301

loop_
_geom_bond_atom_site_label_1
_geom_bond_atom_site_label_2
_ccdc_geom_bond_type
S4    O19   D    
O14   H4    S    
C6    C32   S    
C18   C26   S    
S6    O26   S    
S1    O10   D    
O4    Zn2   S    
C19   C21   A    
S6    O25   D    
C18   O6    A    
C16   N1    T    
S4    O20   S    
C23   C26   A    
S3    O16   D    
C9    C13   A    
O2    Zn1   S    
C11   C15   S    
O8    Zn2   S    
C23   C24   A    
C20   C23   A    
S2    O14   S    
C1    O1    A    
C20   H2    S    
S4    O18   D    
C21   C22   A    
O20   H6    S    
S2    O13   D    
S1    O11   S    
C3    S3    S    
O23   H7    S    
S6    O24   D    
C19   H1    S    
S5    O22   D    
C13   S5    S    
C10   Cl6   S    
O6    Zn1   S    
S3    O17   S    
C17   O7    A    
C21   Cl1   S    
C29   C30   A    
C18   O8    A    
S5    O23   S    
C2    O2    A    
S1    O9    D    
C29   Cl4   S    
C30   Cl3   S    
O11   H3    S    
N2    Zn1   S    
C24   C25   A    
C3    C31   A    
C9    C11   A    
C4    C32   A    
C10   C12   A    
O3    Zn2   S    
C12   C14   A    
C12   S6    S    
C14   C16   S    
O1    Zn1   S    
C3    C4    A    
C15   N2    T    
S2    O12   D    
C27   S1    S    
C1    C7    S    
C2    C8    S    
C20   C22   A    
C22   Cl2   S    
C5    C8    T    
C6    C7    T    
C25   C27   A    
C26   C28   A    
C17   C25   S    
O17   H5    S    
C19   C24   A    
S5    O21   D    
C29   C31   A    
C30   C32   A    
C28   S2    S    
S3    O15   D    
O7    Zn2   S    
C17   O5    A    
C10   C11   A    
C1    O3    A    
O26   H8    S    
C2    O4    A    
C4    S4    S    
C27   C28   A    
O5    Zn1   S    
C13   C14   A    
N1    Zn2   S    
C9    Cl5   S    
C5    C31   S    
