data_mof_unit_29440.cif
_audit_creation_date              2013-03-05T16:38:39-0500
_audit_creation_method            fapswitch 2.2
_symmetry_space_group_name_H-M    P1
_symmetry_Int_Tables_number       1
_space_group_crystal_system       triclinic
_cell_length_a                    19.145172
_cell_length_b                    19.261916
_cell_length_c                    19.319464
_cell_angle_alpha                 111.672054
_cell_angle_beta                  111.558336
_cell_angle_gamma                 104.473079
_cell_volume                      5510.8460868

loop_
_atom_site_label
_atom_site_type_symbol
_atom_site_description
_atom_site_fract_x
_atom_site_fract_y
_atom_site_fract_z
_atom_type_partial_charge
O1    O     O_R   0.916810 0.468940 0.051330 -0.615508
O2    O     O_R   0.917640 0.365500 0.948670 -0.616582
C1    C     C_R   0.890605 0.390959 0.000239 0.907563
O3    O     O_R   0.907960 0.551720 0.959710 -0.638686
O4    O     O_R   0.908790 0.448280 0.857050 -0.628669
C2    C     C_R   0.882209 0.502678 0.880620 0.873785
Zn1   Zn    Zn3+2 0.999450 0.569070 0.068540 1.002328
Zn2   Zn    Zn3+2 0.000550 0.430930 0.931460 0.950830
O5    O     O_R   0.082360 0.634500 0.051330 -0.596038
O6    O     O_R   0.083190 0.531060 0.948670 -0.636648
O7    O     O_R   0.091210 0.551720 0.142950 -0.590879
O8    O     O_R   0.092040 0.448280 0.040290 -0.626757
C3    C     C_R   0.109262 0.609109 0.999676 0.896146
C4    C     C_R   0.119341 0.499151 0.119847 0.872910
H1    H     H_    0.103734 0.868655 0.042697 0.180650
C5    C     C_R   0.989466 0.789131 0.025627 0.316523
C6    C     C_R   0.914517 0.712724 0.967846 -0.067736
C7    C     C_R   0.897843 0.660698 0.883056 0.025977
C8    C     C_R   0.954668 0.686800 0.858017 -0.192984
H2    H     H_    0.941440 0.649798 0.793146 0.163806
C9    C     C_R   0.028887 0.760331 0.915846 -0.216826
H3    H     H_    0.072569 0.778661 0.895596 0.159295
C10   C     C_R   0.046476 0.810821 0.999176 -0.176427
C11   C     C_R   0.757559 0.574311 0.749826 -0.283586
H4    H     H_    0.762279 0.630747 0.747760 0.158409
C12   C     C_R   0.686265 0.498128 0.685963 -0.084255
C13   C     C_R   0.677770 0.424805 0.689789 0.015727
C14   C     C_R   0.744490 0.428604 0.754434 -0.259157
H5    H     H_    0.740121 0.372600 0.757446 0.156867
C15   C     C_R   0.815935 0.504125 0.816663 -0.068277
C16   C     C_R   0.821824 0.579020 0.817979 0.027106
C17   C     C_R   0.556171 0.314701 0.667199 -0.149560
H6    H     H_    0.579712 0.348887 0.736104 0.127635
C18   C     C_R   0.481796 0.240631 0.613994 -0.204019
H7    H     H_    0.448261 0.218268 0.641774 0.158448
C19   C     C_R   0.451007 0.194909 0.525200 -0.178287
H8    H     H_    0.393831 0.136968 0.485231 0.187667
C20   C     C_R   0.494906 0.222612 0.488792 0.374812
C21   C     C_R   0.568952 0.298407 0.542555 -0.211890
H9    H     H_    0.602237 0.321551 0.515196 0.136722
C22   C     C_R   0.599581 0.344994 0.631787 0.093061
C23   C     C_1   0.830155 0.331354 0.000608 -0.177527
C24   C     C_1   0.779296 0.280755 0.000732 -0.008982
C25   C     C_1   0.720130 0.221345 0.000705 0.005107
C26   C     C_1   0.669448 0.170193 0.000450 -0.145323
H10   H     H_    0.881630 0.427321 0.242418 0.172785
C27   C     C_R   0.000055 0.523734 0.286152 -0.215583
H11   H     H_    0.984390 0.573103 0.314421 0.168752
C28   C     C_R   0.078441 0.542823 0.291363 0.375889
C29   C     C_R   0.096342 0.476190 0.252940 -0.029816
C30   C     C_R   0.036705 0.393371 0.212510 -0.229597
H12   H     H_    0.049589 0.342042 0.182858 0.158577
C31   C     C_R   0.959962 0.375990 0.209251 -0.104608
H13   H     H_    0.914432 0.311919 0.177839 0.162533
C32   C     C_R   0.941479 0.441016 0.245579 -0.150545
C33   C     C_R   0.239930 0.488546 0.312951 -0.197700
H14   H     H_    0.233669 0.482686 0.364368 0.160657
C34   C     C_R   0.313001 0.496019 0.309611 -0.116885
C35   C     C_R   0.321666 0.502541 0.242591 -0.011053
C36   C     C_R   0.256805 0.504071 0.180929 -0.252951
H15   H     H_    0.262079 0.509142 0.128767 0.151090
C37   C     C_R   0.184652 0.498140 0.185466 -0.052272
C38   C     C_R   0.175269 0.490011 0.251269 0.079544
C39   C     C_R   0.446341 0.573835 0.236869 -0.148642
H16   H     H_    0.431850 0.626305 0.246130 0.122818
C40   C     C_R   0.516802 0.576161 0.229556 -0.144907
H17   H     H_    0.556053 0.629928 0.232718 0.127053
C41   C     C_R   0.536712 0.509222 0.218341 -0.116599
H18   H     H_    0.591340 0.511189 0.212834 0.127445
C42   C     C_R   0.485973 0.439638 0.213981 -0.118327
H19   H     H_    0.501255 0.387704 0.204861 0.135786
C43   C     C_R   0.415580 0.437131 0.221474 -0.119270
H20   H     H_    0.376723 0.382891 0.218022 0.098744
C44   C     C_R   0.395612 0.504529 0.233537 0.142118
C45   C     C_1   0.169419 0.668949 0.999221 -0.179212
C46   C     C_1   0.220143 0.719751 0.999177 -0.006241
C47   C     C_1   0.279486 0.779189 0.999435 -0.036639
C48   C     C_1   0.330436 0.830105 0.999720 -0.193318
O9    O     O_R   0.547440 0.455060 0.409050 -0.633505
O10   O     O_R   0.453980 0.361630 0.409070 -0.607720
C49   C     C_R   0.505279 0.380117 0.384484 0.885500
O11   O     O_R   0.638350 0.546700 0.591580 -0.627941
O12   O     O_R   0.544890 0.453260 0.591610 -0.607426
C50   C     C_R   0.620449 0.498496 0.619346 0.872781
Zn3   Zn    Zn3+2 0.562400 0.562360 0.499960 0.973659
Zn4   Zn    Zn3+2 0.437600 0.437590 0.500000 0.996790
O13   O     O_R   0.546020 0.638330 0.590880 -0.615601
O14   O     O_R   0.452560 0.544900 0.590910 -0.611758
O15   O     O_R   0.455110 0.546690 0.408340 -0.607469
O16   O     O_R   0.361650 0.453260 0.408370 -0.625841
C51   C     C_R   0.498101 0.620074 0.619003 0.873980
C52   C     C_R   0.379536 0.498383 0.377877 0.871333
O17   O     O_R   0.446640 0.909720 0.856320 -0.624849
O18   O     O_R   0.550070 0.907030 0.957060 -0.619391
C53   C     C_R   0.497094 0.878990 0.878116 0.870221
O19   O     O_R   0.531060 0.084080 0.949590 -0.625189
O20   O     O_R   0.634490 0.081390 0.050330 -0.588722
C54   C     C_R   0.609329 0.109467 0.000048 0.928634
Zn5   Zn    Zn3+2 0.430940 0.001750 0.932690 0.976240
Zn6   Zn    Zn3+2 0.569060 0.998160 0.067220 1.048870
O21   O     O_R   0.449930 0.092880 0.042850 -0.628001
O22   O     O_R   0.553360 0.090200 0.143600 -0.561752
O23   O     O_R   0.365510 0.918520 0.949590 -0.621229
O24   O     O_R   0.468940 0.915840 0.050330 -0.603886
C55   C     C_R   0.501632 0.119932 0.121897 0.911389
C56   C     C_R   0.390660 0.890486 0.999897 0.891513
C57   C     C_R   0.787232 0.512458 0.506562 0.004142
C58   C     C_R   0.706681 0.459100 0.432519 -0.146389
H21   H     H_    0.675261 0.483002 0.394614 0.152478
C59   C     C_R   0.666238 0.375371 0.407590 0.089579
C60   C     C_R   0.707658 0.344481 0.455964 -0.113708
H22   H     H_    0.678030 0.279591 0.436915 0.198274
C61   C     C_R   0.789006 0.395157 0.526359 -0.183217
H23   H     H_    0.820344 0.367372 0.558853 0.152539
C62   C     C_R   0.830843 0.479126 0.552000 0.041714
C63   C     C_R   0.580843 0.253119 0.258535 0.302607
C64   C     C_R   0.502763 0.187057 0.188422 -0.184731
C65   C     C_R   0.426886 0.186017 0.182666 -0.013646
C66   C     C_R   0.430332 0.251533 0.247839 -0.180501
H24   H     H_    0.372362 0.251905 0.243801 0.158369
C67   C     C_R   0.507418 0.315431 0.319271 -0.102382
C68   C     C_R   0.583815 0.316403 0.326601 -0.089878
C69   C     C_R   0.284222 0.132671 0.057904 -0.157471
H25   H     H_    0.300086 0.194906 0.067669 0.123836
C70   C     C_R   0.204580 0.067979 0.991528 -0.122704
H26   H     H_    0.159440 0.080327 0.950450 0.131940
C71   C     C_R   0.183111 0.987451 0.978350 -0.114584
H27   H     H_    0.121369 0.937457 0.927107 0.126386
C72   C     C_R   0.241226 0.971564 0.031619 -0.129226
H28   H     H_    0.224266 0.909373 0.021699 0.134498
C73   C     C_R   0.321041 0.035959 0.097909 -0.057387
H29   H     H_    0.365293 0.022941 0.139160 0.141590
C74   C     C_R   0.343223 0.116924 0.111158 0.143582
H30   H     H_    0.491529 0.791693 0.414694 0.132858
C75   C     C_R   0.559232 0.841460 0.552408 -0.134631
H31   H     H_    0.610823 0.892605 0.564673 0.137566
C76   C     C_R   0.559989 0.832298 0.621152 -0.144464
H32   H     H_    0.612624 0.876569 0.686338 0.129822
C77   C     C_R   0.493590 0.765621 0.605581 0.118424
C78   C     C_R   0.425804 0.709119 0.520486 -0.082763
H33   H     H_    0.373675 0.657754 0.507308 0.124790
C79   C     C_R   0.425250 0.718735 0.451989 -0.054723
H34   H     H_    0.373160 0.675175 0.386515 0.169798
C80   C     C_R   0.492008 0.784606 0.467873 -0.121575
C81   C     C_R   0.494260 0.818045 0.742871 -0.233140
H35   H     H_    0.494392 0.873133 0.739592 0.158603
C82   C     C_R   0.494371 0.810821 0.811933 -0.080473
C83   C     C_R   0.493339 0.740163 0.818048 -0.057296
C84   C     C_R   0.492791 0.675760 0.753019 -0.063300
C85   C     C_R   0.495653 0.684888 0.684500 -0.130398
C86   C     C_R   0.495147 0.755680 0.678658 -0.008561
C87   C     C_R   0.568549 0.749267 0.960124 -0.106731
H36   H     H_    0.626636 0.769144 0.959998 0.129382
C88   C     C_R   0.568424 0.738873 0.027972 -0.150087
H37   H     H_    0.626208 0.750909 0.080056 0.135657
C89   C     C_R   0.493565 0.712058 0.028071 -0.094554
H38   H     H_    0.493374 0.703320 0.080232 0.122707
C90   C     C_R   0.418861 0.696126 0.960599 -0.116942
H39   H     H_    0.360845 0.674458 0.960307 0.136279
C91   C     C_R   0.418918 0.707584 0.893232 -0.179354
H40   H     H_    0.360654 0.694730 0.841048 0.116323
C92   C     C_R   0.493726 0.733447 0.892302 0.139791
N1    N     N_R   0.465189 0.173214 0.398104 0.201788
O25   O     O_R   0.387597 0.116667 0.344314 -0.383239
O26   O     O_R   0.517075 0.179710 0.369764 -0.437943
N2    N     N_R   0.137474 0.629056 0.334301 0.209619
O27   O     O_R   0.217768 0.651985 0.369578 -0.421569
O28   O     O_R   0.111452 0.686394 0.343874 -0.393143
N3    N     N_R   0.007541 0.846556 0.110202 0.189898
O29   O     O_R   0.084880 0.892684 0.174026 -0.362652
O30   O     O_R   0.948540 0.861507 0.120990 -0.386730
C93   C     C_R   0.921177 0.527485 0.621351 0.093790
C94   C     C_R   0.980327 0.577610 0.611863 -0.113079
C95   C     C_R   0.065367 0.620637 0.675819 -0.133435
C96   C     C_R   0.092729 0.612712 0.748935 -0.121456
C97   C     C_R   0.035101 0.561458 0.758006 -0.128655
C98   C     C_R   0.949881 0.519081 0.694815 -0.193156
H41   H     H_    0.961154 0.582455 0.554381 0.139933
H42   H     H_    0.110229 0.659399 0.668161 0.140319
H43   H     H_    0.158645 0.645703 0.798161 0.133276
H44   H     H_    0.056289 0.554719 0.814168 0.157043
H45   H     H_    0.906268 0.480961 0.704218 0.145841
C99   C     C_R   0.821963 0.602840 0.537187 0.095544
C100  C     C_R   0.848568 0.661205 0.622644 -0.115334
C101  C     C_R   0.881145 0.746524 0.651841 -0.146856
C102  C     C_R   0.886685 0.774181 0.595732 -0.109318
C103  C     C_R   0.859406 0.716502 0.510281 -0.124000
C104  C     C_R   0.826894 0.631077 0.480877 -0.186423
H46   H     H_    0.843363 0.640468 0.666239 0.128011
H47   H     H_    0.901804 0.791143 0.717863 0.133060
H48   H     H_    0.911860 0.840272 0.618376 0.128595
H49   H     H_    0.863534 0.737996 0.466831 0.136489
H50   H     H_    0.806433 0.587099 0.414658 0.133006
C105  C     C_R   0.856477 0.687410 0.997642 0.151480
C106  C     C_R   0.885712 0.679938 0.071666 -0.000536
C107  C     C_R   0.832053 0.658352 0.101334 -0.133400
C108  C     C_R   0.749274 0.645617 0.058516 -0.121491
C109  C     C_R   0.720214 0.654549 0.986116 -0.155815
C110  C     C_R   0.773417 0.675185 0.955525 -0.131477
H51   H     H_    0.950044 0.690523 0.106128 0.137078
H52   H     H_    0.854834 0.652032 0.157838 0.132796
H53   H     H_    0.707820 0.629496 0.081817 0.128044
H54   H     H_    0.656516 0.645929 0.954222 0.148834
H55   H     H_    0.750779 0.683542 0.900455 0.122716
N4    N     N_R   0.656897 0.258342 0.258250 0.204955
O31   O     O_R   0.702795 0.231072 0.298867 -0.371744
O32   O     O_R   0.674365 0.280537 0.208389 -0.431657
C111  C     C_R   0.490151 0.599923 0.757998 0.147495
C112  C     C_R   0.559959 0.583334 0.774484 -0.148839
C113  C     C_R   0.557820 0.512991 0.780960 -0.119139
C114  C     C_R   0.485753 0.458396 0.770076 -0.109674
C115  C     C_R   0.415468 0.473781 0.752172 -0.139235
C116  C     C_R   0.417469 0.544191 0.745952 -0.109112
H56   H     H_    0.615760 0.625012 0.782398 0.101441
H57   H     H_    0.612416 0.501401 0.795427 0.143190
H58   H     H_    0.484293 0.404188 0.775512 0.123225
H59   H     H_    0.359506 0.431268 0.743326 0.133331
H60   H     H_    0.362541 0.555377 0.731810 0.122566

loop_
_geom_bond_atom_site_label_1
_geom_bond_atom_site_label_2
_geom_bond_distance
_ccdc_geom_bond_type
C93   C98   1.408387 A    
Zn5   O23   1.982240 S    
C1    C23   1.416157 S    
C111  C116  1.404894 A    
O13   C51   1.267548 A    
C69   H25   1.083397 S    
N3    O29   1.301432 A    
C40   C41   1.398142 A    
C60   H22   1.082554 S    
C99   C100  1.404969 A    
O24   C56   1.281978 A    
C81   H35   1.085547 S    
C75   H31   1.082346 S    
C21   C22   1.404446 A    
C94   C95   1.398259 A    
C100  C101  1.397288 A    
Zn1   O7    2.014158 S    
C76   C77   1.404822 A    
C12   C13   1.413414 A    
C106  H51   1.083224 S    
C63   C68   1.394556 A    
C69   C74   1.405039 A    
O12   C50   1.262706 A    
C19   H8    1.082463 S    
C8    C9    1.389941 A    
C78   C79   1.399050 A    
C7    C8    1.401196 A    
C26   C54   1.416615 S    
C75   C80   1.397417 A    
C15   C16   1.408545 A    
O10   C49   1.268843 A    
O7    C4    1.276738 A    
Zn4   O14   2.022943 S    
C69   C70   1.398288 A    
C115  H59   1.082224 S    
C98   H45   1.082992 S    
C4    C37   1.427036 S    
O19   Zn5   1.983403 S    
C110  H55   1.080817 S    
Zn6   O24   1.983399 S    
C58   H21   1.083418 S    
O22   C55   1.280731 A    
C36   C37   1.395159 A    
C18   H7    1.082377 S    
C102  H48   1.082277 S    
O5    C3    1.281984 A    
C65   C66   1.380580 A    
O10   Zn4   2.015186 S    
C95   C96   1.395886 A    
C5    N3    1.439196 S    
C90   C91   1.398454 A    
C79   H34   1.081382 S    
C82   C83   1.404906 A    
C33   C34   1.398041 A    
C5    C6    1.423018 A    
O19   C54   1.281790 A    
H10   C32   1.082510 S    
C57   C58   1.407660 A    
C107  H52   1.082367 S    
C71   H27   1.082394 S    
C97   C98   1.397543 A    
C109  C110  1.399401 A    
O17   Zn5   2.017454 S    
C88   C89   1.397694 A    
C63   N4    1.436431 S    
C43   H20   1.083043 S    
H1    C10   1.081693 S    
C31   C32   1.393334 A    
C105  C106  1.408284 A    
C35   C36   1.385311 A    
O17   C53   1.277386 A    
C9    H3    1.082571 S    
N2    O28   1.301563 A    
C29   C38   1.482021 S    
N3    O30   1.301391 A    
C55   C64   1.436032 S    
C6    C105  1.486740 S    
O18   C53   1.275727 A    
O3    Zn1   2.020492 S    
C84   C111  1.488655 S    
C81   C82   1.390954 A    
O20   C54   1.281621 A    
C46   C47   1.393928 S    
C66   C67   1.392194 A    
O21   C55   1.275556 A    
C97   H44   1.079620 S    
C112  C113  1.398008 A    
C67   C68   1.411334 A    
Zn3   O13   2.015140 S    
C30   H12   1.083479 S    
C3    C45   1.416506 S    
C101  H47   1.082451 S    
C53   C82   1.427752 S    
C11   H4    1.084928 S    
C43   C44   1.405679 A    
Zn4   O16   2.015327 S    
C21   H9    1.078775 S    
O9    C49   1.261199 A    
Zn3   O15   2.016676 S    
C62   C93   1.491287 S    
C111  C112  1.401986 A    
C34   C35   1.409731 A    
C47   C48   1.194678 T    
C59   C60   1.399345 A    
C57   C99   1.481403 S    
C36   H15   1.085291 S    
O1    C1    1.283174 A    
C17   C18   1.394788 A    
C90   H39   1.081617 S    
C24   C25   1.394228 S    
C71   C72   1.397118 A    
C114  C115  1.396835 A    
C37   C38   1.404896 A    
C51   C85   1.438058 S    
C13   C22   1.484737 S    
O16   C52   1.263887 A    
C27   H11   1.082518 S    
O14   C51   1.261815 A    
O18   Zn6   2.023846 S    
Zn2   O8    2.020488 S    
Zn6   O22   2.017668 S    
C29   C30   1.404433 A    
C88   H37   1.082372 S    
C33   C38   1.382571 A    
C108  H53   1.082389 S    
C60   C61   1.389613 A    
C83   C84   1.396456 A    
O15   C52   1.265868 A    
C35   C44   1.481922 S    
C57   C62   1.423210 A    
C103  H49   1.082304 S    
C81   C86   1.381052 A    
C65   C74   1.481777 S    
O3    C2    1.271862 A    
C20   N1    1.436763 S    
Zn5   O21   2.023843 S    
C109  H54   1.079564 S    
O8    C4    1.279435 A    
C104  H50   1.083111 S    
C28   C29   1.420891 A    
C5    C10   1.402354 A    
O11   C50   1.269335 A    
C9    C10   1.390150 A    
C70   H26   1.082296 S    
C79   C80   1.396829 A    
C33   H14   1.085085 S    
C17   C22   1.403414 A    
C73   H29   1.083216 S    
O9    Zn3   2.022816 S    
O20   Zn6   1.982107 S    
C93   C94   1.408870 A    
C77   C78   1.405694 A    
C27   C32   1.396105 A    
C61   H23   1.082742 S    
C75   C76   1.398361 A    
N4    O31   1.300854 A    
C14   H5    1.085788 S    
C45   C46   1.194499 T    
C12   C50   1.436532 S    
C2    C15   1.424215 S    
O1    Zn1   1.986988 S    
C41   H18   1.082361 S    
C91   C92   1.403080 A    
O2    Zn2   1.978868 S    
C25   C26   1.194712 T    
C11   C12   1.400952 A    
C87   C88   1.397904 A    
C107  C108  1.395869 A    
C73   C74   1.404377 A    
O6    C3    1.284353 A    
O4    Zn2   2.014160 S    
C66   H24   1.085653 S    
C14   C15   1.391996 A    
C31   H13   1.082395 S    
C96   H43   1.082424 S    
C7    C16   1.491266 S    
C27   C28   1.408306 A    
O11   Zn3   2.015075 S    
C76   H32   1.083188 S    
C64   C65   1.410011 A    
C112  H56   1.081559 S    
C6    C7    1.425795 A    
C48   C56   1.416335 S    
C116  H60   1.082828 S    
C83   C92   1.484742 S    
C17   H6    1.082653 S    
C8    H2    1.076843 S    
C89   C90   1.397829 A    
O2    C1    1.282946 A    
C72   H28   1.080491 S    
C11   C16   1.386057 A    
C40   H17   1.082369 S    
C103  C104  1.398373 A    
C96   C97   1.395720 A    
C99   C104  1.405355 A    
C59   C68   1.485045 S    
C19   C20   1.404776 A    
C61   C62   1.404280 A    
C101  C102  1.397427 A    
O4    C2    1.284016 A    
N2    O27   1.300400 A    
C94   H41   1.082043 S    
C78   H33   1.083240 S    
C20   C21   1.408313 A    
C39   H16   1.083292 S    
C77   C86   1.484037 S    
C58   C59   1.400216 A    
C63   C64   1.405953 A    
C114  H58   1.081941 S    
O23   C56   1.281289 A    
C18   C19   1.395482 A    
C108  C109  1.396155 A    
C91   H40   1.083103 S    
N1    O25   1.301456 A    
C42   H19   1.082296 S    
H30   C80   1.082383 S    
C106  C107  1.397144 A    
C105  C110  1.402386 A    
Zn1   O5    1.978869 S    
C28   N2    1.442006 S    
O12   Zn4   2.016589 S    
C89   H38   1.082369 S    
C115  C116  1.397517 A    
Zn2   O6    1.986990 S    
C113  C114  1.397141 A    
C23   C24   1.194607 T    
C49   C67   1.430178 S    
C13   C14   1.382098 A    
C70   C71   1.397330 A    
C41   C42   1.397447 A    
C39   C44   1.404298 A    
C85   C86   1.411278 A    
N1    O26   1.300135 A    
C42   C43   1.398414 A    
C87   H36   1.083129 S    
C30   C31   1.394758 A    
C102  C103  1.397915 A    
C84   C85   1.416545 A    
N4    O32   1.300753 A    
C34   C52   1.433923 S    
C95   H42   1.082356 S    
C100  H46   1.081251 S    
C87   C92   1.403300 A    
C113  H57   1.080986 S    
C39   C40   1.398658 A    
C72   C73   1.398161 A    
