data_mof_unit_48348.cif
_audit_creation_date              2012-12-11T14:50:44-0500
_audit_creation_method            fapswitch 2.2
_symmetry_space_group_name_H-M    P1
_symmetry_Int_Tables_number       1
_space_group_crystal_system       triclinic
_cell_length_a                    10.934553
_cell_length_b                    10.911322
_cell_length_c                    18.832243
_cell_angle_alpha                 90.128719
_cell_angle_beta                  89.655443
_cell_angle_gamma                 60.294684
_cell_volume                      1951.53945239

loop_
_atom_site_label
_atom_site_type_symbol
_atom_type_description
_atom_site_fract_x
_atom_site_fract_y
_atom_site_fract_z
_atom_type_partial_charge
C1    C     C_R   0.234866 0.646907 0.609399 0.530026
C2    C     C_3   0.546182 0.705398 0.799621 -0.277610
C3    C     C_3   0.699516 0.668439 0.814078 0.006327
C4    C     C_3   0.669857 0.639498 0.678757 0.087279
C5    C     C_3   0.784542 0.494393 0.711548 0.129641
C6    C     C_3   0.531343 0.677415 0.720867 -0.275949
C7    C     C_R   0.784475 0.094696 0.703273 -0.171415
C8    C     C_R   0.803797 0.067302 0.775826 -0.137568
C9    C     C_R   0.698282 0.154513 0.824657 0.045188
C10   C     C_R   0.578958 0.277084 0.800916 0.208965
C11   C     C_R   0.556263 0.297145 0.728267 -0.085606
C12   C     C_R   0.650489 0.616405 0.603353 0.554073
C13   C     C_R   0.655329 0.202910 0.679386 -0.032908
C14   C     C_R   0.192232 0.551620 0.721016 -0.153515
C15   C     C_R   0.186264 0.553413 0.795328 -0.012745
C16   C     C_R   0.176935 0.671569 0.832632 0.050181
C17   C     C_R   0.186304 0.778126 0.793940 0.197948
C18   C     C_R   0.179300 0.779235 0.720989 -0.106496
C19   C     C_R   0.189273 0.663916 0.683693 -0.062087
C20   C     C_R   0.721880 0.529218 0.272130 -0.155496
C21   C     C_R   0.720599 0.541741 0.199379 -0.148551
C22   C     C_R   0.651528 0.674883 0.168510 -0.019054
C23   C     C_R   0.626035 0.232991 0.604258 0.526251
C24   C     C_R   0.573468 0.795265 0.211291 -0.063630
C25   C     C_R   0.573959 0.784144 0.285171 0.231279
C26   C     C_R   0.650787 0.648858 0.316140 0.025608
C27   C     C_R   0.530680 0.182266 0.284451 -0.100271
C28   C     C_R   0.533324 0.175523 0.211735 -0.131536
C29   C     C_R   0.649148 0.164754 0.174650 0.031176
C30   C     C_R   0.757871 0.170921 0.210859 -0.146373
C31   C     C_R   0.754951 0.178269 0.284145 -0.152820
C32   C     C_R   0.640661 0.185153 0.321203 0.036326
C33   C     C_R   0.090343 0.803470 0.304723 -0.128982
C34   C     C_R   0.219199 0.649677 0.402460 0.549847
C35   C     C_R   0.071294 0.815339 0.232681 -0.116419
C36   C     C_R   0.106856 0.695210 0.190757 0.037331
C37   C     C_R   0.149510 0.564930 0.222410 -0.139171
C38   C     C_R   0.170851 0.552430 0.295097 -0.128519
C39   C     C_R   0.149160 0.670628 0.335401 0.029290
C40   C     C_R   0.703666 0.101502 0.896167 0.525683
C41   C     C_R   0.722271 0.686040 0.889308 0.563983
C42   C     C_R   0.118630 0.706055 0.905257 0.534057
C43   C     C_R   0.674124 0.108978 0.103388 0.543497
C44   C     C_R   0.694318 0.690248 0.097245 0.546653
C45   C     C_R   0.641542 0.621872 0.391431 0.529664
C46   C     C_R   0.082307 0.715331 0.115543 0.549799
C47   C     C_R   0.616245 0.230448 0.394409 0.544533
C48   C     C_3   0.731536 0.770741 0.770113 -0.224535
C49   C     C_3   0.707214 0.760827 0.689158 0.002691
C50   C     C_3   0.805369 0.514933 0.789371 0.120537
Cr1   Cr    Cr6+3 0.392930 0.397900 0.502230 1.022075
Cr2   Cr    Cr6+3 0.398240 0.708600 0.501260 1.022774
Cr3   Cr    Cr6+3 0.708800 0.393470 0.496460 1.032561
Cr4   Cr    Cr6+3 0.937620 0.938540 0.007640 1.045023
Cr5   Cr    Cr6+3 0.625150 0.937450 0.994520 1.016085
Cr6   Cr    Cr6+3 0.937990 0.625080 0.001190 1.024986
H1    H     H_    0.841869 0.745642 0.780299 0.098755
H2    H     H_    0.507867 0.589465 0.716971 0.115081
H3    H     H_    0.744619 0.418187 0.707062 0.151036
H4    H     H_    0.866304 0.027895 0.665907 0.121504
H5    H     H_    0.897341 0.973919 0.793619 0.155985
H6    H     H_    0.463945 0.389838 0.709470 0.143715
H7    H     H_    0.204619 0.459930 0.692263 0.155603
H8    H     H_    0.664724 0.880821 0.789932 0.146651
H9    H     H_    0.179963 0.866088 0.693528 0.165335
H10   H     H_    0.778754 0.424130 0.293886 0.146139
H11   H     H_    0.781291 0.447533 0.167448 0.138760
H12   H     H_    0.521616 0.899474 0.187977 0.153780
H13   H     H_    0.439317 0.190141 0.311491 0.167108
H14   H     H_    0.448180 0.170810 0.185092 0.133281
H15   H     H_    0.848307 0.163148 0.182872 0.122070
H16   H     H_    0.839853 0.181995 0.311553 0.119229
H17   H     H_    0.070002 0.896044 0.335330 0.133633
H18   H     H_    0.031288 0.918956 0.209768 0.139833
H19   H     H_    0.171577 0.472887 0.190929 0.122877
H20   H     H_    0.214817 0.448620 0.318472 0.135273
H21   H     H_    0.912235 0.500607 0.793885 0.190819
H22   H     H_    0.513540 0.644074 0.834197 0.144217
H23   H     H_    0.474378 0.818967 0.811776 0.163006
H24   H     H_    0.438336 0.770323 0.698290 0.162498
O1    O     O_R   0.507430 0.255570 0.581420 -0.521254
O2    O     O_R   0.524460 0.695920 0.424060 -0.486237
O3    O     O_R   0.736530 0.504260 0.414810 -0.526083
O4    O     O_R   0.691460 0.277160 0.422180 -0.509082
O5    O     O_3   0.499990 0.499990 0.499980 -0.259079
O6    O     O_R   0.089490 0.825610 0.930610 -0.489323
O7    O     O_R   0.818370 0.054540 0.929880 -0.481704
O8    O     O_R   0.605870 0.077310 0.915530 -0.517659
O9    O     O_R   0.646440 0.806700 0.917570 -0.516600
O10   O     O_R   0.837200 0.593290 0.915250 -0.489503
O11   O     O_R   0.065330 0.635370 0.931590 -0.524310
O12   O     O_R   0.280190 0.527390 0.578910 -0.502040
O13   O     O_R   0.068300 0.828790 0.091860 -0.528652
O14   O     O_R   0.798730 0.057480 0.079370 -0.511067
O15   O     O_R   0.584680 0.080480 0.076790 -0.528471
O16   O     O_R   0.626790 0.809640 0.067050 -0.507629
O17   O     O_R   0.816010 0.596460 0.076500 -0.511323
O18   O     O_R   0.045680 0.638310 0.081070 -0.503921
O19   O     O_3   0.833590 0.833690 0.001120 -0.261242
O20   O     O_R   0.260310 0.739740 0.584580 -0.532170
O21   O     O_R   0.532250 0.695150 0.573830 -0.531927
O22   O     O_R   0.744930 0.503430 0.576380 -0.463227
O23   O     O_R   0.699250 0.276390 0.571950 -0.498991
O24   O     O_R   0.499020 0.256400 0.419850 -0.525475
O25   O     O_R   0.272400 0.528160 0.429140 -0.508330
O26   O     O_R   0.251910 0.740570 0.423020 -0.506424
O27   O     O_3   0.801635 0.410843 0.831893 -0.698130
H25   H     H_    0.704307 0.427391 0.831550 0.336744
O28   O     O_3   0.487510 0.382073 0.846439 -0.754029
H26   H     H_    0.526267 0.362535 0.895103 0.323103
C51   C     C_3   0.198127 0.425079 0.832687 -0.326275
H27   H     H_    0.269480 0.395704 0.878734 0.193085
H28   H     H_    0.095534 0.445603 0.853690 0.156216
H29   H     H_    0.239121 0.332230 0.796519 0.133634
O29   O     O_3   0.199095 0.885420 0.825368 -0.694148
H30   H     H_    0.261801 0.845096 0.866834 0.334062
O30   O     O_3   0.503462 0.907146 0.324350 -0.714274
H31   H     H_    0.543321 0.890338 0.372709 0.331086
C52   C     C_3   0.585763 0.905231 0.663552 -0.382828
H32   H     H_    0.615552 0.987371 0.669555 0.143988
H33   H     H_    0.562275 0.902150 0.606588 0.155345
H34   H     H_    0.488034 0.942062 0.695355 0.133434
C53   C     C_3   0.840432 0.732117 0.646346 -0.348367
H35   H     H_    0.935576 0.638526 0.665860 0.195363
H36   H     H_    0.828612 0.717716 0.588904 0.148652
H37   H     H_    0.860713 0.821447 0.651837 0.102899
O31   O     O_3   0.915360 0.435255 0.675788 -0.722059
H38   H     H_    0.969621 0.334477 0.689758 0.337959

loop_
_geom_bond_atom_site_label_1
_geom_bond_atom_site_label_2
_ccdc_geom_bond_type
C41   O9    A    
C35   H18   S    
C6    H2    S    
C51   H27   S    
Cr6   O18   S    
C11   H6    S    
Cr1   O5    S    
C30   H15   S    
C48   H1    S    
C38   H20   S    
C18   H9    S    
C29   C30   A    
Cr3   O4    S    
C2    H22   S    
C40   O7    A    
C20   H10   S    
C28   C29   A    
C18   C19   A    
C3    C41   S    
C30   C31   A    
C53   H36   S    
O29   H30   S    
C49   C53   S    
C3    C48   S    
C43   O14   A    
C13   C23   S    
C10   O28   S    
C42   O11   A    
C49   C52   S    
Cr5   O8    S    
Cr4   O13   S    
C2    H23   S    
C26   C45   S    
Cr6   O11   S    
C23   O23   A    
C45   O2    A    
C8    C9    A    
C43   O15   A    
O27   H25   S    
C36   C46   S    
C42   O6    A    
C4    C12   S    
C9    C10   A    
Cr1   O1    S    
Cr5   O16   S    
C27   H13   S    
C8    H5    S    
Cr6   O10   S    
C41   O10   A    
C46   O18   A    
Cr2   O26   S    
C21   C22   A    
C21   H11   S    
C2    C6    S    
Cr6   O17   S    
C1    O20   A    
C3    C50   S    
C52   H33   S    
C38   C39   A    
C22   C44   S    
Cr2   O21   S    
C1    C19   S    
C5    H3    S    
C34   C39   S    
C34   O26   A    
C15   C51   S    
C53   H35   S    
C24   C25   A    
C4    C6    S    
Cr4   O6    S    
C16   C17   A    
C53   H37   S    
Cr1   O24   S    
Cr2   O20   S    
C9    C40   S    
C35   C36   A    
C12   O22   A    
C37   C38   A    
C44   O16   A    
Cr1   O12   S    
C44   O17   A    
C6    H24   S    
C31   C32   A    
Cr3   O22   S    
Cr1   O25   S    
C5    O31   S    
C17   C18   A    
C51   H28   S    
C33   C39   A    
C47   O4    A    
Cr2   O2    S    
Cr5   O15   S    
C31   H16   S    
Cr2   O5    S    
C1    O12   A    
C50   O27   S    
C32   C47   S    
C22   C24   A    
Cr4   O19   S    
C48   H8    S    
O31   H38   S    
C50   H21   S    
C16   C42   S    
C7    H4    S    
C17   O29   S    
C52   H34   S    
C33   H17   S    
C36   C37   A    
C47   O24   A    
C23   O1    A    
C27   C32   A    
C34   O25   A    
C14   C19   A    
C28   H14   S    
C4    C5    S    
C25   O30   S    
C52   H32   S    
C4    C49   S    
Cr3   O3    S    
C40   O8    A    
C2    C3    S    
C25   C26   A    
C12   O21   A    
Cr5   O9    S    
O30   H31   S    
C11   C13   A    
Cr4   O7    S    
C46   O13   A    
C20   C26   A    
Cr3   O23   S    
C48   C49   S    
C14   H7    S    
C33   C35   A    
C51   H29   S    
C37   H19   S    
C5    C50   S    
Cr4   O14   S    
C45   O3    A    
C7    C8    A    
C10   C11   A    
C24   H12   S    
C7    C13   A    
C20   C21   A    
Cr5   O19   S    
C27   C28   A    
C14   C15   A    
Cr3   O5    S    
Cr6   O19   S    
O28   H26   S    
C29   C43   S    
C15   C16   A    
