data_mof_unit_12628.cif
_audit_creation_date              2012-12-11T15:41:29-0500
_audit_creation_method            fapswitch 2.2
_symmetry_space_group_name_H-M    P1
_symmetry_Int_Tables_number       1
_space_group_crystal_system       triclinic
_cell_length_a                    14.799479
_cell_length_b                    14.821528
_cell_length_c                    14.975089
_cell_angle_alpha                 108.976529
_cell_angle_beta                  109.26642
_cell_angle_gamma                 109.316957
_cell_volume                      2554.91544697

loop_
_atom_site_label
_atom_site_type_symbol
_atom_type_description
_atom_site_fract_x
_atom_site_fract_y
_atom_site_fract_z
_atom_type_partial_charge
C1    C     C_R   0.194668 0.994769 0.903550 -0.118012
C2    C     C_R   0.789611 0.909041 0.411278 -0.116834
C3    C     C_R   0.186560 0.311747 0.963438 -0.182561
C4    C     C_R   0.693299 0.810761 0.331160 -0.142670
C5    C     C_R   0.289806 0.344446 0.046631 0.112931
C6    C     C_R   0.697436 0.726383 0.257608 0.113174
C7    C     C_R   0.294257 0.299625 0.116689 -0.140211
C8    C     C_R   0.799746 0.741428 0.266878 -0.180512
C9    C     C_R   0.197697 0.225263 0.104848 -0.094361
C10   C     C_R   0.895864 0.839751 0.347441 -0.113111
C11   C     C_R   0.095798 0.195489 0.023712 -0.084386
C12   C     C_R   0.748383 0.932822 0.026202 -0.108119
C13   C     C_R   0.890789 0.923506 0.419433 -0.097394
C14   C     C_R   0.396828 0.524960 0.064285 -0.225699
C15   C     C_R   0.591370 0.524504 0.164561 -0.224645
C16   C     C_R   0.779422 0.221375 0.312726 -0.118430
C17   C     C_R   0.197714 0.792932 0.701256 -0.114825
C18   C     C_R   0.497987 0.616869 0.105612 0.054668
C19   C     C_R   0.491718 0.425938 0.097972 0.052207
C20   C     C_R   0.594962 0.622223 0.173328 0.030470
C21   C     C_R   0.392958 0.430336 0.066189 0.029340
C22   C     C_R   0.904776 0.525792 0.425147 -0.168717
C23   C     C_R   0.818489 0.324837 0.324127 0.051675
C24   C     C_R   0.975987 0.519677 0.619352 -0.165926
C25   C     C_R   0.977192 0.621922 0.521674 -0.162989
C26   C     C_R   0.903286 0.423578 0.522997 -0.172135
C27   C     C_R   0.023070 0.617022 0.616938 0.139441
C28   C     C_R   0.876778 0.425870 0.425136 0.147784
C29   C     C_R   0.600547 0.156761 0.618422 -0.188880
C30   C     C_R   0.400793 0.064412 0.434363 -0.197412
C31   C     C_R   0.598267 0.150728 0.524189 -0.185493
C32   C     C_R   0.402527 0.069748 0.529205 -0.197461
C33   C     C_R   0.497860 0.089317 0.428262 0.188017
C34   C     C_R   0.133891 0.700753 0.701023 0.041212
C35   C     C_R   0.502089 0.104361 0.618184 0.181805
C36   C     C_R   0.961872 0.835670 0.938429 -0.170681
C37   C     C_R   0.864931 0.931699 0.835819 -0.191411
C38   C     C_R   0.870333 0.838180 0.941556 -0.159611
C39   C     C_R   0.956821 0.929339 0.832731 -0.154357
C40   C     C_R   0.406503 0.963162 0.223102 0.556891
C41   C     C_R   0.591506 0.100403 0.793893 0.535401
C42   C     C_R   0.830274 0.898346 0.901863 0.140005
C43   C     C_R   0.012651 0.892388 0.894579 0.138002
C44   C     C_R   0.587324 0.314081 0.062779 -0.129976
C45   C     C_R   0.496516 0.039154 0.325689 -0.124555
C46   C     C_R   0.408648 0.698332 0.001980 -0.145395
C47   C     C_R   0.589165 0.055049 0.314176 -0.221101
C48   C     C_R   0.409804 0.006090 0.701218 -0.228863
C49   C     C_R   0.404697 0.220878 0.970676 -0.135497
C50   C     C_R   0.590926 0.789701 0.093871 -0.144562
C51   C     C_R   0.780433 0.313879 0.221681 -0.155088
C52   C     C_R   0.196907 0.700440 0.792580 -0.133077
C53   C     C_R   0.193759 0.900891 0.991929 -0.041669
C54   C     C_R   0.747958 0.023813 0.933401 -0.162128
C55   C     C_R   0.129309 0.929676 0.929963 -0.003407
C56   C     C_R   0.501635 0.071357 0.700459 -0.090188
C57   C     C_R   0.773230 0.945715 0.948039 0.027632
C58   C     C_3   0.277316 0.828359 0.226817 0.127108
C59   C     C_3   0.258363 0.722157 0.141950 -0.329844
C60   C     C_3   0.210002 0.626437 0.160942 -0.988342
C61   C     C_3   0.749529 0.267098 0.924109 0.127072
C62   C     C_3   0.714397 0.347901 0.902429 -0.297940
C63   C     C_3   0.791390 0.464692 0.996923 -1.020113
C64   C     C_R   0.493746 0.323459 0.048695 0.064089
C65   C     C_R   0.499806 0.697096 0.067020 0.058422
C66   C     C_R   0.090155 0.237615 0.952279 -0.125707
H1    H     H_    0.167359 0.018984 0.843506 0.089454
H2    H     H_    0.974317 0.851105 0.353920 0.103353
H3    H     H_    0.320958 0.526051 0.029783 0.121633
H4    H     H_    0.666720 0.525503 0.207827 0.120713
H5    H     H_    0.877423 0.530513 0.351177 0.105479
H6    H     H_    0.003811 0.514734 0.693132 0.106237
H7    H     H_    0.005674 0.697500 0.518658 0.108928
H8    H     H_    0.874740 0.348074 0.526134 0.103418
H9    H     H_    0.680705 0.193208 0.685506 0.181029
H10   H     H_    0.322558 0.031168 0.364676 0.163113
H11   H     H_    0.676085 0.184075 0.525970 0.110624
H12   H     H_    0.758665 0.879843 0.058911 0.092377
H13   H     H_    0.325179 0.037923 0.528721 0.112391
H14   H     H_    0.807094 0.198770 0.373714 0.079627
H15   H     H_    0.172376 0.825971 0.649143 0.082320
H16   H     H_    0.840133 0.803872 0.986014 0.109605
H17   H     H_    0.989938 0.967463 0.792045 0.112589
H18   H     H_    0.669803 0.380099 0.111210 0.097475
H19   H     H_    0.323428 0.645022 0.973680 0.089443
H20   H     H_    0.318850 0.197069 0.934907 0.116872
H21   H     H_    0.675563 0.821530 0.149909 0.118676
H22   H     H_    0.809537 0.376054 0.200206 0.080996
H23   H     H_    0.010964 0.213496 0.888786 0.115363
H24   H     H_    0.170253 0.647444 0.824587 0.082064
H25   H     H_    0.164043 0.834927 0.008703 0.124213
H26   H     H_    0.758302 0.054144 0.879512 0.158058
H27   H     H_    0.998452 0.799772 0.981038 0.112707
H28   H     H_    0.830423 0.971404 0.797139 0.117973
H29   H     H_    0.201763 0.812006 0.233817 0.141433
H30   H     H_    0.343879 0.854454 0.307692 0.103653
H31   H     H_    0.201747 0.702428 0.059419 0.197884
H32   H     H_    0.338443 0.733870 0.147846 0.192017
H33   H     H_    0.266946 0.643189 0.241930 0.271325
H34   H     H_    0.785788 0.973947 0.467110 0.106558
H35   H     H_    0.197048 0.550755 0.098167 0.267039
H36   H     H_    0.129471 0.612532 0.155686 0.262182
H37   H     H_    0.839751 0.303951 0.956420 0.147230
H38   H     H_    0.735538 0.255220 0.988392 0.106261
H39   H     H_    0.715836 0.348096 0.828903 0.208935
H40   H     H_    0.629182 0.322176 0.888287 0.194434
H41   H     H_    0.800275 0.467986 0.074518 0.252656
H42   H     H_    0.758127 0.518892 0.983091 0.272567
H43   H     H_    0.873922 0.495953 0.003394 0.266774
H44   H     H_    0.672493 0.097988 0.377809 0.122046
H45   H     H_    0.180408 0.343682 0.907440 0.108694
H46   H     H_    0.325027 0.979024 0.648358 0.121806
H47   H     H_    0.021253 0.139937 0.016478 0.121120
H48   H     H_    0.965289 0.999601 0.481601 0.098106
H49   H     H_    0.615476 0.800561 0.325991 0.115049
H50   H     H_    0.372469 0.323852 0.181868 0.118548
H51   H     H_    0.804976 0.677722 0.211099 0.113512
H52   H     H_    0.201847 0.191840 0.159564 0.118141
N1    N     N_R   0.293810 0.002730 0.945950 -0.043783
N2    N     N_R   0.443210 0.997250 0.791090 -0.059311
N3    N     N_R   0.443180 0.152110 0.945950 -0.044656
N4    N     N_R   0.556820 0.847890 0.054050 -0.039434
N5    N     N_R   0.706170 0.208950 0.152090 -0.041678
N6    N     N_R   0.293830 0.791050 0.847910 -0.039379
N7    N     N_R   0.293800 0.945910 0.002760 -0.044380
N8    N     N_R   0.706200 0.054090 0.997240 -0.044862
N9    N     N_R   0.706190 0.997270 0.054050 -0.039208
N10   N     N_R   0.706160 0.152130 0.208910 -0.032246
N11   N     N_R   0.293840 0.847870 0.791090 -0.034514
N12   N     N_R   0.443140 0.945920 0.152090 -0.093064
N13   N     N_R   0.556860 0.054080 0.847910 -0.095754
N14   N     N_R   0.556830 0.208940 0.002760 -0.058095
N15   N     N_R   0.443170 0.791060 0.997240 -0.040703
N16   N     N_R   0.556790 0.002750 0.208910 -0.061646
Ni1   Ni    Ni4+2 0.369690 0.999990 0.869700 0.196848
Ni2   Ni    Ni4+2 0.630310 0.000010 0.130300 0.210787
Ni3   Ni    Ni4+2 0.369670 0.869670 0.000000 0.209404
Ni4   Ni    Ni4+2 0.630330 0.130330 0.000000 0.208764
O1    O     O_3   0.297444 0.910453 0.195622 -0.701796
O2    O     O_3   0.700507 0.167588 0.827950 -0.719041

loop_
_geom_bond_atom_site_label_1
_geom_bond_atom_site_label_2
_ccdc_geom_bond_type
C58   O1    S    
N15   Ni3   S    
N8    N9    A    
N2    N13   A    
C33   C45   S    
C14   C18   A    
C4    H49   S    
C52   H24   S    
C50   N4    A    
C24   C27   A    
C60   H33   S    
C41   C56   A    
C12   N9    A    
C44   C64   A    
C18   C65   S    
C15   C19   A    
C54   N8    A    
N5    Ni4   S    
N6    N11   A    
C14   C21   A    
C19   C21   A    
C25   H7    S    
C24   C26   A    
C38   C42   A    
N10   Ni2   S    
N14   Ni4   S    
C40   O1    S    
C51   N5    A    
C48   C56   A    
C1    N1    A    
C37   C42   A    
C2    C13   A    
C58   H30   S    
C41   O2    S    
C62   H39   S    
C1    H1    S    
N11   Ni1   S    
C36   H27   S    
C3    H45   S    
C22   C25   A    
C12   H12   S    
C53   H25   S    
C31   C33   A    
C18   C20   A    
C13   H48   S    
C11   C66   A    
C46   H19   S    
C53   C55   A    
C2    H34   S    
C59   C60   S    
C49   C64   A    
C22   C28   A    
C38   H16   S    
C48   N2    A    
C9    H52   S    
N12   N16   A    
C60   H36   S    
C42   C57   S    
C8    H51   S    
C31   H11   S    
C66   H23   S    
C45   C47   A    
C27   C34   S    
C39   C43   A    
C40   C45   A    
C17   N11   A    
C32   C35   A    
N6    Ni3   S    
C61   H38   S    
N9    Ni2   S    
C46   C65   A    
C4    C6    A    
C41   N13   A    
N16   Ni2   S    
N7    Ni3   S    
C58   C59   S    
N1    Ni1   S    
C15   C20   A    
C16   H14   S    
C7    H50   S    
C63   H43   S    
C2    C4    A    
C58   H29   S    
N4    N15   A    
C54   H26   S    
C62   C63   S    
C30   H10   S    
C23   C51   A    
C19   C64   S    
C49   N3    A    
C23   C28   S    
N3    Ni1   S    
C16   N10   A    
N4    Ni2   S    
C53   N7    A    
C50   H21   S    
C29   H9    S    
C12   C57   A    
N1    N7    A    
C43   C55   S    
C48   H46   S    
C16   C23   A    
C9    C11   A    
C47   N16   A    
C59   H31   S    
C14   H3    S    
C3    C66   A    
C44   N14   A    
C17   C34   A    
N3    N14   A    
C63   H41   S    
C60   H35   S    
C22   H5    S    
C24   H6    S    
C5    C7    A    
C7    C9    A    
C15   H4    S    
C40   N12   A    
N8    Ni4   S    
C30   C33   A    
C61   H37   S    
C35   C56   S    
C34   C52   A    
C49   H20   S    
C8    C10   A    
C3    C5    A    
C10   C13   A    
C51   H22   S    
C6    C8    A    
C61   O2    S    
C62   H40   S    
C10   H2    S    
C25   C27   A    
C47   H44   S    
C6    C20   S    
C29   C35   A    
C26   C28   A    
C44   H18   S    
N2    Ni1   S    
C36   C38   A    
C1    C55   A    
C39   H17   S    
C29   C31   A    
N13   Ni4   S    
C32   H13   S    
C30   C32   A    
C52   N6    A    
N5    N10   A    
C26   H8    S    
C37   H28   S    
C17   H15   S    
C61   C62   S    
C11   H47   S    
C50   C65   A    
C5    C21   S    
C37   C39   A    
C59   H32   S    
C36   C43   A    
C63   H42   S    
N12   Ni3   S    
C46   N15   A    
C54   C57   A    
