data_mof_unit_67364.cif
_audit_creation_date              2013-03-05T16:08:14-0500
_audit_creation_method            fapswitch 2.2
_symmetry_space_group_name_H-M    P1
_symmetry_Int_Tables_number       1
_space_group_crystal_system       triclinic
_cell_length_a                    19.712023
_cell_length_b                    22.990883
_cell_length_c                    8.781367
_cell_angle_alpha                 89.99818
_cell_angle_beta                  103.487476
_cell_angle_gamma                 89.93862
_cell_volume                      3869.92906616

loop_
_atom_site_label
_atom_site_type_symbol
_atom_site_description
_atom_site_fract_x
_atom_site_fract_y
_atom_site_fract_z
_atom_type_partial_charge
P1    P     P_3+3 0.853370 0.434890 0.996520 0.469747
P2    P     P_3+3 0.853370 0.565110 0.496520 0.465718
P3    P     P_3+3 0.353370 0.934890 0.996520 0.468579
P4    P     P_3+3 0.353370 0.065110 0.496520 0.469211
O1    O     O_2   0.860260 0.414960 0.826400 -0.384885
O2    O     O_2   0.860260 0.585040 0.326400 -0.393849
O3    O     O_2   0.360260 0.914960 0.826400 -0.388302
O4    O     O_2   0.360260 0.085040 0.326400 -0.384497
O5    O     O_3   0.918600 0.470180 0.098890 -0.448349
O6    O     O_3   0.918600 0.529820 0.598890 -0.447643
O7    O     O_3   0.418600 0.970180 0.098890 -0.449512
O8    O     O_3   0.418600 0.029820 0.598890 -0.448211
O9    O     O_3   0.975750 0.362410 0.628650 -0.413391
O10   O     O_3   0.975750 0.637590 0.128650 -0.419605
O11   O     O_3   0.475750 0.862410 0.628650 -0.402224
O12   O     O_3   0.475750 0.137590 0.128650 -0.414045
O13   O     O_2   0.858326 0.319780 0.662609 -0.241104
O14   O     O_2   0.860014 0.681064 0.169215 -0.243770
O15   O     O_2   0.358989 0.820877 0.676527 -0.252877
O16   O     O_2   0.358434 0.180457 0.162504 -0.241191
O17   O     O_3   0.777870 0.478879 0.956097 -0.567885
O18   O     O_3   0.777848 0.521766 0.455869 -0.564716
O19   O     O_3   0.278027 0.978801 0.956196 -0.564896
O20   O     O_3   0.277855 0.021698 0.455891 -0.569226
O21   O     O_3   0.954744 0.245729 0.640784 -0.447302
O22   O     O_3   0.955559 0.754344 0.138676 -0.432396
O23   O     O_3   0.453022 0.747253 0.640851 -0.427877
O24   O     O_3   0.454928 0.254350 0.140900 -0.447159
H1    H     H_    0.056449 0.267001 0.748256 0.172670
H2    H     H_    0.057893 0.732117 0.237677 0.162270
H3    H     H_    0.508625 0.767983 0.469467 0.017508
H4    H     H_    0.556621 0.232853 0.248379 0.172494
C1    C     C_3   0.051647 0.187944 0.611126 -0.431763
C2    C     C_3   0.051372 0.812060 0.103491 -0.471415
C3    C     C_3   0.564565 0.707020 0.635001 -0.480662
C4    C     C_3   0.551924 0.311984 0.111460 -0.431298
H5    H     H_    0.017373 0.168021 0.506741 0.256705
H6    H     H_    0.016340 0.832560 0.000638 0.251184
H7    H     H_    0.555062 0.665810 0.691765 0.251281
H8    H     H_    0.517760 0.331991 0.006950 0.256660
P5    P     P_3+3 0.146350 0.434230 0.693140 0.417219
P6    P     P_3+3 0.146350 0.565770 0.193140 0.413878
P7    P     P_3+3 0.646350 0.934230 0.693140 0.416051
P8    P     P_3+3 0.646350 0.065770 0.193140 0.417131
P9    P     P_3+3 0.088471 0.308568 0.116942 0.489948
P10   P     P_3+3 0.089176 0.691030 0.618491 0.480707
P11   P     P_3+3 0.589044 0.808763 0.117734 0.498543
P12   P     P_3+3 0.588313 0.191496 0.617111 0.488702
O25   O     O_2   0.139400 0.414340 0.863230 -0.389203
O26   O     O_2   0.139400 0.585660 0.363230 -0.392338
O27   O     O_2   0.639400 0.914340 0.863230 -0.383552
O28   O     O_2   0.639400 0.085660 0.363230 -0.390317
O29   O     O_3   0.023740 0.362300 0.060930 -0.322549
O30   O     O_3   0.023740 0.637700 0.560930 -0.338377
O31   O     O_3   0.523740 0.862300 0.060930 -0.317897
O32   O     O_3   0.523740 0.137700 0.560930 -0.323027
O33   O     O_2   0.142638 0.320547 0.018747 -0.348804
O34   O     O_2   0.143706 0.678462 0.521727 -0.347422
O35   O     O_2   0.644989 0.827421 0.030770 -0.361330
O36   O     O_2   0.642622 0.179509 0.519218 -0.350497
O37   O     O_3   0.223129 0.475396 0.722698 -0.612649
O38   O     O_3   0.223892 0.525503 0.221406 -0.613483
O39   O     O_3   0.723137 0.975448 0.722007 -0.613514
O40   O     O_3   0.723779 0.025281 0.222038 -0.614123
O41   O     O_3   0.052412 0.241252 0.040670 -0.589000
O42   O     O_3   0.054563 0.758578 0.541118 -0.573050
O43   O     O_3   0.562357 0.742745 0.017626 -0.540401
O44   O     O_3   0.552204 0.258825 0.540607 -0.588767
C5    C     C_3   0.996362 0.219020 0.101518 0.557602
C6    C     C_3   0.001851 0.784289 0.606960 0.510353
C7    C     C_3   0.520146 0.704734 0.083203 0.598289
C8    C     C_3   0.496173 0.281174 0.601471 0.559787
C9    C     C_3   0.001651 0.151118 0.093875 -0.140702
C10   C     C_3   0.025055 0.847918 0.650510 -0.084254
C11   C     C_3   0.508237 0.649977 0.976081 -0.060177
C12   C     C_3   0.501418 0.349073 0.593620 -0.145971
H9    H     H_    0.968931 0.134264 0.982482 0.152206
H10   H     H_    0.051493 0.865383 0.561655 0.180475
H11   H     H_    0.471065 0.660485 0.863549 0.172995
H12   H     H_    0.468526 0.365963 0.482373 0.152486
H13   H     H_    0.055679 0.138888 0.091834 0.179047
H14   H     H_    0.063459 0.847495 0.764789 0.125766
H15   H     H_    0.558903 0.638887 0.948312 0.160512
H16   H     H_    0.555392 0.361208 0.591047 0.178638
C13   C     C_3   0.224858 0.475282 0.311691 0.245122
C14   C     C_3   0.222727 0.525761 0.811926 0.216269
C15   C     C_3   0.725361 0.975571 0.314611 0.206944
C16   C     C_3   0.723755 0.025428 0.812834 0.242124
H17   H     H_    0.191680 0.479886 0.397331 0.113863
H18   H     H_    0.189873 0.520614 0.897963 0.119205
H19   H     H_    0.692216 0.980461 0.400249 0.121024
H20   H     H_    0.690526 0.020470 0.898167 0.116149
C17   C     C_3   0.301125 0.465677 0.406952 -0.260747
C18   C     C_3   0.298752 0.536905 0.905884 -0.211795
C19   C     C_3   0.801965 0.966610 0.409067 -0.200002
C20   C     C_3   0.800045 0.035103 0.908227 -0.259194
H21   H     H_    0.312542 0.500731 0.495914 0.174005
H22   H     H_    0.311110 0.502749 0.997384 0.173753
H23   H     H_    0.813318 0.002142 0.496694 0.170578
H24   H     H_    0.811448 0.000114 0.997472 0.174502
Ba1   Ba    Ba6+2 0.999900 0.457470 0.844900 1.548407
Ba2   Ba    Ba6+2 0.999900 0.542530 0.344900 1.546606
Ba3   Ba    Ba6+2 0.499900 0.957470 0.844900 1.558005
Ba4   Ba    Ba6+2 0.499900 0.042530 0.344900 1.551616
C21   C     C_3   0.781722 0.536282 0.902735 0.134178
C22   C     C_3   0.781294 0.464099 0.404412 0.137087
C23   C     C_3   0.281611 0.036458 0.904546 0.139028
C24   C     C_3   0.281357 0.964215 0.403516 0.133653
C25   C     C_3   0.724208 0.572223 0.952743 0.389535
C26   C     C_3   0.723266 0.429499 0.457341 0.390640
C27   C     C_3   0.223599 0.071375 0.957001 0.388539
C28   C     C_3   0.223367 0.929585 0.455395 0.388319
H25   H     H_    0.739463 0.572730 0.081795 0.071893
H26   H     H_    0.738559 0.430358 0.586018 0.070946
H27   H     H_    0.238838 0.070554 0.085667 0.070927
H28   H     H_    0.239414 0.930153 0.583781 0.076348
O45   O     O_3   0.081330 0.529680 0.090830 -0.430756
O46   O     O_3   0.081330 0.470320 0.590830 -0.430805
O47   O     O_3   0.581330 0.029680 0.090830 -0.429691
O48   O     O_3   0.581330 0.970320 0.590830 -0.430782
P13   P     P_3+3 0.912426 0.690351 0.065285 0.540690
P14   P     P_3+3 0.912461 0.309677 0.563315 0.536490
P15   P     P_3+3 0.412604 0.190487 0.063302 0.536312
P16   P     P_3+3 0.409780 0.811257 0.568915 0.547752
C29   C     C_3   0.025631 0.248750 0.636438 0.271389
C30   C     C_3   0.025625 0.751137 0.128211 0.301127
C31   C     C_3   0.495675 0.731108 0.540055 0.294143
C32   C     C_3   0.525823 0.251214 0.136610 0.271212
H29   H     H_    0.035514 0.276475 0.540563 0.019980
H30   H     H_    0.033377 0.724009 0.029233 0.011798
H31   H     H_    0.468675 0.696907 0.459745 0.141680
H32   H     H_    0.535665 0.223517 0.040642 0.020117
H33   H     H_    0.104559 0.191114 0.589074 0.214188
H34   H     H_    0.103770 0.808854 0.078463 0.209518
H35   H     H_    0.600049 0.697109 0.557360 0.191270
H36   H     H_    0.604892 0.308685 0.089711 0.213303
C33   C     C_R   0.135093 0.690030 0.833364 0.184049
C34   C     C_R   0.134935 0.310159 0.331665 0.180742
C35   C     C_R   0.634664 0.190068 0.831993 0.180736
C36   C     C_R   0.638065 0.811411 0.330295 0.166305
C37   C     C_R   0.184995 0.732682 0.903223 -0.093762
C38   C     C_R   0.184558 0.267322 0.401606 -0.085951
C39   C     C_R   0.684321 0.232845 0.901790 -0.087049
C40   C     C_R   0.691240 0.770776 0.396958 -0.093725
C41   C     C_R   0.781647 0.321590 0.040187 -0.057727
C42   C     C_R   0.784636 0.679942 0.537684 -0.037055
C43   C     C_R   0.281832 0.821602 0.042157 -0.063270
C44   C     C_R   0.281760 0.178451 0.540325 -0.057750
C45   C     C_R   0.729548 0.331537 0.902282 0.321969
C46   C     C_R   0.736110 0.672511 0.392899 0.320459
C47   C     C_R   0.230948 0.831051 0.902361 0.333491
C48   C     C_R   0.229499 0.168479 0.402794 0.321696
C49   C     C_R   0.193027 0.784070 0.824505 -0.141657
C50   C     C_R   0.190692 0.215085 0.324979 -0.116589
C51   C     C_R   0.690652 0.284959 0.824762 -0.114804
C52   C     C_R   0.703344 0.721493 0.314121 -0.097489
C53   C     C_R   0.836307 0.363137 0.100444 0.350709
C54   C     C_R   0.837027 0.636981 0.600554 0.356418
C55   C     C_R   0.336602 0.863020 0.101952 0.331309
C56   C     C_R   0.336461 0.136890 0.600482 0.350627
H37   H     H_    0.160067 0.792296 0.711054 0.206067
H38   H     H_    0.155313 0.205919 0.215006 0.201230
H39   H     H_    0.655339 0.294093 0.714611 0.201399
H40   H     H_    0.674492 0.715786 0.195596 0.217561
C57   C     C_R   0.878927 0.351235 0.249629 -0.452864
C58   C     C_R   0.877854 0.647642 0.752194 -0.482566
C59   C     C_R   0.378450 0.851312 0.252549 -0.404551
C60   C     C_R   0.379137 0.148771 0.749605 -0.452729
C61   C     C_R   0.157208 0.635914 0.083431 0.231651
C62   C     C_R   0.157991 0.364666 0.581436 0.226986
C63   C     C_R   0.657594 0.135629 0.081977 0.227964
C64   C     C_R   0.660221 0.865598 0.580097 0.214284
C65   C     C_R   0.209112 0.678241 0.149003 -0.134307
C66   C     C_R   0.210672 0.322794 0.645509 -0.139110
C67   C     C_R   0.710186 0.177546 0.146116 -0.139651
C68   C     C_R   0.714170 0.824579 0.643181 -0.165701
C69   C     C_R   0.222423 0.726981 0.060953 0.007012
C70   C     C_R   0.223400 0.273732 0.557855 0.034097
C71   C     C_R   0.723036 0.226507 0.058211 0.032302
C72   C     C_R   0.727870 0.775977 0.554948 0.020601
C73   C     C_R   0.248904 0.672445 0.301222 -0.157695
C74   C     C_R   0.251747 0.329357 0.795981 -0.149205
C75   C     C_R   0.751214 0.171044 0.296716 -0.150195
C76   C     C_R   0.754337 0.830743 0.794539 -0.193210
C77   C     C_R   0.800723 0.211720 0.367048 0.379507
C78   C     C_R   0.802534 0.789236 0.866305 0.365119
C79   C     C_R   0.296302 0.714287 0.374185 0.361274
C80   C     C_R   0.301170 0.288594 0.866525 0.379262
C81   C     C_R   0.814887 0.262243 0.283825 -0.085691
C82   C     C_R   0.816221 0.738288 0.783818 -0.098464
C83   C     C_R   0.311331 0.764322 0.289970 -0.007737
C84   C     C_R   0.315233 0.237954 0.783538 -0.086316
C85   C     C_R   0.774886 0.269375 0.126211 0.123075
C86   C     C_R   0.778212 0.732206 0.624320 0.069757
C87   C     C_R   0.273681 0.770130 0.129861 0.125632
C88   C     C_R   0.275183 0.230788 0.626011 0.124192
C89   C     C_R   0.865743 0.305885 0.348364 0.138172
C90   C     C_R   0.865104 0.693459 0.850409 0.162473
C91   C     C_R   0.362825 0.807553 0.353723 0.134917
C92   C     C_R   0.366002 0.194215 0.848254 0.137197
C93   C     C_R   0.119730 0.643846 0.925600 -0.341270
C94   C     C_R   0.120138 0.356702 0.423799 -0.343565
C95   C     C_R   0.619772 0.143642 0.924326 -0.343887
C96   C     C_R   0.621601 0.856844 0.423699 -0.321777
H41   H     H_    0.244141 0.634707 0.370196 0.194001
H42   H     H_    0.246901 0.367167 0.864891 0.189741
H43   H     H_    0.746326 0.133309 0.365820 0.189975
H44   H     H_    0.748763 0.868308 0.863836 0.200242
H45   H     H_    0.921089 0.380554 0.294043 0.130279
H46   H     H_    0.919726 0.618068 0.797035 0.132855
H47   H     H_    0.421305 0.880041 0.296504 0.120389
H48   H     H_    0.421245 0.119350 0.794013 0.130329
N1    N     N_3   0.310173 0.409886 0.488107 -0.133958
H49   H     H_    0.285053 0.411549 0.579633 0.164924
H50   H     H_    0.287920 0.376494 0.412288 0.193666
N2    N     N_3   0.307082 0.593576 0.983023 -0.129567
H51   H     H_    0.282617 0.592680 0.075616 0.155024
H52   H     H_    0.285697 0.626818 0.905444 0.172518
N3    N     N_3   0.812312 0.911175 0.492451 -0.126785
H53   H     H_    0.788434 0.913085 0.585870 0.158139
H54   H     H_    0.790571 0.877004 0.418800 0.182157
N4    N     N_3   0.809116 0.091011 0.988702 -0.134513
H55   H     H_    0.784723 0.089447 0.081335 0.166557
H56   H     H_    0.786471 0.124347 0.912986 0.192483
N5    N     N_3   0.353087 0.470377 0.312565 -0.133914
H57   H     H_    0.342253 0.440738 0.220044 0.174174
H58   H     H_    0.352845 0.512563 0.268163 0.199490
N6    N     N_3   0.350257 0.531593 0.810664 -0.104724
H59   H     H_    0.338864 0.560484 0.716548 0.168284
H60   H     H_    0.350796 0.489053 0.769168 0.208464
N7    N     N_3   0.853283 0.971290 0.313082 -0.096997
H61   H     H_    0.842672 0.941051 0.222010 0.178745
H62   H     H_    0.852403 0.013257 0.267149 0.203057
N8    N     N_3   0.852115 0.030225 0.814197 -0.129828
H63   H     H_    0.841606 0.060118 0.722216 0.172426
H64   H     H_    0.851800 0.988120 0.769409 0.208814
N9    N     N_3   0.768493 0.534706 0.736027 -0.146908
H65   H     H_    0.720561 0.514911 0.693107 0.243371
H66   H     H_    0.805265 0.505217 0.715534 0.148886
N10   N     N_3   0.768158 0.465395 0.237639 -0.144725
H67   H     H_    0.722730 0.488818 0.195942 0.242955
H68   H     H_    0.806975 0.492799 0.217345 0.146126
N11   N     N_3   0.268615 0.035258 0.737767 -0.147138
H69   H     H_    0.222656 0.012696 0.694950 0.245024
H70   H     H_    0.307089 0.007412 0.717534 0.145346
N12   N     N_3   0.268455 0.965483 0.236827 -0.147782
H71   H     H_    0.222114 0.987548 0.193574 0.245777
H72   H     H_    0.306700 0.993542 0.216843 0.146327
N13   N     N_3   0.848939 0.564171 0.963617 -0.209144
H73   H     H_    0.887306 0.545099 0.915691 0.146165
H74   H     H_    0.863477 0.559953 0.083486 0.203433
N14   N     N_3   0.848289 0.435523 0.465279 -0.209285
H75   H     H_    0.886892 0.453588 0.416314 0.141418
H76   H     H_    0.863375 0.440421 0.584759 0.203929
N15   N     N_3   0.348660 0.064743 0.965675 -0.209543
H77   H     H_    0.387216 0.046507 0.916745 0.141196
H78   H     H_    0.363645 0.059685 0.085108 0.204456
N16   N     N_3   0.348309 0.935750 0.464942 -0.215311
H79   H     H_    0.386967 0.953815 0.416133 0.141058
H80   H     H_    0.363138 0.940661 0.584491 0.202489
N17   N     N_R   0.654671 0.545798 0.900437 0.264330
O49   O     O_R   0.617450 0.553853 0.758814 -0.281909
O50   O     O_R   0.624995 0.521809 0.001697 -0.224023
N18   N     N_R   0.653757 0.456246 0.403353 0.257045
O51   O     O_R   0.620734 0.453928 0.257003 -0.259306
O52   O     O_R   0.620595 0.476585 0.503516 -0.273060
N19   N     N_R   0.153977 0.044973 0.902520 0.259020
O53   O     O_R   0.121349 0.046994 0.755865 -0.259886
O54   O     O_R   0.120049 0.025808 0.002420 -0.265185
N20   N     N_R   0.153825 0.956460 0.402682 0.264952
O55   O     O_R   0.120544 0.954682 0.256430 -0.261846
O56   O     O_R   0.120308 0.975143 0.503942 -0.239054
N21   N     N_R   0.722066 0.632136 0.897988 0.201071
O57   O     O_R   0.729045 0.674716 0.997287 -0.418270
O58   O     O_R   0.702167 0.643386 0.749786 -0.437263
N22   N     N_R   0.720700 0.368701 0.409705 0.201001
O59   O     O_R   0.722714 0.327731 0.512495 -0.394950
O60   O     O_R   0.703679 0.355459 0.262697 -0.438912
N23   N     N_R   0.221267 0.132162 0.909373 0.200403
O61   O     O_R   0.222978 0.173108 0.012088 -0.394120
O62   O     O_R   0.203852 0.145383 0.762375 -0.440579
N24   N     N_R   0.220519 0.869054 0.406108 0.194224
O63   O     O_R   0.223782 0.827760 0.508412 -0.400129
O64   O     O_R   0.201443 0.856404 0.258902 -0.442872
N25   N     N_3   0.052548 0.150366 0.744914 -0.084201
H81   H     H_    0.081890 0.170080 0.845972 0.202180
H82   H     H_    0.001445 0.145150 0.756618 0.214439
N26   N     N_3   0.054308 0.848826 0.240035 -0.078625
H83   H     H_    0.083841 0.827878 0.338956 0.206964
H84   H     H_    0.003933 0.854983 0.255714 0.253894
N27   N     N_3   0.597632 0.748743 0.753851 -0.085555
H85   H     H_    0.650810 0.739802 0.788111 0.223359
H86   H     H_    0.592019 0.790757 0.708164 0.178629
N28   N     N_3   0.552770 0.349589 0.245177 -0.084295
H87   H     H_    0.582086 0.329817 0.346255 0.202391
H88   H     H_    0.501657 0.354869 0.256847 0.213953
N29   N     N_R   0.981950 0.120331 0.222913 0.250386
O65   O     O_R   0.917997 0.121915 0.238445 -0.396271
O66   O     O_R   0.025696 0.084380 0.308869 -0.231482
N30   N     N_R   0.968616 0.887629 0.663451 0.281806
O67   O     O_R   0.931719 0.878693 0.766100 -0.413435
O68   O     O_R   0.963871 0.937649 0.592533 -0.277414
N31   N     N_R   0.483583 0.597671 0.042607 0.269349
O69   O     O_R   0.442408 0.600655 0.138287 -0.365451
O70   O     O_R   0.491076 0.547580 0.979962 -0.240803
N32   N     N_R   0.481998 0.379931 0.722953 0.251111
O71   O     O_R   0.418108 0.378608 0.738944 -0.393359
O72   O     O_R   0.525954 0.415674 0.808808 -0.223274
N33   N     N_R   0.696408 0.387041 0.876578 0.247555
O73   O     O_R   0.674665 0.410115 0.991313 -0.278738
O74   O     O_R   0.663980 0.401714 0.736292 -0.389715
N34   N     N_R   0.698835 0.618712 0.358306 0.240302
O75   O     O_R   0.678419 0.592846 0.471236 -0.301560
O76   O     O_R   0.662032 0.609449 0.217509 -0.407446
N35   N     N_R   0.197663 0.886483 0.874114 0.238158
O77   O     O_R   0.174266 0.909997 0.986124 -0.304467
O78   O     O_R   0.166907 0.900840 0.732576 -0.415741
N36   N     N_R   0.196281 0.113053 0.377302 0.247749
O79   O     O_R   0.174201 0.090064 0.491674 -0.282641
O80   O     O_R   0.164234 0.098322 0.236897 -0.388972
N37   N     N_R   0.834892 0.198043 0.524440 0.253528
O81   O     O_R   0.876397 0.153196 0.547346 -0.396595
O82   O     O_R   0.803393 0.211654 0.634267 -0.305077
N38   N     N_R   0.834812 0.801946 0.025314 0.265404
O83   O     O_R   0.801501 0.787693 0.131350 -0.308633
O84   O     O_R   0.876036 0.846845 0.052583 -0.370209
N39   N     N_R   0.326998 0.702551 0.535188 0.246172
O85   O     O_R   0.366290 0.656566 0.567861 -0.436507
O86   O     O_R   0.293370 0.719416 0.638393 -0.320728
N40   N     N_R   0.335258 0.302266 0.023930 0.253432
O87   O     O_R   0.303685 0.288766 0.133673 -0.304644
O88   O     O_R   0.376762 0.347037 0.046826 -0.395791
N41   N     N_3   0.064451 0.605526 0.854393 -0.172294
H89   H     H_    0.027722 0.604449 0.921865 0.159203
H90   H     H_    0.083692 0.564135 0.841352 0.154562
N42   N     N_3   0.065121 0.395363 0.352798 -0.170384
H91   H     H_    0.028280 0.396434 0.420098 0.158950
H92   H     H_    0.084725 0.436671 0.340577 0.154855
N43   N     N_3   0.564641 0.105157 0.853497 -0.171237
H93   H     H_    0.528065 0.104008 0.921381 0.158960
H94   H     H_    0.584106 0.063818 0.840694 0.154132
N44   N     N_3   0.565089 0.894332 0.354169 -0.170583
H95   H     H_    0.529044 0.894771 0.423409 0.157920
H96   H     H_    0.583437 0.936000 0.340418 0.155001
N45   N     N_R   0.929939 0.238143 0.000561 0.239306
O89   O     O_R   0.923586 0.290746 0.946238 -0.303335
O90   O     O_R   0.874447 0.205959 0.981147 -0.415687
N46   N     N_R   0.935833 0.781893 0.487885 0.253153
O91   O     O_R   0.907381 0.731605 0.448073 -0.346559
O92   O     O_R   0.911975 0.826826 0.401986 -0.349367
N47   N     N_R   0.452905 0.732136 0.081670 0.209057
O93   O     O_R   0.413417 0.710376 0.166498 -0.482951
O94   O     O_R   0.425099 0.767368 0.968358 -0.305698
N48   N     N_R   0.429769 0.262099 0.500626 0.239283
O95   O     O_R   0.423488 0.209503 0.446321 -0.303390
O96   O     O_R   0.374230 0.294312 0.481343 -0.417372
N49   N     N_3   0.000102 0.237940 0.262883 -0.244992
H97   H     H_    0.957114 0.221327 0.298484 0.117545
H98   H     H_    0.991134 0.282584 0.263965 0.075969
N50   N     N_3   0.993434 0.755361 0.750083 -0.264072
H99   H     H_    0.976763 0.712930 0.724400 0.120236
H100  H     H_    0.952976 0.775438 0.788236 0.101729
N51   N     N_3   0.556799 0.688096 0.241576 -0.192155
H101  H     H_    0.529999 0.656977 0.290324 0.192991
H102  H     H_    0.558854 0.724406 0.311199 -0.005893
N52   N     N_3   0.499952 0.262309 0.762907 -0.244933
H103  H     H_    0.490964 0.217688 0.764089 0.075892
H104  H     H_    0.456995 0.279040 0.798560 0.117428
N53   N     N_3   0.200891 0.425956 0.208483 -0.214762
H105  H     H_    0.148917 0.433314 0.152002 0.181316
H106  H     H_    0.228805 0.424673 0.121036 0.155246
N54   N     N_3   0.197350 0.574511 0.707763 -0.213728
H107  H     H_    0.145837 0.565981 0.650176 0.187711
H108  H     H_    0.225752 0.576573 0.621353 0.156359
N55   N     N_3   0.701611 0.925843 0.213231 -0.210576
H109  H     H_    0.649734 0.933305 0.156045 0.185696
H110  H     H_    0.729526 0.924129 0.125806 0.157971
N56   N     N_3   0.699542 0.074811 0.709936 -0.215052
H111  H     H_    0.647902 0.067003 0.651816 0.183030
H112  H     H_    0.728070 0.076724 0.623691 0.154840

loop_
_geom_bond_atom_site_label_1
_geom_bond_atom_site_label_2
_geom_bond_distance
_ccdc_geom_bond_type
P3    C55   1.959719 S    
N15   H78   1.027680 S    
C15   N55   1.457966 S    
N49   H97   1.042089 S    
C15   H19   1.110888 S    
N27   H85   1.041166 S    
P5    O37   1.753159 S    
C73   C79   1.389815 A    
O24   P15   1.747487 S    
P7    O39   1.754269 S    
N31   O70   1.299330 A    
O17   C21   1.408474 S    
N41   H89   1.037293 S    
P8    O40   1.754072 S    
P9    O33   1.545811 D    
N24   O63   1.298227 A    
C14   N54   1.458903 S    
C71   C85   1.445695 A    
C19   H23   1.108896 S    
O10   Ba2   2.860945 S    
C81   C89   1.438778 A    
C24   N12   1.426345 S    
N54   H107  1.042204 S    
O22   C30   1.407264 S    
C22   N14   1.459522 S    
O16   P15   1.544891 D    
C42   C46   1.411987 A    
O12   Ba4   2.860945 S    
C6    N46   1.468100 S    
C79   N39   1.427728 S    
N38   O83   1.300466 A    
P2    O18   1.758402 S    
C19   N3    1.460072 S    
P5    O46   1.612100 S    
P4    O8    1.605693 S    
P7    O48   1.612100 S    
C4    N28   1.455175 S    
O10   P13   1.735474 S    
C47   C49   1.398664 A    
C23   N11   1.426994 S    
N8    H64   1.044364 S    
C9    H13   1.105371 S    
N6    H59   1.042949 S    
C12   N32   1.463562 S    
N1    H50   1.043832 S    
O1    Ba1   2.890590 S    
N35   O78   1.292039 A    
N40   O87   1.300978 A    
C9    N29   1.463424 S    
C14   H18   1.110221 S    
C30   H30   1.108863 S    
N44   H95   1.037380 S    
P8    O47   1.613544 S    
C49   H37   1.071549 S    
C27   N23   1.456376 S    
C78   C82   1.435297 A    
C58   C90   1.420267 A    
C7    N51   1.460525 S    
C41   C53   1.445542 A    
N31   O69   1.298997 A    
O44   C8    1.429587 S    
O19   C23   1.408183 S    
C1    C29   1.522631 S    
N32   O71   1.299740 A    
C28   N24   1.454670 S    
C3    C31   1.521870 S    
O4    Ba4   2.888592 S    
C1    N25   1.455046 S    
N20   O56   1.298126 A    
C11   N31   1.468755 S    
P1    Ba1   3.490290 S    
N30   O67   1.299935 A    
C67   C75   1.387874 A    
C62   C66   1.430712 A    
P3    Ba3   3.490290 S    
C68   C76   1.386705 A    
C46   N34   1.435232 S    
C69   C87   1.445047 A    
C3    H35   1.108209 S    
N42   H91   1.037976 S    
N55   H109  1.042775 S    
P6    O45   1.613544 S    
C45   C51   1.398692 A    
C27   N19   1.475230 S    
N25   H82   1.043194 S    
C58   H46   1.070421 S    
C34   C94   1.412139 A    
O42   C6    1.429093 S    
P4    Ba4   3.489384 S    
N46   O91   1.297463 A    
C55   C59   1.411528 A    
C56   C60   1.408456 A    
C31   H31   1.106683 S    
C62   C94   1.423020 A    
P3    O7    1.607114 S    
P11   O35   1.541814 D    
C17   N5    1.464247 S    
O13   P14   1.544807 D    
C9    H9    1.108715 S    
N37   O81   1.301678 A    
C21   N9    1.426302 S    
O11   Ba3   2.861815 S    
N56   H111  1.042553 S    
C11   H11   1.110685 S    
N14   H75   1.043892 S    
H1    C29   1.109764 S    
C75   H43   1.075915 S    
C10   N30   1.463203 S    
N47   O93   1.297049 A    
H3    C31   1.114631 S    
C73   H41   1.074774 S    
C57   H45   1.071079 S    
C66   C74   1.387635 A    
P16   C91   1.902404 S    
N13   H73   1.043627 S    
Ba1   O46   3.051723 S    
N27   H86   1.041779 S    
N2    H52   1.044616 S    
C36   C96   1.411610 A    
C44   C56   1.444583 A    
N17   O49   1.301285 A    
C5    N45   1.466583 S    
P2    Ba2   3.489384 S    
N34   O75   1.298344 A    
C93   N41   1.427861 S    
N36   O80   1.292707 A    
C13   C17   1.556057 S    
C3    N27   1.455446 S    
C40   C72   1.411872 A    
N34   O76   1.297018 A    
N18   O51   1.299249 A    
C2    N26   1.457164 S    
P11   C36   1.892171 S    
O22   P13   1.746410 S    
C39   C71   1.414624 A    
P6    O38   1.753568 S    
O40   C15   1.398564 S    
Ba4   O47   3.051401 S    
P8    O28   1.598171 D    
O2    Ba2   2.888592 S    
P9    O29   1.760666 S    
O3    Ba3   2.890590 S    
N9    H65   1.037635 S    
P10   O34   1.544779 D    
C47   N35   1.427736 S    
N29   O66   1.300504 A    
C4    C32   1.523167 S    
O23   C31   1.405221 S    
N50   H99   1.037611 S    
N5    H57   1.043766 S    
N33   O74   1.293130 A    
O11   P16   1.741955 S    
C53   C57   1.408199 A    
N39   O86   1.300289 A    
C84   C92   1.438139 A    
C74   C80   1.388400 A    
C83   C87   1.434719 A    
C51   H39   1.072317 S    
C70   C88   1.444913 A    
C74   H42   1.076013 S    
N26   H84   1.043316 S    
C40   C52   1.396540 A    
C43   C47   1.409041 A    
C6    C10   1.554151 S    
C29   H29   1.108964 S    
C39   C51   1.395813 A    
N23   O61   1.298789 A    
C23   N15   1.459040 S    
C8    N48   1.466455 S    
C38   C50   1.395493 A    
N4    H56   1.043800 S    
Ba2   O45   3.051401 S    
P6    O26   1.598171 D    
P10   C33   1.892988 S    
N18   O52   1.298924 A    
P9    O41   1.769014 S    
C42   C86   1.443375 A    
C17   H21   1.108540 S    
C28   H28   1.097693 S    
C21   C25   1.546355 S    
N12   H71   1.035952 S    
C20   N8    1.463886 S    
C23   C27   1.551792 S    
C50   H38   1.072170 S    
C44   C48   1.411573 A    
N22   O60   1.292265 A    
N19   O53   1.299184 A    
C77   C81   1.434262 A    
C42   C54   1.441787 A    
N24   O64   1.292480 A    
C80   C84   1.434223 A    
H4    C32   1.109751 S    
N16   H79   1.043998 S    
C37   C49   1.396468 A    
C38   C70   1.414485 A    
C33   C93   1.410754 A    
C20   H24   1.108693 S    
P9    C34   1.894742 S    
N5    H58   1.044921 S    
N54   H108  1.043881 S    
C25   N21   1.456262 S    
P13   C90   1.901181 S    
C81   C85   1.433489 A    
C68   C72   1.420872 A    
N22   O59   1.298734 A    
N38   O84   1.301666 A    
N48   O95   1.295298 A    
C59   C91   1.422900 A    
C48   N36   1.426929 S    
C64   C68   1.431838 A    
N53   H106  1.044219 S    
C16   C20   1.557496 S    
Ba1   Ba2   4.806448 S    
O39   C16   1.397233 S    
Ba3   O48   3.051723 S    
C12   H16   1.105504 S    
N6    H60   1.044637 S    
N1    H49   1.038364 S    
N40   O88   1.301684 A    
P1    O1    1.598326 D    
C84   C88   1.433454 A    
C19   N7    1.463997 S    
P10   O42   1.766457 S    
P3    O3    1.598326 D    
O25   Ba1   2.891090 S    
N28   H87   1.043343 S    
P4    O20   1.759177 S    
N44   H96   1.041260 S    
C18   H22   1.108985 S    
O27   Ba3   2.891090 S    
N11   H69   1.036014 S    
P5    O25   1.598229 D    
C64   C96   1.420875 A    
O21   C29   1.408504 S    
N52   H103  1.041720 S    
P3    O19   1.761188 S    
O29   Ba1   2.861611 S    
O5    Ba2   2.897080 S    
N32   O72   1.300487 A    
N51   H101  1.039461 S    
C5    C9    1.566980 S    
O7    Ba4   2.897080 S    
O20   C24   1.406244 S    
C5    N49   1.467623 S    
N45   O90   1.299170 A    
C66   C70   1.420317 A    
C41   C85   1.441100 A    
C18   N6    1.463083 S    
C65   C73   1.389401 A    
N35   O77   1.297523 A    
N49   H98   1.041743 S    
C22   N10   1.426805 S    
C10   H14   1.107183 S    
C4    H36   1.106899 S    
N30   O68   1.300645 A    
N41   H90   1.040224 S    
C17   N1    1.457774 S    
C12   H12   1.108819 S    
P1    O5    1.607114 S    
O32   Ba4   2.862473 S    
O8    Ba3   2.895029 S    
N42   H92   1.040641 S    
C34   C38   1.421848 A    
C28   N20   1.475591 S    
N3    H53   1.037553 S    
C13   H17   1.110759 S    
C1    H5    1.103771 S    
C24   C28   1.546920 S    
C3    H7    1.106866 S    
N25   H81   1.043378 S    
P6    C61   1.916118 S    
C57   C89   1.418457 A    
N43   H93   1.037503 S    
C2    C30   1.522991 S    
P10   O30   1.766884 S    
N46   O92   1.300302 A    
N7    H62   1.044321 S    
C94   N42   1.427390 S    
P12   O44   1.768792 S    
O26   Ba2   2.893114 S    
C20   N4    1.457813 S    
C7    N47   1.464170 S    
N8    H63   1.043676 S    
C25   N17   1.472077 S    
C54   C58   1.407652 A    
N14   H76   1.027844 S    
C33   C37   1.423418 A    
O28   Ba4   2.893114 S    
C60   C92   1.418852 A    
O30   Ba2   2.862473 S    
O6    Ba1   2.895029 S    
C36   C40   1.423309 A    
N47   O94   1.300481 A    
P5    C62   1.917558 S    
C76   H44   1.076694 S    
Ba1   O45   2.895772 S    
P8    C63   1.919175 S    
C21   N13   1.457389 S    
N39   O85   1.301748 A    
C35   C95   1.412264 A    
N23   O62   1.292118 A    
N19   O54   1.298186 A    
C11   H15   1.111290 S    
P7    O27   1.598229 D    
O41   C5    1.429719 S    
C78   N38   1.423344 S    
C76   C78   1.388935 A    
O43   C7    1.418693 S    
C63   C95   1.422870 A    
P7    Ba3   3.490925 S    
O37   C14   1.399200 S    
O14   P13   1.544735 D    
C61   C93   1.421983 A    
C96   N44   1.427302 S    
C16   N56   1.459773 S    
C10   H10   1.109843 S    
Ba3   Ba4   4.806448 S    
C2    H34   1.107393 S    
N20   O55   1.299423 A    
C41   C45   1.411677 A    
O24   C32   1.408520 S    
C77   N37   1.424101 S    
Ba4   O48   2.893721 S    
C7    C11   1.556456 S    
H2    C30   1.110854 S    
P1    O17   1.764681 S    
N29   O65   1.299729 A    
C60   H48   1.070680 S    
C24   N16   1.458447 S    
P4    O4    1.598383 D    
C43   C55   1.444261 A    
N50   H100  1.041724 S    
P8    Ba4   3.491856 S    
N33   O73   1.296613 A    
C45   N33   1.426717 S    
C95   N43   1.427427 S    
C80   N40   1.424117 S    
O12   P15   1.738157 S    
C83   C91   1.438317 A    
C75   C77   1.388974 A    
O31   Ba3   2.861611 S    
N10   H67   1.035349 S    
C14   C18   1.554443 S    
N21   O58   1.294638 A    
C44   C88   1.440848 A    
C16   H20   1.110247 S    
N37   O82   1.300960 A    
C43   C87   1.441333 A    
O21   P14   1.746962 S    
C26   N18   1.474942 S    
P5    Ba1   3.490925 S    
C82   C90   1.437952 A    
P2    C54   1.950626 S    
C13   N53   1.460183 S    
C46   C52   1.397817 A    
N51   H102  1.029999 S    
P2    O2    1.598383 D    
C35   C39   1.422437 A    
P6    Ba2   3.491856 S    
P11   O43   1.771835 S    
P12   O36   1.545844 D    
C8    N52   1.467643 S    
N55   H110  1.044384 S    
O38   C13   1.398195 S    
N12   H72   1.038275 S    
O15   P16   1.544399 D    
N13   H74   1.028959 S    
P15   C92   1.899456 S    
C4    H8    1.103801 S    
N2    H51   1.037801 S    
N17   O50   1.296293 A    
C67   C71   1.420882 A    
N11   H70   1.038474 S    
O18   C22   1.407389 S    
C63   C67   1.431952 A    
C15   C19   1.557462 S    
N16   H80   1.028218 S    
N36   O79   1.296867 A    
N3    H54   1.044320 S    
C65   C69   1.420424 A    
C37   C69   1.415303 A    
N10   H68   1.038656 S    
N21   O57   1.296932 A    
C8    C12   1.567153 S    
C26   N22   1.456604 S    
N43   H94   1.040423 S    
C48   C50   1.398071 A    
N48   O96   1.299024 A    
N9    H66   1.037928 S    
C6    N50   1.465222 S    
O9    Ba1   2.861815 S    
N15   H77   1.043881 S    
P2    O6    1.605693 S    
O23   P16   1.742709 S    
C72   C86   1.443737 A    
P11   O31   1.765767 S    
N53   H105  1.042525 S    
C22   C26   1.551489 S    
P12   O32   1.761758 S    
C26   H26   1.099636 S    
C32   H32   1.108768 S    
C61   C65   1.432721 A    
P12   C35   1.895312 S    
C2    H6    1.105933 S    
C79   C83   1.435550 A    
Ba3   O47   2.895772 S    
Ba2   O46   2.893721 S    
P7    C64   1.917225 S    
C25   H25   1.102664 S    
C18   N2    1.460164 S    
N26   H83   1.043500 S    
P1    C53   1.952345 S    
C59   H47   1.071450 S    
N28   H88   1.043219 S    
O9    P14   1.739205 S    
P4    C56   1.951629 S    
P14   C89   1.899448 S    
N4    H55   1.037621 S    
N52   H104  1.042096 S    
C82   C86   1.432942 A    
C1    H33   1.106809 S    
C52   H40   1.071448 S    
N7    H61   1.043554 S    
C27   H27   1.099472 S    
N45   O89   1.295244 A    
N56   H112  1.044254 S    
