data_mof_unit_8008.cif
_audit_creation_date              2013-03-05T15:41:46-0500
_audit_creation_method            fapswitch 2.2
_symmetry_space_group_name_H-M    P1
_symmetry_Int_Tables_number       1
_space_group_crystal_system       triclinic
_cell_length_a                    11.134508
_cell_length_b                    12.708213
_cell_length_c                    23.562017
_cell_angle_alpha                 89.854267
_cell_angle_beta                  96.257315
_cell_angle_gamma                 69.012215
_cell_volume                      3091.1768104

loop_
_atom_site_label
_atom_site_type_symbol
_atom_site_description
_atom_site_fract_x
_atom_site_fract_y
_atom_site_fract_z
_atom_type_partial_charge
O1    O     O_R   0.196340 0.303200 0.448500 -0.475612
O2    O     O_R   0.199310 0.519670 0.454880 -0.469699
C1    C     C_R   0.149489 0.617081 0.428926 0.550212
O3    O     O_R   0.045660 0.691380 0.441680 -0.473451
O4    O     O_R   0.811930 0.659460 0.430950 -0.449155
C2    C     C_R   0.744346 0.607336 0.405385 0.579325
O5    O     O_R   0.757900 0.507620 0.421760 -0.456994
O6    O     O_R   0.988630 0.322990 0.439840 -0.496774
C3    C     C_R   0.101251 0.282386 0.423546 0.548755
O7    O     O_R   0.196380 0.301720 0.573850 -0.521155
O8    O     O_R   0.199350 0.518300 0.571080 -0.506982
C4    C     C_R   0.151105 0.615917 0.590379 0.529470
O9    O     O_R   0.045700 0.689900 0.567030 -0.516536
O10   O     O_R   0.811960 0.658090 0.547150 -0.496442
C5    C     C_R   0.749822 0.601435 0.565962 0.549753
O11   O     O_R   0.757930 0.506140 0.547110 -0.495305
O12   O     O_R   0.988670 0.321620 0.556040 -0.509261
C6    C     C_R   0.098899 0.276583 0.584168 0.537574
Cr1   Cr    Cr6+3 0.189770 0.415650 0.511620 1.074727
Cr2   Cr    Cr6+3 0.930400 0.667320 0.496770 1.102755
Cr3   Cr    Cr6+3 0.879870 0.417010 0.491650 1.085506
O13   O     O_3   0.000020 0.499990 0.500010 -0.281053
C7    C     C_R   0.660863 0.755864 0.141180 -0.001148
C8    C     C_R   0.672297 0.652187 0.348920 -0.003665
C9    C     C_R   0.609617 0.589936 0.257730 -0.132826
C10   C     C_R   0.613739 0.585770 0.316819 0.161078
C11   C     C_R   0.692013 0.743297 0.321328 0.164824
C12   C     C_R   0.682018 0.749807 0.261271 -0.030346
C13   C     C_R   0.649832 0.666990 0.230471 -0.057107
C14   C     C_R   0.648185 0.666432 0.171843 -0.153153
C15   C     C_R   0.696917 0.838198 0.171159 0.178221
C16   C     C_R   0.705498 0.835116 0.231080 -0.098575
H1    H     H_    0.623051 0.600999 0.149799 0.160385
H2    H     H_    0.572805 0.534080 0.232763 0.173510
H3    H     H_    0.730563 0.899786 0.253533 0.212827
C17   C     C_1   0.236970 0.162353 0.122552 0.018138
C18   C     C_2   0.198018 0.236220 0.226710 0.215468
C19   C     C_2   0.154426 0.176936 0.261948 -0.110163
C20   C     C_1   0.132056 0.205386 0.320235 0.039897
C21   C     C_1   0.217105 0.198210 0.169349 -0.000216
C22   C     C_1   0.115909 0.234853 0.368374 0.063489
H4    H     H_    0.133697 0.104116 0.246321 0.107538
C23   C     C_1   0.166462 0.747847 0.123157 0.026107
C24   C     C_2   0.141400 0.680163 0.226407 0.031430
C25   C     C_2   0.230663 0.678516 0.270437 -0.048402
C26   C     C_1   0.215761 0.654107 0.328760 0.054423
C27   C     C_1   0.154062 0.716036 0.169739 0.008334
C28   C     C_1   0.193275 0.635943 0.376031 0.088992
H5    H     H_    0.313343 0.700861 0.263037 0.120886
C29   C     C_1   0.624665 0.761909 0.864472 0.027467
C30   C     C_2   0.676517 0.736959 0.757247 -0.021057
C31   C     C_2   0.629017 0.671014 0.723194 0.234731
C32   C     C_1   0.661571 0.652817 0.665284 -0.023292
C33   C     C_1   0.652948 0.750203 0.816399 0.027630
C34   C     C_1   0.695417 0.632871 0.618422 -0.008029
C35   C     C_R   0.225555 0.158051 0.847174 0.003779
C36   C     C_R   0.103177 0.215206 0.636862 -0.013780
C37   C     C_R   0.987848 0.209841 0.718041 -0.019811
C38   C     C_R   0.987515 0.227610 0.659579 -0.117323
C39   C     C_R   0.220725 0.169047 0.670153 -0.141382
C40   C     C_R   0.224353 0.158399 0.728992 0.034293
C41   C     C_R   0.106930 0.178629 0.753543 0.044188
C42   C     C_R   0.112072 0.168455 0.812850 -0.149002
C43   C     C_R   0.334945 0.162703 0.821647 0.022866
C44   C     C_R   0.341020 0.141910 0.763687 0.012171
H6    H     H_    0.028944 0.168773 0.832849 0.123343
H7    H     H_    0.895493 0.261633 0.632839 0.148658
H8    H     H_    0.307652 0.158169 0.650590 0.136098
C45   C     C_R   0.133797 0.764968 0.846855 -0.004858
C46   C     C_R   0.199112 0.632060 0.648446 0.012091
C47   C     C_R   0.267828 0.545579 0.743964 0.048260
C48   C     C_R   0.260991 0.536657 0.685063 -0.072316
C49   C     C_R   0.154135 0.739356 0.670406 0.003389
C50   C     C_R   0.136134 0.747588 0.728734 0.067204
C51   C     C_R   0.201998 0.650821 0.766328 0.067562
C52   C     C_R   0.203207 0.662284 0.825409 -0.101376
C53   C     C_R   0.050290 0.853336 0.809521 -0.114762
C54   C     C_R   0.050284 0.846310 0.750674 -0.011978
H9    H     H_    0.262440 0.593763 0.855224 0.126257
H10   H     H_    0.989961 0.931640 0.826137 0.139030
H11   H     H_    0.298872 0.453800 0.667723 0.143362
O14   O     O_R   0.113660 0.883270 0.047820 -0.475797
O15   O     O_R   0.186930 0.068530 0.043990 -0.499695
C55   C     C_R   0.265809 0.109880 0.069300 0.544963
O16   O     O_R   0.377770 0.089040 0.054220 -0.475657
O17   O     O_R   0.562800 0.872960 0.056970 -0.442458
C56   C     C_R   0.599520 0.774874 0.081629 0.568131
O18   O     O_R   0.555390 0.700940 0.062700 -0.532966
O19   O     O_R   0.295020 0.731920 0.049950 -0.502064
C57   C     C_R   0.189484 0.787586 0.069724 0.549903
O20   O     O_R   0.094290 0.884230 0.921550 -0.522243
O21   O     O_R   0.168980 0.069410 0.926940 -0.501492
C58   C     C_R   0.245139 0.112401 0.906083 0.540512
O22   O     O_R   0.358400 0.089990 0.927950 -0.524963
O23   O     O_R   0.544850 0.873850 0.939920 -0.503299
C59   C     C_R   0.574720 0.777008 0.918487 0.551942
O24   O     O_R   0.536020 0.701900 0.936430 -0.486548
O25   O     O_R   0.277070 0.732810 0.932890 -0.491735
C60   C     C_R   0.165473 0.789810 0.905756 0.546752
Cr4   Cr    Cr6+3 0.149500 0.973980 0.985330 1.051076
Cr5   Cr    Cr6+3 0.457000 0.976510 0.994660 1.085675
Cr6   Cr    Cr6+3 0.411170 0.724270 0.995270 1.048023
O26   O     O_3   0.339220 0.891590 0.991750 -0.267247
C61   C     C_3   0.024574 0.651101 0.234947 -0.335814
H12   H     H_    0.963417 0.656302 0.193740 0.146639
H13   H     H_    0.055318 0.564069 0.253770 0.191248
H14   H     H_    0.965789 0.710665 0.264367 0.153599
N1    N     N_R   0.554594 0.609855 0.744056 0.078669
O27   O     O_R   0.554551 0.517717 0.720091 -0.373640
O28   O     O_R   0.478111 0.650114 0.783037 -0.361356
C62   C     C_3   0.757211 0.797627 0.735365 -0.435243
H15   H     H_    0.782248 0.850133 0.768838 0.138867
H16   H     H_    0.848465 0.735462 0.722908 0.146576
H17   H     H_    0.702439 0.853992 0.697832 0.129956
C63   C     C_3   0.445075 0.188978 0.855179 -0.363603
H18   H     H_    0.490094 0.231796 0.827870 0.109450
H19   H     H_    0.408528 0.247695 0.889513 0.146780
H20   H     H_    0.522768 0.110038 0.873377 0.163742
C64   C     C_3   0.859818 0.238282 0.741841 -0.396106
H21   H     H_    0.858899 0.165653 0.767641 0.112847
H22   H     H_    0.844222 0.311765 0.769329 0.164160
H23   H     H_    0.777142 0.260211 0.707452 0.154021
C65   C     C_3   0.469935 0.105128 0.739104 -0.410820
H24   H     H_    0.554400 0.073450 0.772438 0.131225
H25   H     H_    0.478461 0.033306 0.711050 0.135050
H26   H     H_    0.477570 0.176326 0.714242 0.126266
N2    N     N_R   0.726231 0.923744 0.141780 0.089092
O29   O     O_R   0.706613 0.021495 0.163801 -0.305270
O30   O     O_R   0.789272 0.899008 0.097299 -0.329307
C66   C     C_3   0.336676 0.440413 0.781344 -0.372611
H27   H     H_    0.379057 0.366272 0.755443 0.134446
H28   H     H_    0.416982 0.450798 0.810221 0.182442
H29   H     H_    0.267350 0.422818 0.806912 0.111597
C67   C     C_3   0.948922 0.940055 0.713417 -0.416158
H30   H     H_    0.869220 0.990508 0.737668 0.114575
H31   H     H_    0.991943 0.997852 0.696447 0.154287
H32   H     H_    0.903228 0.904745 0.677986 0.141447
C68   C     C_3   0.144519 0.839753 0.632888 -0.365767
H33   H     H_    0.209585 0.812436 0.598886 0.141032
H34   H     H_    0.044643 0.882589 0.611585 0.148478
H35   H     H_    0.178001 0.899674 0.658244 0.138795
N3    N     N_R   0.560882 0.512824 0.343707 0.096779
O31   O     O_R   0.507550 0.541572 0.390559 -0.327736
O32   O     O_R   0.550408 0.425553 0.317888 -0.269124
N4    N     N_R   0.724504 0.826453 0.354199 0.084410
O33   O     O_R   0.835066 0.838480 0.351644 -0.342001
O34   O     O_R   0.650045 0.881017 0.391545 -0.306789
N5    N     N_R   0.230481 0.332940 0.243892 0.094516
O35   O     O_R   0.257371 0.392735 0.205705 -0.320715
O36   O     O_R   0.244023 0.357061 0.297286 -0.312758

loop_
_geom_bond_atom_site_label_1
_geom_bond_atom_site_label_2
_geom_bond_distance
_ccdc_geom_bond_type
C37   C41   1.412412 A    
C56   O18   1.268161 A    
C58   O22   1.239882 A    
O19   Cr6   1.901498 S    
C49   C50   1.409111 A    
C45   C53   1.402924 A    
O23   C59   1.275467 A    
C52   H9    1.082231 S    
C15   N2    1.437779 S    
C67   H32   1.109045 S    
C61   H13   1.109219 S    
N4    O33   1.301293 A    
C24   C61   1.506585 S    
C65   H24   1.108869 S    
C20   C22   1.207252 T    
O4    Cr2   1.950486 S    
C53   C54   1.389658 A    
C31   C32   1.447774 S    
O8    Cr1   1.937083 S    
C41   C42   1.396070 A    
C12   C13   1.407170 A    
C18   C19   1.356168 D    
C8    C10   1.414071 A    
C19   H4    1.086946 S    
C18   C21   1.448286 S    
C19   C20   1.446187 S    
C36   C38   1.405387 A    
C49   C68   1.515427 S    
C5    O11   1.266969 A    
C1    C28   1.436342 S    
N1    O27   1.301380 A    
C45   C52   1.386187 A    
C37   C64   1.511123 S    
C38   H7    1.083644 S    
C62   H15   1.110394 S    
O22   Cr5   2.057623 S    
O6    C3    1.276160 A    
C63   H19   1.110918 S    
O23   Cr5   1.921414 S    
C8    C11   1.421556 A    
C25   H5    1.086525 S    
O20   Cr4   2.060762 S    
O24   Cr6   2.018521 S    
C14   H1    1.084790 S    
C24   C27   1.447218 S    
C9    H2    1.084400 S    
C32   C34   1.203809 T    
C42   H6    1.082215 S    
Cr5   O26   1.970720 S    
C43   C63   1.524079 S    
C7    C56   1.471337 S    
Cr3   O13   1.973514 S    
Cr6   O26   1.983523 S    
C61   H12   1.110877 S    
N4    O34   1.301086 A    
O6    Cr3   1.917684 S    
C64   H22   1.110451 S    
C9    C13   1.394799 A    
C35   C58   1.466288 S    
O7    C6    1.282475 A    
C26   C28   1.207237 T    
O1    Cr1   2.054023 S    
C23   C57   1.437248 S    
C50   C51   1.428837 A    
C30   C31   1.361701 D    
C7    C14   1.402352 A    
O10   Cr2   1.900883 S    
C12   C16   1.410452 A    
Cr1   O13   1.984390 S    
O1    C3    1.265847 A    
N5    O35   1.301879 A    
O17   C56   1.279825 A    
C65   H26   1.110092 S    
C67   H31   1.105037 S    
C37   C38   1.394702 A    
O25   Cr6   1.950964 S    
Cr4   O26   1.981591 S    
O12   Cr3   1.943422 S    
C39   C40   1.387379 A    
C5    C34   1.430660 S    
C66   H28   1.110089 S    
C51   C52   1.399145 A    
N2    O30   1.301526 A    
C13   C14   1.379570 A    
C40   C44   1.404405 A    
C6    C36   1.451821 S    
O15   C55   1.273258 A    
C17   C21   1.206603 T    
O7    Cr1   2.034932 S    
C11   N4    1.436804 S    
C63   H20   1.110817 S    
C2    C8    1.474584 S    
C59   O24   1.267965 A    
C46   C49   1.395956 A    
C35   C43   1.435227 A    
O12   C6    1.261244 A    
C35   C42   1.387514 A    
C62   H16   1.110788 S    
C29   C33   1.203894 T    
C55   O16   1.269254 A    
C54   C67   1.509706 S    
C39   H8    1.081720 S    
C67   H30   1.109038 S    
C68   H34   1.108279 S    
C45   C60   1.457879 S    
Cr2   O13   1.983444 S    
O15   Cr4   1.941489 S    
N3    O32   1.301665 A    
C66   H29   1.110449 S    
C1    O3    1.270273 A    
O16   Cr5   2.041831 S    
C24   C25   1.350853 D    
O21   Cr4   1.911954 S    
C53   H10   1.084075 S    
C4    C46   1.456111 S    
C30   C62   1.504233 S    
O9    Cr2   2.067387 S    
O2    Cr1   1.915359 S    
N3    O31   1.301660 A    
O14   Cr4   2.026088 S    
C15   C16   1.404136 A    
C16   H3    1.080516 S    
C48   H11   1.084062 S    
N5    O36   1.301215 A    
C36   C39   1.377074 A    
C68   H35   1.110360 S    
O18   Cr6   2.071522 S    
C64   H21   1.107633 S    
O11   Cr3   2.031420 S    
C2    O5    1.274872 A    
C3    C22   1.435628 S    
O14   C57   1.274421 A    
C30   C33   1.445327 S    
C43   C44   1.395918 A    
O2    C1    1.282355 A    
C9    C10   1.388250 A    
C47   C48   1.388775 A    
O5    Cr3   2.065118 S    
C47   C66   1.504141 S    
C47   C51   1.410393 A    
C29   C59   1.430020 S    
C63   H18   1.106929 S    
O4    C2    1.275997 A    
C17   C55   1.435550 S    
O21   C58   1.296310 A    
C64   H23   1.110911 S    
N1    O28   1.300511 A    
C66   H27   1.109095 S    
C62   H17   1.110571 S    
C44   C65   1.521958 S    
C18   N5    1.447135 S    
C40   C41   1.426532 A    
C65   H25   1.110734 S    
C68   H33   1.111310 S    
O3    Cr2   2.016830 S    
C25   C26   1.447955 S    
C4    O9    1.276803 A    
C31   N1    1.442426 S    
O25   C60   1.287301 A    
C50   C54   1.416649 A    
C11   C12   1.407179 A    
O10   C5    1.271061 A    
C46   C48   1.398471 A    
O20   C60   1.261653 A    
O19   C57   1.274323 A    
C10   N3    1.440902 S    
O17   Cr5   1.943599 S    
C23   C27   1.207433 T    
C61   H14   1.108417 S    
N2    O29   1.301415 A    
O8    C4    1.270054 A    
C7    C15   1.413415 A    
