data_mof_unit_31502.cif
_audit_creation_date              2013-03-05T15:59:31-0500
_audit_creation_method            fapswitch 2.2
_symmetry_space_group_name_H-M    P1
_symmetry_Int_Tables_number       1
_space_group_crystal_system       triclinic
_cell_length_a                    26.284245
_cell_length_b                    7.139288
_cell_length_c                    23.702628
_cell_angle_alpha                 90.001162
_cell_angle_beta                  101.239144
_cell_angle_gamma                 90.001977
_cell_volume                      4362.51775769

loop_
_atom_site_label
_atom_site_type_symbol
_atom_site_description
_atom_site_fract_x
_atom_site_fract_y
_atom_site_fract_z
_atom_type_partial_charge
O1    O     O_R   0.442540 0.494320 0.443520 -0.585788
O2    O     O_R   0.557460 0.994320 0.556480 -0.585790
O3    O     O_R   0.546640 0.821130 0.446490 -0.597523
O4    O     O_R   0.453360 0.321130 0.553510 -0.597517
C1    C     C_R   0.562887 0.655292 0.434185 0.915701
C2    C     C_R   0.437113 0.155290 0.565815 0.915723
O5    O     O_R   0.442270 0.823840 0.436770 -0.585226
O6    O     O_R   0.557730 0.323840 0.563230 -0.585235
O7    O     O_R   0.452340 0.997060 0.546690 -0.593242
O8    O     O_R   0.547660 0.497060 0.453310 -0.593241
C3    C     C_R   0.423815 0.655016 0.421365 0.969736
C4    C     C_R   0.576187 0.155025 0.578633 0.969736
O9    O     O_3   0.503430 0.661750 0.536080 -0.281822
O10   O     O_3   0.496570 0.161750 0.463920 -0.281821
V1    V     V_3+5 0.499360 0.935480 0.493310 1.145995
V2    V     V_3+5 0.500640 0.435480 0.506690 1.145999
C5    C     C_3   0.740652 0.948234 0.699453 -0.573329
C6    C     C_3   0.259371 0.448094 0.300500 -0.573461
C7    C     C_3   0.741126 0.303232 0.710296 -0.128451
C8    C     C_3   0.258870 0.803155 0.289742 -0.128526
C9    C     C_3   0.791878 0.285774 0.757455 -0.472473
C10   C     C_3   0.208118 0.785752 0.242583 -0.472666
H1    H     H_    0.824702 0.964399 0.723993 0.049311
H2    H     H_    0.175324 0.464431 0.276029 0.049407
H3    H     H_    0.750177 0.951122 0.655834 0.166431
H4    H     H_    0.249875 0.450786 0.344133 0.166472
H5    H     H_    0.718573 0.418985 0.724505 0.142278
H6    H     H_    0.281416 0.918976 0.275556 0.142032
H7    H     H_    0.827625 0.299624 0.739345 0.187409
H8    H     H_    0.172374 0.799547 0.260700 0.187503
H9    H     H_    0.793337 0.398051 0.789249 0.270328
H10   H     H_    0.206664 0.898093 0.210813 0.270331
C11   C     C_1   0.878227 0.075994 0.875550 -0.223414
C12   C     C_1   0.121768 0.576028 0.124455 -0.223431
C13   C     C_3   0.707157 0.121380 0.708778 0.233798
C14   C     C_3   0.292849 0.621347 0.291214 0.234000
C15   C     C_3   0.791556 0.941775 0.746207 0.323684
C16   C     C_3   0.208444 0.441755 0.253779 0.323566
C17   C     C_3   0.792505 0.101075 0.791170 0.144129
C18   C     C_3   0.207491 0.601111 0.208835 0.144254
C19   C     C_3   0.742502 0.099143 0.817704 -0.402878
C20   C     C_3   0.257490 0.599279 0.182291 -0.402926
C21   C     C_3   0.692542 0.091993 0.769412 -0.148634
C22   C     C_3   0.307459 0.592155 0.230572 -0.148698
C23   C     C_1   0.839937 0.088368 0.837524 0.051376
C24   C     C_1   0.160056 0.588419 0.162483 0.051523
C25   C     C_1   0.659823 0.132001 0.662297 -0.027895
C26   C     C_1   0.340184 0.631953 0.337695 -0.027908
C27   C     C_1   0.621564 0.143622 0.624347 -0.277288
C28   C     C_1   0.378442 0.643590 0.375647 -0.277292
H11   H     H_    0.678023 0.945416 0.770155 0.144073
H12   H     H_    0.322003 0.445622 0.229793 0.143846
H13   H     H_    0.742689 0.979460 0.847592 0.207107
H14   H     H_    0.257311 0.479636 0.152389 0.207119
H15   H     H_    0.717778 0.817956 0.700906 0.188304
H16   H     H_    0.282242 0.317849 0.298973 0.188194
H17   H     H_    0.742905 0.224089 0.845605 0.160450
H18   H     H_    0.257073 0.724254 0.154401 0.160508
C29   C     C_R   0.119570 0.249574 0.879580 -0.152325
C30   C     C_R   0.880431 0.749571 0.120419 -0.152325
H19   H     H_    0.106339 0.379554 0.895356 0.132185
H20   H     H_    0.893662 0.879551 0.104643 0.132186
C31   C     C_R   0.155850 0.258144 0.843470 -0.142550
C32   C     C_R   0.844150 0.758142 0.156529 -0.142552
H21   H     H_    0.169327 0.394309 0.832594 0.114532
H22   H     H_    0.830674 0.894306 0.167404 0.114532
C33   C     C_R   0.174511 0.093563 0.821883 0.122744
C34   C     C_R   0.825488 0.593561 0.178116 0.122743
C35   C     C_R   0.155705 0.920141 0.837299 -0.141519
C36   C     C_R   0.844293 0.420140 0.162700 -0.141516
H23   H     H_    0.169100 0.790333 0.821593 0.116093
H24   H     H_    0.830897 0.290332 0.178406 0.116094
C37   C     C_R   0.119420 0.911496 0.873414 -0.153872
C38   C     C_R   0.880579 0.411494 0.126585 -0.153875
H25   H     H_    0.106097 0.775181 0.884369 0.130883
H26   H     H_    0.893901 0.275180 0.115631 0.130883
C39   C     C_R   0.100844 0.076093 0.895183 -0.122649
C40   C     C_R   0.899155 0.576090 0.104817 -0.122645
N1    N     N_R   0.231308 0.943949 0.762641 -0.078645
N2    N     N_R   0.768690 0.443950 0.237358 -0.078643
N3    N     N_R   0.266222 0.952136 0.728726 -0.080224
N4    N     N_R   0.733775 0.452138 0.271273 -0.080222
C41   C     C_R   0.284897 0.119470 0.714377 0.093924
C42   C     C_R   0.715101 0.619471 0.285620 0.093927
N5    N     N_R   0.266989 0.278238 0.735493 -0.078995
N6    N     N_R   0.733009 0.778238 0.264504 -0.078994
N7    N     N_R   0.232066 0.270054 0.769396 -0.079301
N8    N     N_R   0.767933 0.770053 0.230601 -0.079301
C43   C     C_R   0.213416 0.102718 0.783777 0.099267
C44   C     C_R   0.786582 0.602718 0.216221 0.099267
C45   C     C_R   0.343788 0.301850 0.662321 -0.147893
C46   C     C_R   0.656213 0.801852 0.337678 -0.147890
H27   H     H_    0.330880 0.431499 0.678632 0.116271
H28   H     H_    0.669123 0.931501 0.321369 0.116272
C47   C     C_R   0.380520 0.310477 0.626753 -0.168867
C48   C     C_R   0.619481 0.810479 0.373247 -0.168880
H29   H     H_    0.394659 0.446567 0.616747 0.131090
H30   H     H_    0.605344 0.946568 0.383255 0.131088
C49   C     C_R   0.398560 0.146072 0.604358 -0.127934
C50   C     C_R   0.601439 0.646075 0.395641 -0.127927
C51   C     C_R   0.378785 0.972809 0.618614 -0.163290
C52   C     C_R   0.621212 0.472813 0.381383 -0.163277
H31   H     H_    0.391531 0.843096 0.602168 0.132522
H32   H     H_    0.608464 0.343099 0.397828 0.132518
C53   C     C_R   0.342073 0.964227 0.654197 -0.152082
C54   C     C_R   0.657923 0.464230 0.345799 -0.152066
H33   H     H_    0.327801 0.828240 0.664087 0.115053
H34   H     H_    0.672193 0.328243 0.335908 0.115051
C55   C     C_R   0.324021 0.128617 0.676543 0.123979
C56   C     C_R   0.675977 0.628620 0.323455 0.123977
O11   O     O_R   0.952390 0.727960 0.046760 -0.593063
O12   O     O_R   0.047610 0.227960 0.953240 -0.593063
O13   O     O_R   0.057740 0.395520 0.063240 -0.571134
O14   O     O_R   0.942260 0.895520 0.936760 -0.571139
C57   C     C_R   0.076349 0.564486 0.078547 0.950185
C58   C     C_R   0.923649 0.064478 0.921455 0.950164
O15   O     O_R   0.953370 0.398410 0.053530 -0.597642
O16   O     O_R   0.046630 0.898410 0.946470 -0.597639
O17   O     O_R   0.942530 0.225390 0.943510 -0.581728
O18   O     O_R   0.057470 0.725390 0.056490 -0.581719
C59   C     C_R   0.937304 0.566931 0.065722 0.914067
C60   C     C_R   0.062696 0.066933 0.934277 0.914088
O19   O     O_3   0.996600 0.557860 0.963960 -0.276651
O20   O     O_3   0.003400 0.057860 0.036040 -0.276644
V3    V     V_3+5 0.000630 0.284060 0.006690 1.179005
V4    V     V_3+5 0.999370 0.784060 0.993310 1.179008
N9    N     N_R   0.799058 0.759869 0.774447 0.227257
O21   O     O_R   0.765628 0.698715 0.803915 -0.503686
O22   O     O_R   0.843758 0.676683 0.779218 -0.441301
N10   N     N_R   0.200881 0.259876 0.225526 0.227228
O23   O     O_R   0.234197 0.198848 0.195887 -0.503455
O24   O     O_R   0.156214 0.176556 0.220934 -0.441285
C61   C     C_R   0.750604 0.362737 0.651171 0.195269
C62   C     C_R   0.789636 0.281680 0.625845 -0.135706
C63   C     C_R   0.796026 0.336969 0.571051 -0.115676
C64   C     C_R   0.763579 0.472912 0.540652 -0.092610
C65   C     C_R   0.724601 0.553929 0.564959 -0.105891
C66   C     C_R   0.718065 0.499286 0.619702 -0.166915
H35   H     H_    0.815309 0.175779 0.647984 0.101223
H36   H     H_    0.826147 0.273812 0.552064 0.116033
H37   H     H_    0.768509 0.514936 0.498167 0.113166
H38   H     H_    0.699180 0.658358 0.541232 0.114307
H39   H     H_    0.686841 0.561422 0.637094 0.108906
C67   C     C_R   0.249394 0.862525 0.348880 0.195263
C68   C     C_R   0.210390 0.781283 0.374209 -0.135690
C69   C     C_R   0.204001 0.836448 0.429015 -0.115671
C70   C     C_R   0.236422 0.972458 0.459423 -0.092604
C71   C     C_R   0.275370 0.053675 0.435109 -0.105877
C72   C     C_R   0.281904 0.999158 0.380354 -0.166864
H40   H     H_    0.184733 0.675348 0.352061 0.101244
H41   H     H_    0.173901 0.773148 0.448004 0.116042
H42   H     H_    0.231494 0.014387 0.501916 0.113168
H43   H     H_    0.300770 0.158165 0.458842 0.114303
H44   H     H_    0.313103 0.061463 0.362957 0.108887
C73   C     C_R   0.648187 0.216982 0.780606 0.146302
C74   C     C_R   0.597271 0.144776 0.770036 -0.159212
C75   C     C_R   0.555377 0.257035 0.777054 -0.102443
C76   C     C_R   0.563596 0.442702 0.794929 -0.087925
C77   C     C_R   0.613758 0.516141 0.806081 -0.111543
C78   C     C_R   0.655784 0.404402 0.799167 -0.159314
H45   H     H_    0.589769 0.001920 0.755357 0.100284
H46   H     H_    0.516452 0.200169 0.768308 0.112045
H47   H     H_    0.531103 0.529635 0.800177 0.105079
H48   H     H_    0.620135 0.660092 0.820055 0.113967
H49   H     H_    0.693940 0.465705 0.808549 0.164865
C79   C     C_R   0.351789 0.717319 0.219394 0.146385
C80   C     C_R   0.402719 0.645261 0.229950 -0.159200
C81   C     C_R   0.444591 0.757681 0.222952 -0.102427
C82   C     C_R   0.436335 0.943364 0.205113 -0.087920
C83   C     C_R   0.386159 0.016660 0.193974 -0.111525
C84   C     C_R   0.344154 0.904759 0.200867 -0.159381
H50   H     H_    0.410250 0.502395 0.244603 0.100258
H51   H     H_    0.483527 0.700927 0.231688 0.112038
H52   H     H_    0.468811 0.030422 0.199881 0.105065
H53   H     H_    0.379753 0.160625 0.180028 0.113926
H54   H     H_    0.305987 0.965962 0.191500 0.164846

loop_
_geom_bond_atom_site_label_1
_geom_bond_atom_site_label_2
_geom_bond_distance
_ccdc_geom_bond_type
C65   H38   1.082670 S    
C31   H21   1.082831 S    
C6    C14   1.558230 S    
C75   C76   1.395520 A    
O11   C59   1.323010 A    
C11   C23   1.216326 T    
C82   C83   1.395413 A    
C8    C67   1.530560 S    
C70   C71   1.395078 A    
O1    C3    1.316630 A    
C46   C48   1.401407 A    
O2    C4    1.316634 A    
C20   H18   1.109243 S    
C2    O7    1.308628 A    
C4    C27   1.448944 S    
O3    V1    1.994996 S    
C63   C64   1.396078 A    
C17   C19   1.563739 S    
C18   C24   1.495254 S    
C9    H9    1.095726 S    
C30   C40   1.408514 A    
C64   H37   1.082457 S    
C38   H26   1.082851 S    
C16   N10   1.456742 S    
C74   C75   1.397853 A    
C7    C9    1.569471 S    
C42   N6    1.359671 A    
C66   H39   1.082660 S    
C68   C69   1.398509 A    
O14   V4    1.974572 S    
C47   C49   1.407979 A    
O19   V3    2.194603 S    
O13   V3    1.974508 S    
C83   C84   1.397901 A    
C33   C43   1.491904 S    
C30   H20   1.082859 S    
O16   C60   1.325484 A    
C51   H31   1.082914 S    
C35   H23   1.082814 S    
C40   C59   1.493506 S    
O15   C59   1.325492 A    
C39   C60   1.493504 S    
N10   O23   1.300016 A    
C48   H30   1.082911 S    
C36   C38   1.401591 A    
H2    C16   1.114070 S    
C82   H52   1.082384 S    
C41   C55   1.491781 S    
C35   C37   1.401590 A    
C12   C24   1.216320 T    
C18   C20   1.563789 S    
C13   C21   1.572339 S    
C5    H15   1.111635 S    
C68   H40   1.079021 S    
C6    H16   1.111671 S    
C17   C23   1.495263 S    
C22   H12   1.115189 S    
O5    V1    1.974568 S    
C65   C66   1.397229 A    
C13   C25   1.494379 S    
C61   C66   1.410537 A    
O6    V2    1.974634 S    
C19   C21   1.565671 S    
C29   C39   1.408513 A    
C79   C80   1.410232 A    
C81   H51   1.082508 S    
C20   C22   1.565677 S    
C21   C73   1.531830 S    
C46   H28   1.082801 S    
N3    C41   1.359718 A    
O5    C3    1.323720 A    
C83   H53   1.082751 S    
N5    N7    1.333900 A    
C51   C53   1.401250 A    
C63   H36   1.082384 S    
C31   C33   1.407425 A    
C29   H19   1.082860 S    
C36   H24   1.082813 S    
C71   C72   1.397231 A    
N2    N4    1.333937 A    
C80   C81   1.397868 A    
N1    N3    1.333939 A    
C67   C68   1.409896 A    
O19   V4    1.754248 S    
C5    C15   1.562845 S    
C8    H6    1.107079 S    
C12   C57   1.452467 S    
H1    C15   1.114060 S    
C9    H7    1.110873 S    
C42   C56   1.491782 S    
C33   C35   1.407529 A    
C32   H22   1.082832 S    
O4    V2    1.994983 S    
N10   O24   1.301597 A    
C72   H44   1.082661 S    
N9    O22   1.301598 A    
O12   C60   1.323009 A    
C67   C72   1.410547 A    
C45   H27   1.082802 S    
C53   H33   1.082816 S    
C34   C44   1.491906 S    
C77   C78   1.397887 A    
C9    C17   1.540314 S    
C1    C50   1.492201 S    
O6    C4    1.323713 A    
C10   C18   1.540335 S    
C6    H4    1.110363 S    
O11   V4    1.974864 S    
C50   C52   1.408152 A    
O1    V2    1.964481 S    
C22   C79   1.531860 S    
C78   H49   1.076949 S    
C52   H32   1.082915 S    
O2    V1    1.964448 S    
C19   H13   1.109350 S    
O12   V3    1.974870 S    
C62   C63   1.398510 A    
O18   V4    1.964369 S    
C10   H10   1.095702 S    
C76   H47   1.082378 S    
O17   V3    1.964329 S    
O4    C2    1.310630 A    
C81   C82   1.395526 A    
C41   N5    1.359671 A    
C8    C10   1.569435 S    
C74   H45   1.083204 S    
N4    C42   1.359720 A    
N7    C43   1.359709 A    
C61   C62   1.409906 A    
C14   C22   1.572315 S    
C71   H43   1.082672 S    
C37   H25   1.082850 S    
N9    O21   1.299917 A    
C32   C34   1.407423 A    
C62   H35   1.079048 S    
C7    H5    1.107081 S    
O20   V4    2.194560 S    
C69   C70   1.396077 A    
C54   C56   1.407493 A    
C52   C54   1.401248 A    
C53   C55   1.407495 A    
C11   C58   1.452468 S    
C10   H8    1.110889 S    
C49   C51   1.408150 A    
C73   C78   1.410493 A    
C77   H48   1.082740 S    
N8    C44   1.359710 A    
C64   C65   1.395075 A    
O3    C1    1.310637 A    
O14   C58   1.325435 A    
C47   H29   1.082909 S    
C80   H50   1.083211 S    
C7    C61   1.530567 S    
O16   V4    1.994914 S    
C84   H54   1.076951 S    
C29   C31   1.401375 A    
C58   O17   1.318371 A    
C30   C32   1.401374 A    
C5    H3    1.110361 S    
C2    C49   1.492198 S    
C45   C55   1.407619 A    
C70   H42   1.082459 S    
C6    C16   1.562804 S    
C19   H17   1.109240 S    
C1    O8    1.308630 A    
C15   C17   1.555449 S    
C3    C28   1.448944 S    
C7    C13   1.572075 S    
C25   C27   1.214367 T    
C20   H14   1.109325 S    
C16   C18   1.555454 S    
C46   C56   1.407622 A    
C76   C77   1.395414 A    
C54   H34   1.082818 S    
C21   H11   1.115175 S    
C48   C50   1.407978 A    
C26   C28   1.214364 T    
C14   C26   1.494367 S    
N6    N8    1.333901 A    
N2    C44   1.359708 A    
N1    C43   1.359708 A    
C45   C47   1.401405 A    
C69   H41   1.082383 S    
C8    C14   1.572111 S    
C79   C84   1.410516 A    
C34   C36   1.407531 A    
C57   O18   1.318364 A    
C38   C40   1.408436 A    
O9    V2    1.755059 S    
C73   C74   1.410231 A    
C37   C39   1.408438 A    
O10   V1    1.755089 S    
O8    V2    1.982689 S    
C5    C13   1.558168 S    
C15   N9    1.456736 S    
O15   V3    1.994931 S    
C75   H46   1.082511 S    
O7    V1    1.982700 S    
O20   V3    1.754279 S    
O13   C57   1.325441 A    
