data_mof_unit_67869.cif
_audit_creation_date              2013-03-05T15:41:51-0500
_audit_creation_method            fapswitch 2.2
_symmetry_space_group_name_H-M    P1
_symmetry_Int_Tables_number       1
_space_group_crystal_system       triclinic
_cell_length_a                    7.99838
_cell_length_b                    8.891511
_cell_length_c                    10.657927
_cell_angle_alpha                 96.459867
_cell_angle_beta                  85.81109
_cell_angle_gamma                 92.872954
_cell_volume                      750.470924428

loop_
_atom_site_label
_atom_site_type_symbol
_atom_site_description
_atom_site_fract_x
_atom_site_fract_y
_atom_site_fract_z
_atom_type_partial_charge
O1    O     O_R   0.389250 0.738570 0.508410 -0.592648
O2    O     O_R   0.610750 0.261430 0.491590 -0.609504
O3    O     O_R   0.678390 0.711620 0.486450 -0.610858
O4    O     O_R   0.321610 0.288380 0.513550 -0.664355
C1    C     C_R   0.543781 0.792837 0.497664 0.865725
C2    C     C_R   0.456794 0.206969 0.501510 0.854168
O5    O     O_R   0.355460 0.513510 0.697030 -0.649487
O6    O     O_R   0.644540 0.486490 0.302970 -0.585431
O7    O     O_R   0.644600 0.486560 0.675070 -0.595425
O8    O     O_R   0.355400 0.513440 0.324930 -0.628870
C3    C     C_R   0.502548 0.512192 0.742685 0.863018
C4    C     C_R   0.499014 0.494037 0.258435 0.856691
Zn1   Zn    Zn3+2 0.306940 0.517990 0.514670 0.947973
Zn2   Zn    Zn3+2 0.693060 0.482010 0.485330 0.998640
N1    N     N_2   0.950320 0.457950 0.465730 0.057653
N2    N     N_2   0.049680 0.542050 0.534270 -0.003754
C5    C     C_3   0.346328 0.536818 0.975211 -0.056035
C6    C     C_3   0.660119 0.481981 0.030767 -0.041852
C7    C     C_3   0.454058 0.638410 0.067426 0.211635
C8    C     C_3   0.551509 0.380536 0.939249 0.161069
C9    C     C_3   0.502875 0.497386 0.124167 -0.212508
C10   C     C_3   0.503224 0.520410 0.879991 -0.284550
C11   C     C_3   0.396972 0.396207 0.031893 0.134892
C12   C     C_3   0.609382 0.622780 0.973986 0.133266
C13   C     C_2   0.568231 0.954138 0.494352 -0.035725
C14   C     C_2   0.435158 0.046143 0.509943 -0.006190
N3    N     N_2   0.403524 0.770106 0.152158 -0.266101
H1    H     H_    0.479076 0.799914 0.226068 0.202542
C15   C     C_3   0.342535 0.896380 0.097953 -0.682232
H2    H     H_    0.418711 0.000928 0.125973 0.216502
H3    H     H_    0.211412 0.914706 0.135860 0.271306
H4    H     H_    0.346709 0.875512 0.993130 0.242473
N4    N     N_2   0.603017 0.245296 0.861691 -0.297991
H5    H     H_    0.523755 0.209107 0.791435 0.225814
C16   C     C_3   0.658993 0.125459 0.926420 -0.868635
H6    H     H_    0.566540 0.029146 0.918207 0.241761
H7    H     H_    0.673319 0.161584 0.028491 0.241763
H8    H     H_    0.781440 0.088070 0.880929 0.248561
C17   C     C_2   0.175345 0.564148 0.940766 0.487048
H9    H     H_    0.113744 0.482873 0.874358 0.038067
O9    O     O_2   0.104996 0.678055 0.985199 -0.577239
C18   C     C_2   0.832731 0.443508 0.057634 0.456013
H10   H     H_    0.895222 0.353800 0.998385 0.043696
O10   O     O_2   0.905505 0.513899 0.143769 -0.523258
N5    N     N_2   0.284405 0.278648 0.075631 -0.304520
H11   H     H_    0.202701 0.322679 0.147135 0.263083
C19   C     C_3   0.202757 0.181140 0.979245 -0.859672
H12   H     H_    0.106116 0.106784 0.023640 0.236546
H13   H     H_    0.295809 0.109119 0.924404 0.270736
H14   H     H_    0.141357 0.246719 0.915082 0.228886
N6    N     N_2   0.721600 0.746225 0.941646 -0.290980
H15   H     H_    0.676923 0.805175 0.874408 0.206808
C20   C     C_3   0.790592 0.840563 0.046863 -0.689301
H16   H     H_    0.898886 0.909893 0.011217 0.242555
H17   H     H_    0.833665 0.771978 0.117575 0.305190
H18   H     H_    0.696153 0.917246 0.095380 0.206667
N7    N     N_2   0.026070 0.369297 0.364569 -0.195031
H19   H     H_    0.146087 0.341445 0.372555 0.261529
C21   C     C_3   0.926525 0.245418 0.304407 -0.675848
H20   H     H_    0.953856 0.234890 0.201081 0.199230
H21   H     H_    0.791961 0.262096 0.318344 0.290537
H22   H     H_    0.960928 0.137912 0.336461 0.195241
N8    N     N_2   0.980159 0.673156 0.588438 -0.205175
H23   H     H_    0.026346 0.764850 0.543675 0.243632
C22   C     C_3   0.997037 0.696111 0.721973 -0.635025
H24   H     H_    0.131617 0.711386 0.740729 0.249039
H25   H     H_    0.936225 0.598658 0.766410 0.253935
H26   H     H_    0.933608 0.799235 0.762879 0.202214
N9    N     N_2   0.736633 0.010718 0.473790 -0.301876
H27   H     H_    0.810067 0.940756 0.411081 0.230581
C23   C     C_3   0.817426 0.058829 0.589300 -0.736074
H28   H     H_    0.939276 0.117285 0.567130 0.242408
H29   H     H_    0.833010 0.960358 0.641200 0.218336
H30   H     H_    0.742440 0.141503 0.651017 0.280239
N10   N     N_2   0.271040 0.991893 0.547079 -0.275834
H31   H     H_    0.180702 0.023726 0.492533 0.228137
C24   C     C_3   0.232194 0.023906 0.681489 -0.821127
H32   H     H_    0.101597 0.989025 0.706667 0.238420
H33   H     H_    0.245757 0.147409 0.710654 0.247614
H34   H     H_    0.316369 0.961151 0.733563 0.241272

loop_
_geom_bond_atom_site_label_1
_geom_bond_atom_site_label_2
_geom_bond_distance
_ccdc_geom_bond_type
N8    C22   1.430152 S    
C11   N5    1.440324 S    
N3    C15   1.440256 S    
C6    C9    1.547637 S    
C16   H6    1.103160 S    
O7    Zn2   2.027304 S    
C19   H13   1.098022 S    
C20   H16   1.107115 S    
O5    C3    1.306629 A    
C5    C11   1.532522 S    
O1    C1    1.305990 A    
C16   H7    1.111600 S    
C15   H4    1.110037 S    
C6    C18   1.494078 S    
N7    C21   1.444324 S    
N1    N2    1.275420 D    
C5    C17   1.480152 S    
N5    C19   1.440236 S    
O4    Zn1   2.049459 S    
N9    C23   1.444372 S    
N4    C16   1.438774 S    
C22   H25   1.108217 S    
N2    N8    1.366775 S    
C7    N3    1.451291 S    
C6    C8    1.538480 S    
C24   H32   1.097550 S    
C20   H18   1.103664 S    
C12   N6    1.438874 S    
C20   H17   1.104970 S    
C21   H20   1.101350 S    
N1    N7    1.382785 S    
O2    C2    1.301816 A    
C18   O10   1.218829 D    
N4    H5    1.029959 S    
C19   H14   1.102867 S    
C24   H33   1.109264 S    
C21   H21   1.090943 S    
N6    H15   1.027949 S    
C16   H8    1.109848 S    
O4    C2    1.321687 A    
C17   H9    1.079857 S    
C23   H29   1.103676 S    
C13   C14   1.364025 D    
N5    H11   1.023166 S    
C4    C9    1.432721 S    
N6    C20   1.448445 S    
N10   H31   1.029102 S    
C15   H2    1.109908 S    
N10   C24   1.442843 S    
C19   H12   1.106436 S    
C8    C11   1.526489 S    
O6    C4    1.296279 A    
C22   H26   1.101173 S    
C14   N10   1.419871 S    
O7    C3    1.315891 A    
O3    Zn2   2.049459 S    
O8    C4    1.313353 A    
C1    C13   1.441777 S    
C8    N4    1.440570 S    
C8    C10   1.534705 S    
C9    C11   1.529789 S    
C6    C12   1.534762 S    
C13   N9    1.424478 S    
C18   H10   1.079501 S    
C24   H34   1.111120 S    
C21   H22   1.104423 S    
O6    Zn2   2.014660 S    
C7    C9    1.531245 S    
O3    C1    1.317068 A    
O8    Zn1   2.027304 S    
C23   H30   1.100232 S    
C3    C10   1.457372 S    
C5    C10   1.557239 S    
C7    C12   1.536199 S    
C23   H28   1.104102 S    
C15   H3    1.109110 S    
N7    H19   1.015175 S    
C2    C14   1.443861 S    
C5    C7    1.539578 S    
C10   C12   1.547473 S    
N9    H27   1.031678 S    
O2    Zn2   2.044045 S    
N8    H23   1.029746 S    
O5    Zn1   2.014662 S    
O1    Zn1   2.044045 S    
C17   O9    1.215280 D    
C22   H24   1.108049 S    
Zn1   N2    2.072355 S    
N3    H1    1.030747 S    
Zn2   N1    2.072355 S    
