data_mof_unit_46826.cif
_audit_creation_date              2012-12-11T15:41:04-0500
_audit_creation_method            fapswitch 2.2
_symmetry_space_group_name_H-M    P1
_symmetry_Int_Tables_number       1
_space_group_crystal_system       triclinic
_cell_length_a                    19.112531
_cell_length_b                    10.969422
_cell_length_c                    18.814515
_cell_angle_alpha                 90.266216
_cell_angle_beta                  90.067592
_cell_angle_gamma                 89.883081
_cell_volume                      3944.47388651

loop_
_atom_site_label
_atom_site_type_symbol
_atom_type_description
_atom_site_fract_x
_atom_site_fract_y
_atom_site_fract_z
_atom_type_partial_charge
C1    C     C_R   0.725327 0.959951 0.855294 0.539653
C2    C     C_R   0.274911 0.959756 0.144617 0.554317
C3    C     C_R   0.225321 0.459967 0.855302 0.539913
C4    C     C_R   0.774909 0.459742 0.144623 0.554423
C5    C     C_R   0.696823 0.451651 0.038031 0.037774
C6    C     C_R   0.300944 0.466920 0.963956 0.079634
C7    C     C_R   0.196835 0.951802 0.038011 0.037828
C8    C     C_R   0.800957 0.966879 0.963940 0.079566
C9    C     C_R   0.690385 0.444247 0.964192 -0.031470
C10   C     C_R   0.306424 0.458404 0.037919 -0.012760
C11   C     C_R   0.190406 0.944388 0.964168 -0.031198
C12   C     C_R   0.806437 0.958350 0.037902 -0.012916
C13   C     C_R   0.813911 0.399909 0.954845 -0.151893
C14   C     C_R   0.187909 0.383251 0.042386 -0.167812
C15   C     C_R   0.313917 0.899901 0.954843 -0.151907
C16   C     C_R   0.687937 0.883114 0.042357 -0.167864
C17   C     C_R   0.819275 0.399287 0.028102 -0.167682
C18   C     C_R   0.185140 0.380724 0.969090 -0.183272
C19   C     C_R   0.319272 0.899289 0.028099 -0.167682
C20   C     C_R   0.685174 0.880596 0.969062 -0.183275
C21   C     C_3   0.655955 0.567489 0.041414 0.160510
C22   C     C_3   0.331091 0.592235 0.963380 0.155839
C23   C     C_3   0.156058 0.067750 0.041354 0.160448
C24   C     C_3   0.831098 0.092198 0.963369 0.155888
C25   C     C_3   0.648383 0.559188 0.961470 -0.223147
C26   C     C_3   0.337366 0.583190 0.043323 -0.239062
C27   C     C_3   0.148495 0.059421 0.961413 -0.223115
C28   C     C_3   0.837389 0.083130 0.043311 -0.238966
C29   C     C_R   0.748929 0.418247 0.922075 -0.008993
C30   C     C_R   0.249678 0.416501 0.077753 -0.006765
C31   C     C_R   0.248943 0.918275 0.922065 -0.008996
C32   C     C_R   0.749692 0.916433 0.077733 -0.006792
C33   C     C_R   0.509080 0.167566 0.420386 0.020722
C34   C     C_R   0.516925 0.171430 0.568230 0.021265
C35   C     C_R   0.983542 0.671196 0.431509 0.022377
C36   C     C_R   0.991255 0.669336 0.579285 0.020916
C37   C     C_R   0.530238 0.273578 0.455946 0.029861
C38   C     C_R   0.533650 0.274489 0.528509 0.047278
C39   C     C_R   0.971367 0.777029 0.470765 0.044452
C40   C     C_R   0.974654 0.777181 0.543244 0.030452
C41   C     C_R   0.507522 0.060452 0.532619 -0.175570
C42   C     C_R   0.506530 0.057872 0.458467 -0.171231
C43   C     C_R   0.989413 0.558646 0.541700 -0.172326
C44   C     C_R   0.988089 0.559836 0.467501 -0.170650
C45   C     C_R   0.557067 0.181953 0.858509 0.560741
C46   C     C_R   0.472192 0.176936 0.150936 0.559622
C47   C     C_R   0.057060 0.681952 0.858509 0.560520
C48   C     C_R   0.972190 0.676934 0.150935 0.560659
C49   C     C_3   0.503128 0.402365 0.454934 -0.266663
C50   C     C_3   0.505987 0.401195 0.535067 -0.270504
C51   C     C_3   0.004735 0.898963 0.463503 -0.273647
C52   C     C_3   0.007968 0.901514 0.543543 -0.268108
C53   C     C_R   0.749263 0.406476 0.420484 0.017586
C54   C     C_R   0.249342 0.406209 0.578963 0.016722
C55   C     C_R   0.250423 0.909834 0.421614 0.015678
C56   C     C_R   0.750839 0.900476 0.580711 0.017011
C57   C     C_R   0.789060 0.317572 0.455371 0.022042
C58   C     C_R   0.205312 0.325637 0.542220 0.021414
C59   C     C_R   0.291240 0.822762 0.456812 0.020651
C60   C     C_R   0.706910 0.819537 0.543928 0.021956
C61   C     C_R   0.786779 0.308264 0.528269 0.038772
C62   C     C_R   0.208223 0.317265 0.469371 0.037841
C63   C     C_R   0.288973 0.813749 0.529705 0.039983
C64   C     C_R   0.710077 0.811119 0.471046 0.034948
C65   C     C_R   0.695982 0.459479 0.534135 -0.152729
C66   C     C_R   0.305888 0.454825 0.466895 -0.161495
C67   C     C_R   0.197872 0.964886 0.535309 -0.167648
C68   C     C_R   0.810289 0.942450 0.469331 -0.150282
C69   C     C_R   0.697943 0.469274 0.459910 -0.151725
C70   C     C_R   0.303796 0.462400 0.541215 -0.160896
C71   C     C_R   0.199652 0.974063 0.461084 -0.163422
C72   C     C_R   0.807455 0.951189 0.543693 -0.150657
C73   C     C_3   0.866040 0.291616 0.454343 -0.268471
C74   C     C_3   0.127074 0.316770 0.541274 -0.268972
C75   C     C_3   0.368803 0.802877 0.456304 -0.268283
C76   C     C_3   0.628782 0.808371 0.542736 -0.268578
C77   C     C_3   0.863448 0.285769 0.534473 -0.268894
C78   C     C_3   0.130783 0.309510 0.461321 -0.273505
C79   C     C_3   0.366060 0.796334 0.536274 -0.269264
C80   C     C_3   0.632749 0.802799 0.462665 -0.272560
C81   C     C_R   0.744307 0.384487 0.569308 0.020271
C82   C     C_R   0.254955 0.387283 0.430136 0.020973
C83   C     C_R   0.245735 0.888941 0.570471 0.020145
C84   C     C_R   0.757542 0.879915 0.432005 0.018866
C85   C     C_R   0.738447 0.365923 0.851932 0.534363
C86   C     C_R   0.261352 0.365425 0.147993 0.542059
C87   C     C_R   0.238449 0.865925 0.851930 0.534327
C88   C     C_R   0.761355 0.865414 0.147988 0.542697
C89   C     C_R   0.728264 0.953250 0.648222 0.546929
C90   C     C_R   0.272108 0.955268 0.352452 0.549894
C91   C     C_R   0.227936 0.454410 0.647786 0.547947
C92   C     C_R   0.771874 0.454511 0.352148 0.549338
C93   C     C_R   0.532140 0.176616 0.643113 0.555974
C94   C     C_R   0.471710 0.176399 0.354000 0.551760
C95   C     C_R   0.028393 0.676486 0.645896 0.560536
C96   C     C_R   0.967904 0.676629 0.356803 0.545887
C97   C     C_R   0.738314 0.357772 0.644627 0.543373
C98   C     C_R   0.261499 0.358799 0.355070 0.539296
C99   C     C_R   0.238713 0.859316 0.645220 0.542660
C100  C     C_R   0.762312 0.856026 0.356092 0.540256
C101  C     C_2   0.533408 0.176245 0.932196 -0.106609
C102  C     C_2   0.514946 0.165454 0.087023 -0.109993
C103  C     C_2   0.033396 0.676244 0.932193 -0.106357
C104  C     C_2   0.014935 0.665441 0.087017 -0.110331
C105  C     C_2   0.508739 0.068717 0.043543 -0.157777
C106  C     C_2   0.532834 0.072005 0.969299 -0.166227
C107  C     C_2   0.008704 0.568714 0.043533 -0.157885
C108  C     C_2   0.032789 0.571996 0.969286 -0.166157
C109  C     C_R   0.761130 0.427482 0.070932 -0.020909
C110  C     C_R   0.240642 0.426401 0.928468 -0.012630
C111  C     C_R   0.261129 0.927531 0.070921 -0.021021
C112  C     C_R   0.740662 0.926342 0.928448 -0.012525
Cr1   Cr    Cr6+3 0.769260 0.163750 0.750730 1.090334
Cr2   Cr    Cr6+3 0.230740 0.163750 0.249270 1.086909
Cr3   Cr    Cr6+3 0.269260 0.663750 0.750730 1.090627
Cr4   Cr    Cr6+3 0.730740 0.663750 0.249270 1.086316
Cr5   Cr    Cr6+3 0.612640 0.009910 0.748780 1.031744
Cr6   Cr    Cr6+3 0.387360 0.009910 0.251220 1.033737
Cr7   Cr    Cr6+3 0.112640 0.509910 0.748780 1.030734
Cr8   Cr    Cr6+3 0.887360 0.509910 0.251220 1.034535
Cr9   Cr    Cr6+3 0.614190 0.322400 0.747710 1.026230
Cr10  Cr    Cr6+3 0.385810 0.322400 0.252290 1.047711
Cr11  Cr    Cr6+3 0.114190 0.822400 0.747710 1.022145
Cr12  Cr    Cr6+3 0.885810 0.822400 0.252290 1.050983
H1    H     H_    0.481030 0.987765 0.060637 0.172157
H2    H     H_    0.544387 0.986015 0.943229 0.171925
H3    H     H_    0.980984 0.487775 0.060628 0.172163
H4    H     H_    0.044306 0.486000 0.943207 0.172028
H5    H     H_    0.969298 0.968961 0.440986 0.136722
H6    H     H_    0.062571 0.901765 0.562943 0.170944
H7    H     H_    0.448906 0.411063 0.435250 0.165991
H8    H     H_    0.544481 0.466017 0.557622 0.139252
H9    H     H_    0.540929 0.466751 0.430749 0.132521
H10   H     H_    0.453577 0.404215 0.560519 0.139944
H11   H     H_    0.056998 0.893518 0.437825 0.144687
H12   H     H_    0.973659 0.972315 0.567666 0.128101
H13   H     H_    0.659335 0.514274 0.564124 0.118944
H14   H     H_    0.345183 0.505149 0.438191 0.116148
H15   H     H_    0.161134 0.019993 0.565174 0.119385
H16   H     H_    0.851560 0.988240 0.441022 0.121872
H17   H     H_    0.664020 0.534028 0.434239 0.127739
H18   H     H_    0.340762 0.520093 0.568494 0.125025
H19   H     H_    0.165607 0.038845 0.435389 0.132580
H20   H     H_    0.845665 0.005568 0.571483 0.122718
H21   H     H_    0.897449 0.368839 0.435202 0.167384
H22   H     H_    0.101896 0.401734 0.559773 0.168005
H23   H     H_    0.397635 0.883456 0.437730 0.165599
H24   H     H_    0.602436 0.891450 0.562033 0.172472
H25   H     H_    0.876619 0.194931 0.555747 0.134589
H26   H     H_    0.112629 0.221024 0.439578 0.137051
H27   H     H_    0.381232 0.706200 0.557404 0.136875
H28   H     H_    0.614590 0.714994 0.440190 0.133136
H29   H     H_    0.890789 0.362444 0.561208 0.141540
H30   H     H_    0.108710 0.390819 0.434293 0.138506
H31   H     H_    0.391623 0.874719 0.563252 0.137919
H32   H     H_    0.610937 0.884490 0.436008 0.144112
H33   H     H_    0.860013 0.377634 0.923903 0.196562
H34   H     H_    0.142715 0.350698 0.071256 0.190362
H35   H     H_    0.360016 0.877575 0.923909 0.196612
H36   H     H_    0.642744 0.850531 0.071219 0.190158
H37   H     H_    0.870415 0.382418 0.050814 0.171677
H38   H     H_    0.137077 0.349543 0.944689 0.163763
H39   H     H_    0.370407 0.882378 0.050818 0.171680
H40   H     H_    0.637116 0.849395 0.944658 0.163680
H41   H     H_    0.594450 0.542781 0.941998 0.215550
H42   H     H_    0.391695 0.581631 0.063901 0.210596
H43   H     H_    0.094548 0.043124 0.941941 0.215520
H44   H     H_    0.891725 0.081549 0.063872 0.210531
H45   H     H_    0.676252 0.632783 0.932752 0.105435
H46   H     H_    0.302528 0.648046 0.072049 0.105254
H47   H     H_    0.176424 0.132940 0.932687 0.105441
H48   H     H_    0.802563 0.147988 0.072050 0.105350
H49   H     H_    0.498891 0.977463 0.561971 0.115430
H50   H     H_    0.497139 0.972652 0.431418 0.120954
H51   H     H_    0.996059 0.473106 0.569015 0.118426
H52   H     H_    0.993419 0.475351 0.438384 0.116822
O1    O     O_R   0.784290 0.290360 0.830540 -0.482748
O2    O     O_R   0.215710 0.290360 0.169460 -0.510181
O3    O     O_R   0.284290 0.790360 0.830540 -0.482836
O4    O     O_R   0.715710 0.790360 0.169460 -0.509937
O5    O     O_R   0.554690 0.080440 0.673480 -0.504001
O6    O     O_R   0.445310 0.080440 0.326520 -0.512284
O7    O     O_R   0.054690 0.580440 0.673480 -0.505544
O8    O     O_R   0.945310 0.580440 0.326520 -0.510980
O9    O     O_R   0.543980 0.282110 0.666770 -0.510656
O10   O     O_R   0.456020 0.282110 0.333230 -0.517933
O11   O     O_R   0.043980 0.782110 0.666770 -0.518667
O12   O     O_R   0.956020 0.782110 0.333230 -0.510673
O13   O     O_R   0.679070 0.374030 0.674430 -0.508497
O14   O     O_R   0.320930 0.374030 0.325570 -0.511232
O15   O     O_R   0.179070 0.874030 0.674430 -0.512054
O16   O     O_R   0.820930 0.874030 0.325570 -0.509478
O17   O     O_3   0.665360 0.165350 0.749070 -0.283645
O18   O     O_3   0.334640 0.165350 0.250930 -0.267083
O19   O     O_3   0.165360 0.665350 0.749070 -0.281901
O20   O     O_3   0.834640 0.665350 0.250930 -0.269213
O21   O     O_R   0.762610 0.041070 0.825230 -0.463594
O22   O     O_R   0.237390 0.041070 0.174770 -0.463363
O23   O     O_R   0.262610 0.541070 0.825230 -0.463491
O24   O     O_R   0.737390 0.541070 0.174770 -0.463438
O25   O     O_R   0.667390 0.924160 0.829970 -0.531667
O26   O     O_R   0.332610 0.924160 0.170030 -0.523150
O27   O     O_R   0.167390 0.424160 0.829970 -0.531482
O28   O     O_R   0.832610 0.424160 0.170030 -0.523208
O29   O     O_R   0.553980 0.081420 0.821780 -0.485418
O30   O     O_R   0.446020 0.081420 0.178220 -0.498990
O31   O     O_R   0.053980 0.581420 0.821780 -0.486627
O32   O     O_R   0.946020 0.581420 0.178220 -0.498016
O33   O     O_R   0.543210 0.283170 0.826740 -0.505291
O34   O     O_R   0.456790 0.283170 0.173260 -0.493554
O35   O     O_R   0.043210 0.783170 0.826740 -0.505696
O36   O     O_R   0.956790 0.783170 0.173260 -0.493516
O37   O     O_R   0.678350 0.375000 0.822720 -0.515684
O38   O     O_R   0.321650 0.375000 0.177280 -0.496329
O39   O     O_R   0.178350 0.875000 0.822720 -0.515247
O40   O     O_R   0.821650 0.875000 0.177280 -0.496256
O41   O     O_R   0.785060 0.289300 0.670580 -0.508276
O42   O     O_R   0.214940 0.289300 0.329420 -0.513196
O43   O     O_R   0.285060 0.789300 0.670580 -0.507504
O44   O     O_R   0.714940 0.789300 0.329420 -0.513717
O45   O     O_R   0.763330 0.040090 0.676940 -0.495835
O46   O     O_R   0.236670 0.040090 0.323060 -0.496158
O47   O     O_R   0.263330 0.540090 0.676940 -0.496066
O48   O     O_R   0.736670 0.540090 0.323060 -0.496855
O49   O     O_R   0.668160 0.923110 0.670000 -0.523483
O50   O     O_R   0.331840 0.923110 0.330000 -0.523135
O51   O     O_R   0.168160 0.423110 0.670000 -0.522468
O52   O     O_R   0.831840 0.423110 0.330000 -0.523513
H53   H     H_    0.878387 0.202649 0.428839 0.127923
H54   H     H_    0.107728 0.231699 0.566305 0.130330
H55   H     H_    0.383867 0.715378 0.430558 0.130162
H56   H     H_    0.610323 0.722144 0.567072 0.126114
H57   H     H_    0.545940 0.243288 0.071392 0.163596
H58   H     H_    0.517269 0.261197 0.956898 0.181916
H59   H     H_    0.045944 0.743257 0.071388 0.163448
H60   H     H_    0.017286 0.761205 0.956903 0.181958
H61   H     H_    0.188669 0.145082 0.059380 0.125487
H62   H     H_    0.792487 0.161327 0.946075 0.114604
H63   H     H_    0.688505 0.644895 0.059448 0.125483
H64   H     H_    0.292483 0.661359 0.946071 0.114616
S1    S     S_3+6 0.575407 0.552894 0.089018 0.010851
O53   O     O_2   0.589388 0.501182 0.161502 -0.281549
O54   O     O_2   0.542154 0.676462 0.096724 -0.281028
O55   O     O_3   0.520834 0.460343 0.044600 -0.523587
H65   H     H_    0.481757 0.445346 0.077772 0.375111
S2    S     S_3+6 0.413346 0.599384 0.918023 0.008462
O56   O     O_2   0.402162 0.643209 0.843358 -0.273560
O57   O     O_2   0.461400 0.686206 0.956079 -0.280765
O58   O     O_3   0.449784 0.460253 0.914985 -0.500957
H66   H     H_    0.491094 0.470361 0.883995 0.372754
S3    S     S_3+6 0.075468 0.053422 0.088907 0.010862
O59   O     O_2   0.089400 0.002408 0.161570 -0.281461
O60   O     O_2   0.042107 0.176978 0.096187 -0.280968
O61   O     O_3   0.021021 0.960347 0.044701 -0.523666
H67   H     H_    0.981925 0.945539 0.077880 0.375060
S4    S     S_3+6 0.913343 0.099371 0.917996 0.008492
O62   O     O_2   0.902120 0.142899 0.843276 -0.273636
O63   O     O_2   0.961331 0.186442 0.955943 -0.280698
O64   O     O_3   0.949884 0.960315 0.915133 -0.500987
H68   H     H_    0.991164 0.970385 0.884089 0.372814

loop_
_geom_bond_atom_site_label_1
_geom_bond_atom_site_label_2
_ccdc_geom_bond_type
C58   C62   A    
C73   C77   S    
Cr1   O1    S    
C4    C109  S    
C67   C83   A    
C103  H60   S    
C8    C24   S    
C100  O44   A    
C47   O35   A    
C16   H36   S    
C3    O27   A    
C41   C42   A    
C14   C18   A    
C39   C51   S    
C2    O26   A    
C34   C93   S    
C74   H54   S    
C53   C69   A    
C33   C94   S    
C27   H43   S    
C73   H53   S    
C51   H5    S    
C9    C25   S    
S3    O59   D    
C63   C79   S    
C35   C96   S    
Cr6   O50   S    
C15   C19   A    
C49   H7    S    
Cr5   O49   S    
O58   H66   S    
Cr8   O20   S    
C21   C25   S    
C14   H34   S    
C33   C42   A    
C18   H38   S    
C13   C29   A    
Cr6   O30   S    
C14   C30   A    
C90   O46   A    
C55   C90   S    
Cr5   O29   S    
C8    C112  A    
C1    C112  S    
Cr9   O13   S    
C35   C39   A    
C23   H61   S    
Cr5   O5    S    
S3    O60   D    
C67   C71   A    
C94   O10   A    
C3    C110  S    
C69   H17   S    
C66   H14   S    
C48   C104  S    
S4    O64   S    
C62   C78   S    
C65   C69   A    
C86   O2    A    
O55   H65   S    
C102  C105  D    
C72   H20   S    
S1    O53   D    
C57   C73   S    
C57   C61   A    
C24   S4    S    
C96   O12   A    
C64   C84   A    
C36   C40   A    
C23   S3    S    
C77   H29   S    
Cr4   O48   S    
C20   C112  A    
C43   H51   S    
C28   H48   S    
C104  H59   S    
C48   O36   A    
C61   C77   S    
Cr2   O2    S    
S4    O63   D    
C76   H56   S    
C3    O23   A    
C107  C108  S    
Cr10  O34   S    
C88   O4    A    
C103  C108  D    
Cr9   O33   S    
C8    C12   A    
C30   C86   S    
C67   H15   S    
Cr8   O52   S    
C4    O24   A    
C29   C85   S    
C36   C95   S    
C98   O14   A    
C17   H37   S    
C65   H13   S    
C52   H6    S    
C10   C26   S    
C6    C22   S    
C97   O13   A    
C62   C82   A    
C1    O25   A    
C83   C99   S    
C12   C32   A    
Cr11  O11   S    
C64   C80   S    
C5    C9    A    
Cr3   O43   S    
C100  O16   A    
C34   C41   A    
C51   H11   S    
C96   O8    A    
C91   O51   A    
Cr5   O25   S    
Cr10  O10   S    
C89   O45   A    
C21   S1    S    
Cr9   O17   S    
C34   C38   A    
Cr3   O3    S    
C90   O50   A    
Cr10  O14   S    
C22   H64   S    
Cr6   O6    S    
C88   O40   A    
S2    O57   D    
C2    C111  S    
C70   H18   S    
C47   C103  S    
C82   C98   S    
Cr7   O51   S    
C51   C52   S    
C68   C84   A    
C76   C80   S    
Cr11  O39   S    
C92   O48   A    
C31   C87   S    
C42   H50   S    
C77   H25   S    
C39   C40   A    
Cr12  O12   S    
C53   C57   A    
C78   H30   S    
S3    O61   S    
Cr7   O7    S    
Cr12  O36   S    
C25   H41   S    
C46   O34   A    
Cr3   O23   S    
C60   C76   S    
C45   O33   A    
C56   C60   A    
Cr11  O35   S    
C68   C72   A    
S1    O54   D    
Cr9   O9    S    
Cr8   O32   S    
C61   C81   A    
C6    C110  A    
C7    C11   A    
C43   C44   A    
C86   O38   A    
C73   H21   S    
C37   C38   A    
C85   O37   A    
C66   C82   A    
C37   C49   S    
C63   C83   A    
C10   C30   A    
C65   C81   A    
C54   C70   A    
C11   C27   S    
C16   C20   A    
Cr1   O45   S    
S4    O62   D    
C48   O32   A    
C53   C92   S    
C54   C58   A    
Cr7   O27   S    
C78   H26   S    
C19   H39   S    
C108  H4    S    
C75   H55   S    
C35   C44   A    
Cr8   O8    S    
C76   H24   S    
C50   H8    S    
C26   H46   S    
C56   C89   S    
C21   H63   S    
C87   O3    A    
C99   O43   A    
C95   O11   A    
C23   C27   S    
Cr4   O4    S    
C50   H10   S    
C52   H12   S    
C97   O41   A    
C68   H16   S    
C32   C88   S    
Cr4   O44   S    
Cr11  O15   S    
O64   H68   S    
Cr5   O17   S    
C59   C75   S    
Cr12  O16   S    
C80   H32   S    
C24   H62   S    
C55   C59   A    
C58   C74   S    
C24   C28   S    
C22   S2    S    
Cr12  O40   S    
C79   H27   S    
Cr3   O47   S    
C101  C106  D    
C46   O30   A    
C41   H49   S    
S2    O56   D    
C26   H42   S    
C45   O29   A    
Cr2   O18   S    
C56   C72   A    
C20   H40   S    
C2    O22   A    
C46   C102  S    
Cr1   O17   S    
Cr2   O22   S    
C74   H22   S    
C93   O5    A    
C1    O21   A    
C18   C110  A    
C89   O49   A    
C17   C109  A    
C15   H35   S    
Cr10  O18   S    
C84   C100  S    
Cr4   O24   S    
C15   C31   A    
C38   C50   S    
C19   C111  A    
C16   C32   A    
C79   H31   S    
C105  C106  S    
C106  H2    S    
C59   C63   A    
C47   O31   A    
C60   C64   A    
S1    O55   S    
C75   H23   S    
C105  H1    S    
O61   H67   S    
C98   O42   A    
C25   H45   S    
C107  H3    S    
C54   C91   S    
Cr1   O41   S    
C40   C52   S    
C99   O15   A    
C9    C29   A    
Cr11  O19   S    
Cr8   O28   S    
C95   O7    A    
C66   C70   A    
C71   H19   S    
C5    C109  A    
C7    C23   S    
C45   C101  S    
C81   C97   S    
C7    C111  A    
Cr1   O21   S    
Cr7   O19   S    
Cr3   O19   S    
Cr12  O20   S    
C33   C37   A    
C44   H52   S    
C4    O28   A    
C6    C10   A    
C28   H44   S    
C11   C31   A    
C13   C17   A    
Cr4   O20   S    
Cr10  O38   S    
Cr6   O26   S    
Cr2   O42   S    
C5    C21   S    
C92   O52   A    
C102  H57   S    
C85   O1    A    
C49   C50   S    
C22   C26   S    
Cr6   O18   S    
C49   H9    S    
C101  H58   S    
C87   O39   A    
C91   O47   A    
C36   C43   A    
C74   C78   S    
Cr7   O31   S    
C94   O6    A    
C12   C28   S    
C13   H33   S    
C27   H47   S    
C75   C79   S    
C80   H28   S    
C104  C107  D    
C55   C71   A    
Cr9   O37   S    
Cr2   O46   S    
S2    O58   S    
C93   O9    A    
