data_mof_unit_12965.cif
_audit_creation_date              2013-03-05T15:43:29-0500
_audit_creation_method            fapswitch 2.2
_symmetry_space_group_name_H-M    P1
_symmetry_Int_Tables_number       1
_space_group_crystal_system       triclinic
_cell_length_a                    10.791792
_cell_length_b                    10.970476
_cell_length_c                    9.687668
_cell_angle_alpha                 90.803982
_cell_angle_beta                  90.121024
_cell_angle_gamma                 90.207433
_cell_volume                      1146.81051035

loop_
_atom_site_label
_atom_site_type_symbol
_atom_site_description
_atom_site_fract_x
_atom_site_fract_y
_atom_site_fract_z
_atom_type_partial_charge
O1    O     O_R   0.500020 0.321960 0.617040 -0.513621
O2    O     O_R   0.499980 0.321920 0.382900 -0.523193
C1    C     C_R   0.496044 0.265795 0.498919 0.849405
O3    O     O_R   0.317710 0.500000 0.617070 -0.512460
O4    O     O_R   0.317670 0.499960 0.382930 -0.533265
C2    C     C_R   0.260063 0.504091 0.499632 0.941194
Cu1   Cu    Cu3+1 0.500030 0.500020 0.638630 1.109891
Cu2   Cu    Cu3+1 0.499970 0.499980 0.361370 1.137166
O5    O     O_R   0.500020 0.678080 0.617100 -0.580805
O6    O     O_R   0.499980 0.678040 0.382960 -0.559453
O7    O     O_R   0.682330 0.500040 0.617070 -0.575045
O8    O     O_R   0.682290 0.500000 0.382930 -0.515546
C3    C     C_R   0.506301 0.734781 0.500706 0.769897
C4    C     C_R   0.739983 0.499010 0.499689 0.865046
C5    C     C_3   0.074340 0.381258 0.559641 0.087362
H1    H     H_    0.105448 0.375871 0.668983 0.206708
C6    C     C_3   0.930136 0.375215 0.550947 0.067425
H2    H     H_    0.904630 0.303727 0.473067 0.206153
H3    H     H_    0.894713 0.593006 0.700223 0.270524
C7    C     C_3   0.069621 0.612992 0.586711 0.170369
C8    C     C_3   0.070869 0.512550 0.345448 0.006793
C9    C     C_3   0.122097 0.504218 0.497978 -0.213001
H4    H     H_    0.098064 0.425437 0.293610 0.227830
C10   C     C_3   0.877801 0.499567 0.497730 -0.175300
C11   C     C_3   0.926524 0.605437 0.592600 -0.523185
C12   C     C_3   0.926608 0.516523 0.344595 0.618558
H5    H     H_    0.094463 0.699930 0.537456 0.229880
H6    H     H_    0.885607 0.694326 0.563991 0.170904
C13   C     C_2   0.513011 0.935435 0.389892 0.203159
C14   C     C_2   0.531380 0.866419 0.502914 0.155130
C15   C     C_2   0.537290 0.067074 0.400301 0.333137
C16   C     C_2   0.474575 0.135472 0.493705 0.198051
C17   C     C_2   0.425081 0.432576 0.919854 0.489757
N1    N     N_2   0.498630 0.498660 0.846910 -0.282399
H7    H     H_    0.573810 0.537710 0.896020 0.164767
C18   C     C_2   0.443252 0.417345 0.074686 0.303453
N2    N     N_2   0.498590 0.498630 0.153040 -0.313276
H8    H     H_    0.523790 0.579105 0.107452 0.196061
O9    O     O_3   0.880645 0.624925 0.285818 -0.657381
H9    H     H_    0.904141 0.695693 0.344305 0.339444
N3    N     N_R   0.458997 0.888857 0.263815 0.134898
O10   O     O_R   0.505242 0.920419 0.145639 -0.272839
O11   O     O_R   0.349055 0.840116 0.266123 -0.220419
O12   O     O_3   0.582638 0.921403 0.619861 -0.686443
H10   H     H_    0.600501 0.859015 0.689939 0.368577
O13   O     O_3   0.627605 0.119896 0.319030 -0.667023
H11   H     H_    0.670428 0.054339 0.266518 0.372587
N4    N     N_R   0.377219 0.085766 0.578460 0.119260
O14   O     O_R   0.361337 0.126540 0.703890 -0.235291
O15   O     O_R   0.293528 0.013750 0.524505 -0.302192
O16   O     O_3   0.331743 0.369805 0.851580 -0.628897
H12   H     H_    0.274931 0.334464 0.920502 0.356656
N5    N     N_R   0.397648 0.307082 0.133737 0.151777
O17   O     O_R   0.439968 0.203174 0.088381 -0.240152
O18   O     O_R   0.294838 0.308502 0.203321 -0.308844
O19   O     O_3   0.126223 0.281560 0.487568 -0.680939
H13   H     H_    0.109399 0.208063 0.543298 0.389987
N6    N     N_R   0.875853 0.337080 0.682774 0.133823
O20   O     O_R   0.903898 0.392136 0.798577 -0.357841
O21   O     O_R   0.803935 0.241669 0.685479 -0.291161
O22   O     O_3   0.121866 0.620399 0.720157 -0.630794
H14   H     H_    0.088563 0.553097 0.776300 0.376542
N7    N     N_R   0.126251 0.610368 0.262291 0.164166
O23   O     O_R   0.121765 0.724272 0.300702 -0.301458
O24   O     O_R   0.176887 0.583010 0.144080 -0.287619
O25   O     O_3   0.883438 0.418203 0.261755 -0.681573
H15   H     H_    0.905510 0.435963 0.164529 0.385081

loop_
_geom_bond_atom_site_label_1
_geom_bond_atom_site_label_2
_geom_bond_distance
_ccdc_geom_bond_type
O4    Cu2   1.978837 S    
C8    C12   1.557613 S    
N7    O24   1.301668 A    
C5    C6    1.559438 S    
C13   C14   1.354560 D    
C7    H5    1.104836 S    
C17   O16   1.380463 S    
C16   N4    1.444794 S    
N3    O10   1.300747 A    
C15   C16   1.351707 D    
C6    N6    1.471584 S    
Cu2   O8    1.978176 S    
C5    O19   1.407814 S    
N4    O15   1.301682 A    
O25   H15   0.993790 S    
Cu1   Cu2   2.685995 S    
C13   C15   1.468815 S    
O1    Cu1   1.961648 S    
N5    O17   1.300622 A    
C10   C11   1.560033 S    
C11   H6    1.110361 S    
Cu1   O7    1.978837 S    
N3    O11   1.299992 A    
C10   C12   1.588455 S    
C14   O12   1.388949 S    
O22   H14   0.990098 S    
O3    Cu1   1.978175 S    
O4    C2    1.291695 A    
O3    C2    1.296939 A    
C18   N2    1.305087 D    
Cu1   N1    2.018101 S    
N2    H8    1.028660 S    
O8    C4    1.290203 A    
C6    H2    1.114008 S    
O2    C1    1.289812 A    
N5    O18   1.299484 A    
C8    H4    1.113918 S    
C1    C16   1.447699 S    
H3    C11   1.108448 S    
O7    C4    1.297308 A    
C12   O9    1.416541 S    
C8    N7    1.476279 S    
C6    C10   1.571590 S    
Cu2   N2    2.018101 S    
N6    O21   1.301391 A    
O16   H12   0.989606 S    
C2    C9    1.488952 S    
C3    C14   1.468157 S    
O9    H9    0.986759 S    
C17   C18   1.523905 S    
C17   N1    1.291323 D    
O19   H13   0.993038 S    
Cu2   O6    1.961648 S    
N1    H7    1.028721 S    
C7    C11   1.547415 S    
C4    C10   1.487460 S    
C7    O22   1.410460 S    
Cu1   O5    1.967416 S    
O5    C3    1.297186 A    
O13   H11   0.991328 S    
N4    O14   1.300836 A    
C18   N5    1.431429 S    
C13   N3    1.438752 S    
N6    O20   1.301235 A    
C8    C9    1.580561 S    
O6    C3    1.293338 A    
C5    C9    1.568746 S    
O2    Cu2   1.967416 S    
O12   H10   0.989916 S    
C5    H1    1.112944 S    
C7    C9    1.569011 S    
N7    O23   1.299895 A    
O1    C1    1.292580 A    
C15   O13   1.384775 S    
C12   O25   1.412444 S    
