data_mof_unit_22415.cif
_audit_creation_date              2012-10-26T20:44:09-0400
_audit_creation_method            fapswitch 2.2
_symmetry_space_group_name_H-M    P1
_symmetry_Int_Tables_number       1
_space_group_crystal_system       triclinic
_cell_length_a                    10.824468
_cell_length_b                    9.683041
_cell_length_c                    19.445561
_cell_angle_alpha                 89.670306
_cell_angle_beta                  100.560746
_cell_angle_gamma                 90.229256
_cell_volume                      2003.59619817

loop_
_atom_site_label
_atom_site_type_symbol
_atom_type_description
_atom_site_fract_x
_atom_site_fract_y
_atom_site_fract_z
_atom_type_partial_charge
C1    C     C_R   0.871307 0.499979 0.499076 0.005255
C2    C     C_R   0.737239 0.500126 0.498965 0.576044
C3    C     C_R   0.502135 0.500256 0.368102 0.572060
C4    C     C_R   0.497866 0.499744 0.631898 0.572061
C5    C     C_R   0.068512 0.378126 0.515726 -0.108864
C6    C     C_R   0.931488 0.621874 0.484274 -0.108868
C7    C     C_R   0.940253 0.377920 0.514494 -0.106098
C8    C     C_R   0.059747 0.622080 0.485506 -0.106098
C9    C     C_R   0.471379 0.377565 0.741475 -0.099729
C10   C     C_R   0.528622 0.622435 0.258525 -0.099728
C11   C     C_R   0.479244 0.377884 0.254153 -0.104231
C12   C     C_R   0.128693 0.500021 0.500924 0.005260
C13   C     C_R   0.520755 0.622116 0.745847 -0.104227
C14   C     C_R   0.471873 0.377493 0.813173 -0.104293
C15   C     C_R   0.528127 0.622507 0.186828 -0.104293
C16   C     C_R   0.478647 0.377987 0.182506 -0.111909
C17   C     C_R   0.521353 0.622013 0.817494 -0.111909
C18   C     C_R   0.497321 0.499642 0.851782 0.025129
C19   C     C_R   0.502679 0.500358 0.148218 0.025129
C20   C     C_R   0.412367 0.075733 0.451550 0.281554
C21   C     C_R   0.587633 0.924267 0.548450 0.281554
C22   C     C_R   0.586981 0.075372 0.548811 0.282634
C23   C     C_R   0.593322 0.570933 0.972953 -0.104093
C24   C     C_R   0.413019 0.924628 0.451189 0.282634
C25   C     C_R   0.496683 0.499660 0.707316 0.006987
C26   C     C_R   0.503317 0.500340 0.292683 0.006985
C27   C     C_R   0.406678 0.429067 0.027047 -0.104094
C28   C     C_R   0.594563 0.571312 0.044703 -0.106226
C29   C     C_R   0.405437 0.428688 0.955297 -0.106227
C30   C     C_R   0.501263 0.500359 0.072316 0.030233
C31   C     C_R   0.498737 0.499642 0.927684 0.030233
C32   C     C_R   0.262761 0.499874 0.501035 0.576050
Cu1   Cu    Cu3+1 0.500000 0.640660 0.500000 1.136673
Cu2   Cu    Cu3+1 0.500000 0.359340 0.500000 1.136674
H1    H     H_    0.120491 0.283372 0.528837 0.178688
H2    H     H_    0.546195 0.718373 0.161412 0.122993
H3    H     H_    0.460656 0.282051 0.154000 0.125677
H4    H     H_    0.539343 0.717950 0.845999 0.125676
H5    H     H_    0.667314 0.624724 0.952932 0.119421
H6    H     H_    0.332686 0.375276 0.047068 0.119421
H7    H     H_    0.669502 0.625313 0.078723 0.115963
H8    H     H_    0.330498 0.374687 0.921277 0.115963
H9    H     H_    0.195547 0.353806 0.349057 0.349065
H10   H     H_    0.804459 0.646191 0.650932 0.349068
H11   H     H_    0.771062 0.352642 0.669492 0.349201
H12   H     H_    0.879508 0.716628 0.471163 0.178689
H13   H     H_    0.228938 0.647358 0.330508 0.349201
H14   H     H_    0.895564 0.282602 0.526177 0.196904
H15   H     H_    0.104435 0.717398 0.473823 0.196904
H16   H     H_    0.450470 0.282272 0.712802 0.169400
H17   H     H_    0.549532 0.717727 0.287198 0.169400
H18   H     H_    0.460311 0.281956 0.279208 0.186256
H19   H     H_    0.539688 0.718044 0.720791 0.186256
H20   H     H_    0.453806 0.281626 0.838588 0.122993
N1    N     N_R   0.500000 0.852070 0.500000 -0.326311
N2    N     N_R   0.500000 0.147930 0.500000 -0.326311
O1    O     O_R   0.319640 0.618740 0.500000 -0.460895
O2    O     O_2   0.166326 0.134034 0.420087 -0.277781
O3    O     O_3   0.280107 0.335120 0.376902 -0.497380
O4    O     O_2   0.833673 0.865966 0.579912 -0.277788
O5    O     O_2   0.728658 0.892039 0.680319 -0.222378
O6    O     O_3   0.719893 0.664880 0.623098 -0.497383
O7    O     O_2   0.643075 0.133142 0.685766 -0.285377
O8    O     O_2   0.823711 0.106781 0.627569 -0.220826
O9    O     O_3   0.720911 0.334201 0.622458 -0.498709
O10   O     O_2   0.176289 0.893219 0.372430 -0.220825
O11   O     O_2   0.356926 0.866857 0.314234 -0.285377
O12   O     O_R   0.680360 0.381260 0.500000 -0.460893
O13   O     O_3   0.279089 0.665799 0.377542 -0.498708
O14   O     O_R   0.680360 0.618740 0.500000 -0.452800
O15   O     O_R   0.319640 0.381260 0.500000 -0.452797
O16   O     O_R   0.500020 0.618830 0.400190 -0.450848
O17   O     O_R   0.499980 0.381170 0.599810 -0.450849
O18   O     O_R   0.499980 0.618830 0.599810 -0.459725
O19   O     O_R   0.500020 0.381170 0.400190 -0.459726
O20   O     O_2   0.271344 0.107961 0.319680 -0.222388
S1    S     S_3+6 0.284267 0.164815 0.392236 0.084999
S2    S     S_3+6 0.715733 0.835185 0.607763 0.084999
S3    S     S_3+6 0.693361 0.163970 0.620188 0.083337
S4    S     S_3+6 0.306640 0.836030 0.379812 0.083338

loop_
_geom_bond_atom_site_label_1
_geom_bond_atom_site_label_2
_ccdc_geom_bond_type
Cu1   N1    S    
Cu2   N2    S    
O9    S3    S    
C29   H8    S    
C27   C29   A    
C14   C18   A    
C20   N2    A    
O3    S1    S    
C4    C25   S    
C9    C25   A    
O7    S3    D    
C24   N1    A    
C15   C19   A    
O4    S2    D    
C20   S1    S    
C22   S3    S    
C2    O12   A    
C10   C15   A    
C28   H7    S    
Cu2   O15   S    
C1    C2    S    
H13   O13   S    
C11   H18   S    
Cu1   O16   S    
C24   S4    S    
C20   C24   A    
C21   S2    S    
C3    O19   A    
O5    S2    D    
C4    O18   A    
O2    S1    D    
H9    O3    S    
Cu2   O19   S    
C10   C26   A    
C21   C22   A    
C12   C32   S    
C27   C30   A    
C13   C25   A    
C32   O1    A    
C10   H17   S    
C17   C18   A    
C32   O15   A    
C13   H19   S    
C9    H16   S    
C1    C6    A    
O20   S1    D    
C5    C12   A    
Cu2   O12   S    
C5    C7    A    
C6    C8    A    
C11   C26   A    
H10   O6    S    
C23   C31   A    
C9    C14   A    
C11   C16   A    
C27   H6    S    
C8    C12   A    
Cu1   Cu2   S    
C23   C28   A    
C4    O17   A    
Cu1   O14   S    
C14   H20   S    
H11   O9    S    
O8    S3    D    
C15   H2    S    
C21   N1    A    
Cu1   O1    S    
C6    H12   S    
C1    C7    A    
O6    S2    S    
C3    C26   S    
O11   S4    D    
C22   N2    A    
O10   S4    D    
C16   H3    S    
C13   C17   A    
C7    H14   S    
C28   C30   A    
C3    O16   A    
C29   C31   A    
C16   C19   A    
C23   H5    S    
C5    H1    S    
C17   H4    S    
Cu2   O17   S    
Cu1   O18   S    
O13   S4    S    
C18   C31   S    
C2    O14   A    
C19   C30   S    
C8    H15   S    
