data_mof_unit_61825.cif
_audit_creation_date              2012-10-26T17:48:01-0400
_audit_creation_method            fapswitch 2.2
_symmetry_space_group_name_H-M    P1
_symmetry_Int_Tables_number       1
_space_group_crystal_system       triclinic
_cell_length_a                    19.167384
_cell_length_b                    18.950231
_cell_length_c                    18.801178
_cell_angle_alpha                 108.915357
_cell_angle_beta                  109.895222
_cell_angle_gamma                 109.735578
_cell_volume                      5248.08658835

loop_
_atom_site_label
_atom_site_type_symbol
_atom_type_description
_atom_site_fract_x
_atom_site_fract_y
_atom_site_fract_z
_atom_type_partial_charge
C1    C     C_R   0.389100 0.382716 0.506164 0.564925
C2    C     C_2   0.181332 0.498927 0.176823 0.269369
C3    C     C_2   0.264188 0.528700 0.326785 -0.077473
C4    C     C_R   0.618269 0.500404 0.619697 0.637400
C5    C     C_2   0.302686 0.482926 0.311486 -0.094688
C6    C     C_2   0.742803 0.745129 0.419818 0.242833
C7    C     C_2   0.818730 0.806805 0.492882 -0.112630
C8    C     C_2   0.682446 0.672154 0.420343 0.233975
C9    C     C_2   0.674209 0.685093 0.491357 -0.122408
C10   C     C_R   0.991169 0.382592 0.873835 0.537229
C11   C     C_R   0.876112 0.499746 0.874482 0.611135
C12   C     C_3   0.809747 0.504507 0.809418 -0.029680
C13   C     C_R   0.997968 0.617576 0.114827 0.615413
C14   C     C_R   0.112697 0.500025 0.112768 0.572771
C15   C     C_R   0.000873 0.118738 0.617124 0.577425
C16   C     C_R   0.614660 0.617583 0.497098 0.592830
C17   C     C_R   0.116702 0.118227 0.499799 0.563130
C18   C     C_R   0.999121 0.881362 0.382626 0.576113
C19   C     C_R   0.882978 0.879694 0.497486 0.576354
C20   C     C_2   0.995124 0.251428 0.673602 0.269878
C21   C     C_2   0.009150 0.190402 0.687209 0.241810
C22   C     C_2   0.012316 0.327530 0.747675 0.223512
C23   C     C_3   0.847691 0.554495 0.767081 0.145275
C24   C     C_2   0.979037 0.314800 0.797968 -0.095513
C25   C     C_2   0.997117 0.744518 0.319025 0.253663
C26   C     C_2   0.990676 0.810815 0.310878 0.284349
C27   C     C_2   0.979048 0.670544 0.241051 -0.096932
C28   C     C_R   0.378234 0.495938 0.380639 0.551087
C29   C     C_2   0.013004 0.685541 0.192369 -0.065644
C30   C     C_3   0.661808 0.410970 0.674734 -0.320076
C31   C     C_3   0.738809 0.410598 0.735629 -0.364288
C32   C     C_3   0.773669 0.543047 0.687002 0.413039
C33   C     C_3   0.703368 0.561985 0.784465 0.495574
C34   C     C_3   0.766553 0.547257 0.851274 0.112769
C35   C     C_3   0.688486 0.504566 0.690718 0.096307
C36   C     C_3   0.844992 0.651602 0.658206 0.064813
C37   C     C_3   0.883536 0.748542 0.694539 -0.368634
C38   C     C_3   0.333299 0.331454 0.727304 -0.013362
C39   C     C_3   0.339753 0.323932 0.807143 -0.339521
C40   C     C_3   0.126029 0.115483 0.349746 0.004471
C41   C     C_3   0.142216 0.132532 0.281574 -0.343654
C42   C     C_3   0.218779 0.432721 0.081623 -0.023437
C43   C     C_3   0.293497 0.423248 0.078371 -0.336444
C44   C     C_3   0.901109 0.253440 0.560722 0.005115
C45   C     C_2   0.247744 0.258062 0.575525 0.306402
C46   C     C_3   0.872148 0.233492 0.467085 -0.327070
C47   C     C_3   0.999074 0.132844 0.776611 -0.026752
C48   C     C_3   0.024322 0.160621 0.871316 -0.370828
C49   C     C_3   0.048926 0.693499 0.410221 0.003676
C50   C     C_3   0.080679 0.711990 0.503733 -0.339961
C51   C     C_3   0.006665 0.876713 0.228758 -0.034208
C52   C     C_3   0.987164 0.854151 0.136235 -0.325905
C53   C     C_3   0.778149 0.720929 0.878034 0.043012
C54   C     C_3   0.765533 0.793101 0.868602 -0.383694
C55   C     C_3   0.615443 0.573222 0.847510 0.005291
C56   C     C_2   0.179621 0.189049 0.499424 0.328452
C57   C     C_3   0.530836 0.518374 0.838531 -0.385339
C58   C     C_2   0.305920 0.330354 0.571084 -0.099276
C59   C     C_2   0.342583 0.316224 0.522354 0.218452
C60   C     C_2   0.189063 0.516546 0.255756 0.210769
Cl1   Cl    Cl    0.839781 0.631682 0.963338 -0.643480
Cl2   Cl    Cl    0.927841 0.666293 0.845532 -0.571367
Cl3   Cl    Cl    0.345505 0.219143 0.483666 -0.626568
Cl4   Cl    Cl    0.115404 0.536910 0.282726 -0.661500
Cl5   Cl    Cl    0.715038 0.743645 0.319115 -0.467832
Cl6   Cl    Cl    0.617745 0.571092 0.322865 -0.480526
Cl7   Cl    Cl    0.074364 0.430467 0.763540 -0.540211
Cl8   Cl    Cl    0.760889 0.466602 0.587455 -0.667682
Cu1   Cu    Cu3+1 0.500730 0.439000 0.439690 1.102525
Cu2   Cu    Cu3+1 0.499270 0.561000 0.560310 0.993024
Cu3   Cu    Cu3+1 0.933160 0.439090 0.994150 0.997282
Cu4   Cu    Cu3+1 0.055180 0.561040 0.994050 1.105122
Cu5   Cu    Cu3+1 0.061740 0.000000 0.561740 0.994893
Cu6   Cu    Cu3+1 0.938260 1.000000 0.438260 1.021800
H1    H     H_    0.637921 0.364355 0.606267 0.209112
H2    H     H_    0.939383 0.604906 0.225066 0.154609
H3    H     H_    0.058456 0.751244 0.213398 0.111854
H4    H     H_    0.765006 0.380970 0.698120 0.162617
H5    H     H_    0.883385 0.526393 0.744005 0.161083
H6    H     H_    0.724566 0.497809 0.860291 0.150084
H7    H     H_    0.807330 0.619774 0.585988 0.181311
H8    H     H_    0.898454 0.637811 0.677552 0.189010
H9    H     H_    0.922636 0.782867 0.766718 0.199355
H10   H     H_    0.925265 0.771061 0.668498 0.100366
H11   H     H_    0.831620 0.764221 0.675487 0.141889
H12   H     H_    0.312463 0.393305 0.602486 0.098185
H13   H     H_    0.335969 0.393696 0.737487 0.137812
H14   H     H_    0.388507 0.330169 0.720693 0.146396
H15   H     H_    0.337744 0.262531 0.799504 0.169114
H16   H     H_    0.401110 0.378824 0.866117 0.103580
H17   H     H_    0.285488 0.325094 0.815653 0.190625
H18   H     H_    0.055511 0.077739 0.321104 0.142645
H19   H     H_    0.155699 0.076952 0.365026 0.138823
H20   H     H_    0.212247 0.171046 0.307764 0.208903
H21   H     H_    0.115124 0.070439 0.222720 0.088364
H22   H     H_    0.111194 0.168651 0.262917 0.160232
H23   H     H_    0.286677 0.574989 0.393116 0.169370
H24   H     H_    0.189866 0.446344 0.029144 0.176163
H25   H     H_    0.170397 0.370207 0.068950 0.104295
H26   H     H_    0.323468 0.408504 0.129335 0.169749
H27   H     H_    0.270109 0.369818 0.013523 0.114484
H28   H     H_    0.342476 0.484039 0.089405 0.196815
H29   H     H_    0.913399 0.319380 0.598927 0.184682
H30   H     H_    0.847943 0.205418 0.560896 0.107898
H31   H     H_    0.858372 0.167504 0.426798 0.163709
H32   H     H_    0.812977 0.237126 0.439913 0.120684
H33   H     H_    0.923229 0.280982 0.464609 0.184578
H34   H     H_    0.607861 0.386529 0.686729 0.166804
H35   H     H_    0.013131 0.080486 0.752584 0.165029
H36   H     H_    0.928620 0.107109 0.738508 0.098192
H37   H     H_    0.010264 0.212423 0.897458 0.155821
H38   H     H_    0.987442 0.104713 0.876242 0.101082
H39   H     H_    0.094023 0.185279 0.911040 0.161588
H40   H     H_    0.105104 0.710339 0.400128 0.162430
H41   H     H_    0.001233 0.623412 0.366342 0.172023
H42   H     H_    0.026063 0.694876 0.515857 0.171063
H43   H     H_    0.110880 0.673144 0.515613 0.130356
H44   H     H_    0.128937 0.781573 0.549519 0.161504
H45   H     H_    0.276034 0.431170 0.246475 0.138393
H46   H     H_    0.076834 0.903245 0.270211 0.094735
H47   H     H_    0.989982 0.926873 0.252039 0.146760
H48   H     H_    0.917870 0.828816 0.093399 0.187501
H49   H     H_    0.025385 0.912566 0.135531 0.087022
H50   H     H_    0.003880 0.804599 0.110518 0.212381
H51   H     H_    0.847572 0.743639 0.905280 0.235892
H52   H     H_    0.758805 0.711889 0.924750 0.139339
H53   H     H_    0.696637 0.773951 0.841456 0.151498
H54   H     H_    0.803736 0.852603 0.933279 0.094925
H55   H     H_    0.786982 0.806882 0.824245 0.174625
H56   H     H_    0.837587 0.800207 0.550696 0.037465
H57   H     H_    0.615283 0.631377 0.846299 0.160643
H58   H     H_    0.667456 0.590437 0.910602 0.168859
H59   H     H_    0.528246 0.459495 0.840076 0.152562
H60   H     H_    0.524608 0.555518 0.893066 0.124770
H61   H     H_    0.476830 0.499575 0.775956 0.150796
H62   H     H_    0.708695 0.750064 0.546254 0.047713
H63   H     H_    0.935977 0.249163 0.779449 0.072083
H64   H     H_    0.715808 0.368948 0.762234 0.160290
O1    O     O_R   0.411600 0.359460 0.449080 -0.477482
O2    O     O_R   0.946790 0.089000 0.535860 -0.498724
O3    O     O_R   0.141150 0.089030 0.552120 -0.483678
O4    O     O_R   0.410370 0.462480 0.550940 -0.544171
O5    O     O_R   0.036880 0.089030 0.447850 -0.526003
O6    O     O_R   0.053210 0.911000 0.464140 -0.494144
O7    O     O_R   0.948930 0.911000 0.359870 -0.498626
O8    O     O_R   0.963120 0.910970 0.552150 -0.523585
O9    O     O_R   0.858850 0.910970 0.447880 -0.454059
O10   O     O_R   0.590700 0.448490 0.539150 -0.484086
O11   O     O_R   0.589460 0.551510 0.641010 -0.445207
O12   O     O_R   0.046690 0.462500 0.906070 -0.454680
O13   O     O_R   0.589630 0.537520 0.449060 -0.434704
O14   O     O_R   0.588400 0.640540 0.550920 -0.516020
O15   O     O_R   0.410540 0.448490 0.358990 -0.503432
O16   O     O_R   0.409300 0.551510 0.460850 -0.516038
O17   O     O_R   0.943650 0.359510 0.906150 -0.543203
O18   O     O_3   0.789872 0.623661 0.689827 -0.490150
O19   O     O_3   0.254761 0.261892 0.653362 -0.554339
O20   O     O_3   0.160628 0.195335 0.423801 -0.573753
O21   O     O_3   0.249514 0.501340 0.164300 -0.580795
O22   O     O_3   0.976428 0.248684 0.594230 -0.527214
O23   O     O_R   0.852560 0.448570 0.904070 -0.519891
O24   O     O_3   0.047437 0.204681 0.771965 -0.588851
O25   O     O_3   0.010295 0.742997 0.396142 -0.559608
O26   O     O_3   0.956110 0.801886 0.227974 -0.552709
O27   O     O_3   0.730836 0.647141 0.794526 -0.482126
O28   O     O_3   0.620499 0.525331 0.776319 -0.587040
O29   O     O_R   0.955610 0.551560 0.903980 -0.435460
O30   O     O_R   0.941640 0.537630 0.082140 -0.477245
O31   O     O_R   0.044680 0.640620 0.082050 -0.493982
O32   O     O_R   0.032730 0.448570 0.084230 -0.500185
O33   O     O_R   0.135770 0.551560 0.084140 -0.504739
O34   O     O_R   0.051070 0.089000 0.640130 -0.503296

loop_
_geom_bond_atom_site_label_1
_geom_bond_atom_site_label_2
_ccdc_geom_bond_type
Cu1   O1    S    
C28   O16   A    
Cu6   O5    S    
C8    Cl6   S    
C27   C29   D    
C50   H43   S    
Cu5   Cu6   S    
Cu6   O7    S    
C42   O21   S    
C18   C26   S    
C40   H19   S    
C14   O32   A    
C18   O7    A    
C43   H27   S    
C44   H30   S    
C41   H20   S    
Cu5   O3    S    
C53   C54   S    
C4    O11   A    
C12   C23   S    
C30   C35   S    
C5    H45   S    
C37   H11   S    
C36   C37   S    
C9    C16   S    
C42   H24   S    
C38   C39   S    
C52   H49   S    
C2    C60   D    
C41   H22   S    
C4    O10   A    
C46   H31   S    
C11   O23   A    
C17   O3    A    
C26   O26   S    
C7    H56   S    
C56   O20   S    
C1    O4    A    
C34   H6    S    
C32   O18   S    
C47   O24   S    
C52   H48   S    
C23   Cl2   S    
C33   O28   S    
C45   C56   D    
C36   H8    S    
C2    O21   S    
C37   H10   S    
C39   H16   S    
C1    O1    A    
C32   Cl8   S    
C3    C60   S    
C13   O31   A    
C49   H40   S    
C4    C35   S    
Cu2   O16   S    
C11   O29   A    
C57   H59   S    
C41   H21   S    
Cu2   O11   S    
C58   H12   S    
C39   H17   S    
C44   H29   S    
C44   C46   S    
C51   H46   S    
C6    Cl5   S    
C45   C58   S    
Cu2   O4    S    
C19   O8    A    
C51   C52   S    
Cu1   O13   S    
Cu4   O33   S    
Cu6   O9    S    
C45   O19   S    
C43   H26   S    
C8    C9    D    
C13   O30   A    
C6    C8    S    
C10   C24   S    
C58   C59   D    
C47   H35   S    
C54   H54   S    
C34   Cl1   S    
C19   O9    A    
C38   H14   S    
C31   H64   S    
C32   C35   S    
C5    C28   S    
C3    H23   S    
C47   C48   S    
C36   H7    S    
Cu3   O17   S    
C46   H33   S    
C33   C34   S    
Cu3   O32   S    
Cu2   O14   S    
C51   O26   S    
C16   O14   A    
C40   H18   S    
Cu5   O34   S    
C17   C56   S    
C53   H51   S    
C53   O27   S    
C40   C41   S    
C49   H41   S    
C20   C22   S    
C55   H58   S    
C55   H57   S    
Cu3   O30   S    
C55   C57   S    
C12   C31   S    
C28   O15   A    
C44   O22   S    
Cu4   O29   S    
C22   C24   D    
C57   H60   S    
C42   C43   S    
C12   C34   S    
C27   H2    S    
C36   O18   S    
C31   H4    S    
C15   O2    A    
C13   C29   S    
C54   H55   S    
C21   O24   S    
Cu3   O23   S    
C30   H34   S    
C50   H44   S    
C59   Cl3   S    
C33   O27   S    
C38   O19   S    
C14   O33   A    
C3    C5    D    
C10   O17   A    
C11   C12   S    
C6    C7    D    
C24   H63   S    
C25   C27   S    
C47   H36   S    
C54   H53   S    
Cu5   O8    S    
C7    C19   S    
C17   O5    A    
C38   H13   S    
C60   Cl4   S    
Cu4   O31   S    
C1    C59   S    
C25   C26   D    
C43   H28   S    
C57   H61   S    
Cu3   Cu4   S    
C42   H25   S    
C23   C32   S    
C30   H1    S    
C52   H50   S    
C30   C31   S    
Cu6   O2    S    
C25   O25   S    
C51   H47   S    
C46   H32   S    
Cu4   O12   S    
C18   O6    A    
C33   C35   S    
C15   O34   A    
C16   O13   A    
C50   H42   S    
Cu1   Cu2   S    
C2    C14   S    
Cu1   O15   S    
C22   Cl7   S    
C49   O25   S    
C53   H52   S    
C40   O20   S    
C9    H62   S    
C15   C21   S    
C48   H37   S    
C29   H3    S    
C20   C21   D    
C49   C50   S    
C20   O22   S    
Cu1   O10   S    
C48   H38   S    
C37   H9    S    
C55   O28   S    
C23   H5    S    
C39   H15   S    
C10   O12   A    
C48   H39   S    
Cu5   O6    S    
