data_mof_unit_55231.cif
_audit_creation_date              2013-03-05T16:06:47-0500
_audit_creation_method            fapswitch 2.2
_symmetry_space_group_name_H-M    P1
_symmetry_Int_Tables_number       1
_space_group_crystal_system       triclinic
_cell_length_a                    7.038133
_cell_length_b                    14.446026
_cell_length_c                    16.267468
_cell_angle_alpha                 90.388858
_cell_angle_beta                  88.814808
_cell_angle_gamma                 89.368722
_cell_volume                      1653.4682085

loop_
_atom_site_label
_atom_site_type_symbol
_atom_site_description
_atom_site_fract_x
_atom_site_fract_y
_atom_site_fract_z
_atom_type_partial_charge
O1    O     O_R   0.505830 0.583360 0.413880 -0.604009
O2    O     O_R   0.175830 0.595460 0.585520 -0.558780
O3    O     O_R   0.005520 0.416640 0.586120 -0.604050
C1    C     C_R   0.341409 0.616915 0.614708 0.999039
O4    O     O_R   0.176120 0.594390 0.414490 -0.556345
O5    O     O_R   0.005810 0.415570 0.413870 -0.602576
C2    C     C_R   0.345385 0.617036 0.386860 0.938297
O6    O     O_R   0.505540 0.584430 0.586130 -0.599947
O7    O     O_3   0.339200 0.441330 0.500000 -0.292628
V1    V     V_3+5 0.064350 0.510880 0.500000 1.198323
O8    O     O_R   0.676100 0.404540 0.414480 -0.597441
C3    C     C_R   0.846449 0.382383 0.386269 0.921822
O9    O     O_R   0.675810 0.405610 0.585510 -0.600176
C4    C     C_R   0.844369 0.383943 0.613466 0.994318
V2    V     V_3+5 0.564340 0.489120 0.500000 1.156350
O10   O     O_3   0.839360 0.558670 0.500000 -0.239793
C5    C     C_2   0.723713 0.208578 0.786706 -0.078726
C6    C     C_2   0.886691 0.181588 0.822496 -0.464609
H1    H     H_    0.590055 0.179714 0.808330 0.136095
H2    H     H_    0.022068 0.209692 0.802957 0.154545
C7    C     C_2   0.710068 0.277073 0.718694 -0.091125
C8    C     C_2   0.860561 0.315663 0.680381 -0.449608
H3    H     H_    0.567877 0.295638 0.699452 0.133659
H4    H     H_    0.003699 0.297664 0.697995 0.157486
C9    C     C_R   0.725680 0.183432 0.242636 0.191039
C10   C     C_R   0.880278 0.180663 0.187130 -0.229599
C11   C     C_R   0.033945 0.239432 0.203549 -0.157225
H5    H     H_    0.157530 0.239242 0.163034 0.141872
C12   C     C_R   0.024689 0.303534 0.269214 -0.164953
H6    H     H_    0.141122 0.350732 0.277126 0.134843
C13   C     C_R   0.861214 0.311064 0.320335 -0.226298
C14   C     C_R   0.716023 0.247235 0.307292 0.189644
C15   C     C_3   0.508691 0.263669 0.296352 -0.477752
C16   C     C_3   0.519302 0.193905 0.226060 -0.474865
H7    H     H_    0.477239 0.335408 0.275942 0.183997
H8    H     H_    0.422447 0.239613 0.349926 0.204631
H9    H     H_    0.493697 0.225068 0.164920 0.188855
H10   H     H_    0.439681 0.129426 0.239111 0.201933
C17   C     C_R   0.497724 0.673625 0.740627 0.025240
C18   C     C_R   0.342035 0.675639 0.690539 -0.419143
C19   C     C_R   0.185928 0.729511 0.721383 0.417879
C20   C     C_R   0.201016 0.776970 0.798793 0.441559
C21   C     C_R   0.379558 0.802832 0.825885 -0.423727
C22   C     C_R   0.519286 0.738681 0.802702 -0.012591
C23   C     C_3   0.723039 0.739670 0.790169 -0.255427
C24   C     C_3   0.701342 0.671153 0.719838 -0.294454
H11   H     H_    0.777029 0.703929 0.843867 0.201313
H12   H     H_    0.774682 0.809388 0.772857 0.227755
H13   H     H_    0.767478 0.602270 0.731190 0.156653
H14   H     H_    0.725913 0.700020 0.657573 0.239519
C25   C     C_R   0.500421 0.751985 0.313916 0.091189
C26   C     C_R   0.352856 0.687900 0.321156 -0.253341
C27   C     C_R   0.203413 0.696786 0.265151 -0.077305
H15   H     H_    0.082886 0.651203 0.269222 0.117046
C28   C     C_R   0.213545 0.760542 0.199878 -0.185619
H16   H     H_    0.098584 0.763276 0.157280 0.130393
C29   C     C_R   0.375640 0.815556 0.187019 -0.205112
C30   C     C_R   0.513400 0.812005 0.247531 0.169070
C31   C     C_3   0.724239 0.804087 0.241451 -0.609179
C32   C     C_3   0.711353 0.741293 0.316539 0.212241
H17   H     H_    0.795078 0.871385 0.252171 0.233011
H18   H     H_    0.771207 0.766671 0.184571 0.173733
H19   H     H_    0.762021 0.669002 0.305671 0.058073
O11   O     O_R   0.229930 0.912420 0.917160 -0.544486
O12   O     O_R   0.559420 0.902500 0.088780 -0.591988
O13   O     O_R   0.729660 0.081330 0.089380 -0.593357
C33   C     C_R   0.389786 0.880574 0.116945 0.930856
O14   O     O_R   0.559650 0.901420 0.917750 -0.591933
O15   O     O_R   0.729880 0.080250 0.917130 -0.594349
C34   C     C_R   0.392732 0.876589 0.890971 0.991059
O16   O     O_R   0.229700 0.913500 0.089410 -0.603046
O17   O     O_3   0.396250 0.055540 0.003280 -0.290448
V3    V     V_3+5 0.671130 0.986010 0.003260 1.158029
O18   O     O_R   0.059600 0.091310 0.917720 -0.604853
C35   C     C_R   0.891536 0.113000 0.889704 1.010223
O19   O     O_R   0.059370 0.092380 0.088750 -0.598340
C36   C     C_R   0.889306 0.114460 0.117012 0.932116
V4    V     V_3+5 0.171120 0.007820 0.003230 1.156384
O20   O     O_3   0.896130 0.938240 0.003240 -0.264993
O21   O     O_3   0.038554 0.751432 0.670824 -0.644646
C37   C     C_3   0.089089 0.828317 0.621844 0.257244
H20   H     H_    0.158777 0.803141 0.563807 0.146369
H21   H     H_    0.187119 0.877329 0.652700 0.055145
C38   C     C_3   0.910297 0.882691 0.601048 -0.768334
H22   H     H_    0.847240 0.914836 0.657643 0.207173
H23   H     H_    0.946022 0.938264 0.556699 0.233061
H24   H     H_    0.804168 0.836227 0.573454 0.285523
O22   O     O_3   0.056689 0.775416 0.857299 -0.620890
C39   C     C_3   0.091146 0.701107 0.912836 0.251625
H25   H     H_    0.241273 0.696341 0.932960 0.073970
H26   H     H_    0.055577 0.633928 0.883344 0.075553
C40   C     C_3   0.970415 0.713904 0.990969 -0.892064
H27   H     H_    0.990729 0.653540 0.031961 0.188683
H28   H     H_    0.016263 0.776950 0.023481 0.274176
H29   H     H_    0.817059 0.721000 0.977699 0.244477
N1    N     N_R   0.788097 0.784781 0.390072 0.249001
O23   O     O_R   0.915091 0.741312 0.432420 -0.397678
O24   O     O_R   0.733374 0.867593 0.412984 -0.434283

loop_
_geom_bond_atom_site_label_1
_geom_bond_atom_site_label_2
_geom_bond_distance
_ccdc_geom_bond_type
C28   H16   1.076692 S    
C6    C35   1.481113 S    
C11   C12   1.408966 A    
C16   H9    1.111779 S    
C19   C20   1.436135 A    
C38   H24   1.109406 S    
C1    O6    1.316687 A    
C19   O21   1.372658 S    
C37   H20   1.111951 S    
C23   C24   1.518943 S    
C26   C27   1.411049 A    
C24   H13   1.112122 S    
C10   C11   1.411000 A    
C32   H19   1.111612 S    
O19   V4    1.989150 S    
C2    C26   1.485555 S    
O5    C3    1.311182 A    
V2    O10   2.190655 S    
C15   H8    1.111585 S    
O12   V3    2.001845 S    
O17   V4    1.734924 S    
C15   H7    1.111714 S    
O8    V2    1.989351 S    
C1    C18   1.492477 S    
O12   C33   1.312758 A    
N1    O24   1.302411 A    
O15   V3    2.000457 S    
O1    V2    2.005753 S    
O11   C34   1.313798 A    
C39   H26   1.112943 S    
O7    V1    2.169945 S    
C33   O16   1.307024 A    
C9    C16   1.489062 S    
O14   V3    2.021645 S    
C9    C14   1.393883 A    
C27   C28   1.411540 A    
C31   C32   1.528215 S    
C16   H10   1.111754 S    
O9    C4    1.314636 A    
C29   C33   1.484393 S    
C37   H21   1.117838 S    
C15   C16   1.519202 S    
C23   H11   1.090673 S    
C31   H17   1.111807 S    
C10   C36   1.483441 S    
O18   C35   1.311909 A    
C25   C26   1.402561 A    
C38   H22   1.110388 S    
C17   C18   1.379129 A    
O4    C2    1.310229 A    
V4    O20   2.190668 S    
O17   V3    2.169994 S    
C9    C10   1.399555 A    
C27   H15   1.080813 S    
O13   V3    2.009643 S    
C40   H29   1.108862 S    
C5    C7    1.493166 S    
O2    C1    1.307079 A    
C21   C22   1.388526 A    
C12   H6    1.080946 S    
C13   C14   1.402337 A    
O9    V2    2.013184 S    
N1    O23   1.298753 A    
C40   H28   1.104693 S    
C5    C6    1.351890 D    
V3    O20   1.720419 S    
C25   C30   1.391656 A    
O19   C36   1.308661 A    
C39   C40   1.523285 S    
O3    C4    1.304297 A    
C17   C24   1.465628 S    
C32   N1    1.463321 S    
C18   C19   1.420425 A    
O6    V2    1.991827 S    
C28   C29   1.410401 A    
C3    C13   1.483480 S    
C8    H4    1.082495 S    
C20   O22   1.378024 S    
C20   C21   1.394230 A    
O2    V1    2.021668 S    
C37   C38   1.521297 S    
C22   C23   1.444524 S    
C23   H12   1.110617 S    
O13   C36   1.312795 A    
C31   H18   1.110959 S    
O1    C2    1.310095 A    
O11   V4    1.992057 S    
C38   H23   1.110400 S    
O21   C37   1.415616 S    
O5    V1    2.009676 S    
O8    C3    1.310458 A    
C17   C22   1.386567 A    
C21   C34   1.501946 S    
C24   H14   1.108978 S    
C14   C15   1.490323 S    
C4    C8    1.479217 S    
C7    H3    1.086101 S    
C30   C31   1.488249 S    
O4    V1    2.001895 S    
C12   C13   1.408414 A    
O3    V1    2.000455 S    
V1    O10   1.720474 S    
C29   C30   1.396713 A    
C40   H27   1.111135 S    
C5    H1    1.086034 S    
O15   C35   1.308088 A    
C6    H2    1.082328 S    
O7    V2    1.735389 S    
O22   C39   1.429634 S    
O14   C34   1.314121 A    
O18   V4    2.013151 S    
C11   H5    1.080345 S    
C25   C32   1.492410 S    
C39   H25   1.114161 S    
C7    C8    1.345924 D    
O16   V4    2.007335 S    
