data_mof_unit_64178.cif
_audit_creation_date              2012-12-10T20:46:37-0500
_audit_creation_method            fapswitch 2.2
_symmetry_space_group_name_H-M    P1
_symmetry_Int_Tables_number       1
_space_group_crystal_system       triclinic
_cell_length_a                    15.455372
_cell_length_b                    19.197824
_cell_length_c                    19.215683
_cell_angle_alpha                 94.628211
_cell_angle_beta                  102.323958
_cell_angle_gamma                 97.115035
_cell_volume                      5493.3501802

loop_
_atom_site_label
_atom_site_type_symbol
_atom_type_description
_atom_site_fract_x
_atom_site_fract_y
_atom_site_fract_z
_atom_type_partial_charge
C1    C     C_R   0.509113 0.311409 0.493551 0.805912
C2    C     C_R   0.884510 0.523879 0.505001 -0.268736
C3    C     C_R   0.883420 0.566663 0.627553 0.003784
C4    C     C_R   0.491678 0.688418 0.506867 0.808034
C5    C     C_R   0.159064 0.450974 0.451514 -0.077221
C6    C     C_R   0.495129 0.765727 0.514284 -0.035984
C7    C     C_R   0.551222 0.807320 0.480325 -0.262541
C8    C     C_R   0.558931 0.880781 0.489499 -0.007918
C9    C     C_R   0.508819 0.913879 0.532527 0.222898
C10   C     C_R   0.454050 0.872358 0.567853 -0.017439
C11   C     C_R   0.446886 0.798700 0.558251 -0.258525
C12   C     C_R   0.020584 0.409166 0.364279 -0.183723
C13   C     C_R   0.548700 0.131971 0.549666 -0.159593
C14   C     C_R   0.553016 0.205134 0.551139 -0.222125
C15   C     C_R   0.501061 0.087462 0.487790 0.324336
C16   C     C_R   0.509895 0.508667 0.690973 0.795189
C17   C     C_R   0.509551 0.234774 0.491282 -0.003700
C18   C     C_R   0.463524 0.190322 0.429431 -0.205870
C19   C     C_R   0.460094 0.117400 0.427697 -0.187352
C20   C     C_R   0.483975 0.489209 0.231335 -0.001278
C21   C     C_R   0.549474 0.530657 0.205996 -0.217815
C22   C     C_R   0.542835 0.531501 0.132742 -0.168427
C23   C     C_R   0.970828 0.432943 0.411686 0.015887
C24   C     C_R   0.470044 0.490839 0.083161 0.320207
C25   C     C_R   0.404173 0.450163 0.108485 -0.192935
C26   C     C_R   0.411409 0.448642 0.182061 -0.214566
C27   C     C_R   0.448152 0.526632 0.870681 -0.168579
C28   C     C_R   0.490243 0.491037 0.308902 0.801305
C29   C     C_R   0.443893 0.528351 0.797533 -0.234357
C30   C     C_R   0.524488 0.507877 0.915605 0.325560
C31   C     C_R   0.515106 0.510522 0.768334 0.005199
C32   C     C_R   0.591326 0.492617 0.813504 -0.214635
C33   C     C_R   0.596384 0.492491 0.886673 -0.208542
C34   C     C_R   0.015454 0.471190 0.479399 0.030838
C35   C     C_R   0.741433 0.534640 0.535422 0.812047
C36   C     C_R   0.257900 0.464935 0.466940 0.786956
C37   C     C_R   0.973334 0.557920 0.648572 -0.243112
C38   C     C_R   0.838831 0.548302 0.555002 -0.059252
C39   C     C_R   0.113330 0.420301 0.382862 -0.212883
C40   C     C_R   0.836531 0.593434 0.682111 0.126864
C41   C     C_R   0.781959 0.646476 0.667967 -0.159803
C42   C     C_R   0.735698 0.669832 0.718360 -0.143040
C43   C     C_R   0.744146 0.641131 0.783583 -0.104602
C44   C     C_R   0.799073 0.589158 0.798612 -0.149762
C45   C     C_R   0.109578 0.471608 0.502023 0.074891
C46   C     C_R   0.844953 0.565231 0.748178 -0.137074
C47   C     C_1   0.403484 0.904765 0.613228 0.184815
C48   C     C_1   0.620880 0.921288 0.456251 0.192302
C49   C     C_1   0.876085 0.406845 0.392712 0.129178
C50   C     C_R   0.971277 0.506527 0.527089 0.081865
C51   C     C_R   0.016822 0.527345 0.599582 0.163688
C52   C     C_R   0.105220 0.516676 0.623112 -0.239663
C53   C     C_R   0.151190 0.489900 0.575140 -0.186286
H1    H     H_    0.582727 0.110487 0.596622 0.154662
H2    H     H_    0.359570 0.416796 0.200360 0.162565
H3    H     H_    0.647237 0.478837 0.792290 0.171259
H4    H     H_    0.594032 0.564631 0.114991 0.151199
H5    H     H_    0.655893 0.478976 0.920848 0.141935
H6    H     H_    0.605921 0.562675 0.242838 0.168253
H7    H     H_    0.008922 0.573358 0.703814 0.137915
H8    H     H_    0.849504 0.516843 0.449509 0.158963
H9    H     H_    0.149461 0.403519 0.343488 0.169594
H10   H     H_    0.987264 0.380945 0.312435 0.152289
H11   H     H_    0.218806 0.481201 0.597199 0.169472
H12   H     H_    0.404265 0.767235 0.585602 0.175848
H13   H     H_    0.589041 0.238367 0.599396 0.166840
H14   H     H_    0.775138 0.669724 0.617919 0.124892
H15   H     H_    0.693307 0.710235 0.706822 0.132249
H16   H     H_    0.708102 0.659112 0.822470 0.135501
H17   H     H_    0.805437 0.566895 0.849139 0.129547
H18   H     H_    0.885864 0.523955 0.760250 0.124936
H19   H     H_    0.429959 0.211886 0.382321 0.167822
H20   H     H_    0.424329 0.083872 0.379547 0.147323
H21   H     H_    0.590274 0.782691 0.447317 0.177094
H22   H     H_    0.384462 0.542380 0.763711 0.159638
H23   H     H_    0.392422 0.540402 0.892147 0.148608
H24   H     H_    0.347459 0.419155 0.071033 0.143178
H25   H     H_    0.139701 0.530244 0.678847 0.144591
N1    N     N_2   0.513545 0.988367 0.541299 -0.194527
N2    N     N_2   0.494846 0.012834 0.482656 -0.182873
N3    N     N_2   0.460301 0.490991 0.008002 -0.201740
N4    N     N_2   0.532827 0.506230 0.990268 -0.204423
N5    N     N_1   0.362932 0.930775 0.649614 -0.195739
N6    N     N_1   0.670524 0.953741 0.429620 -0.194811
N7    N     N_1   0.800312 0.385524 0.377310 -0.209766
O1    O     O_3   0.500000 0.500000 0.500000 -0.474901
O2    O     O_R   0.703360 0.489010 0.567610 -0.626787
O3    O     O_R   0.300660 0.429640 0.429680 -0.644133
O4    O     O_R   0.695340 0.566530 0.487850 -0.645143
O5    O     O_R   0.300650 0.514820 0.514850 -0.643871
O6    O     O_R   0.453370 0.540700 0.651360 -0.650191
O7    O     O_R   0.442100 0.444740 0.334100 -0.647013
O8    O     O_R   0.561930 0.354050 0.543340 -0.641937
O9    O     O_R   0.542600 0.660510 0.471200 -0.648781
O10   O     O_R   0.453390 0.335660 0.446330 -0.646096
O11   O     O_R   0.442080 0.649780 0.539130 -0.641458
O12   O     O_R   0.561920 0.473910 0.663190 -0.642591
O13   O     O_R   0.542610 0.540650 0.351350 -0.641771
Zn1   Zn    Zn3+2 0.425320 0.550450 0.550460 0.965075
Zn2   Zn    Zn3+2 0.580410 0.455020 0.567370 0.986430
Zn3   Zn    Zn3+2 0.568940 0.565780 0.453410 0.973975
Zn4   Zn    Zn3+2 0.425330 0.428750 0.428760 0.972481

loop_
_geom_bond_atom_site_label_1
_geom_bond_atom_site_label_2
_ccdc_geom_bond_type
C5    C36   S    
C33   H5    S    
C27   C29   A    
C41   C42   A    
C43   C44   A    
C26   H2    S    
C22   H4    S    
N3    N4    D    
C7    C8    A    
C41   H14   S    
C36   O3    A    
C16   C31   S    
C15   C19   A    
C12   C23   A    
C25   H24   S    
C21   H6    S    
C37   C51   A    
C53   H11   S    
C16   O12   A    
C23   C49   S    
C36   O5    A    
O11   Zn1   S    
C18   C19   A    
C9    N1    S    
C2    C50   A    
C4    O11   A    
C35   O2    A    
C15   N2    S    
C3    C38   A    
C8    C9    A    
C44   H17   S    
C47   N5    T    
O1    Zn2   S    
C9    C10   A    
C2    H8    S    
O7    Zn4   S    
C45   C53   A    
C43   H16   S    
C13   C14   A    
C27   C30   A    
C42   H15   S    
C14   C17   A    
C52   H25   S    
C44   C46   A    
C50   C51   A    
C7    H21   S    
C18   H19   S    
C34   C50   A    
C51   C52   A    
C49   N7    T    
C19   H20   S    
C35   C38   S    
C24   C25   A    
O9    Zn3   S    
C4    C6    S    
C6    C11   A    
C12   H10   S    
C20   C28   S    
C25   C26   A    
C5    C45   A    
C48   N6    T    
C30   N4    S    
C40   C46   A    
C24   N3    S    
C8    C48   S    
C2    C38   A    
C31   C32   A    
C1    O10   A    
C23   C34   A    
C17   C18   A    
C14   H13   S    
C28   O7    A    
C34   C45   A    
O1    Zn1   S    
O8    Zn2   S    
C46   H18   S    
C4    O9    A    
C35   O4    A    
C40   C41   A    
C3    C40   S    
C5    C39   A    
C22   C24   A    
C42   C43   A    
C27   H23   S    
O1    Zn4   S    
O5    Zn1   S    
O12   Zn2   S    
C52   C53   A    
O2    Zn2   S    
C28   O13   A    
C39   H9    S    
C30   C33   A    
O4    Zn3   S    
O3    Zn4   S    
O10   Zn4   S    
C6    C7    A    
C29   H22   S    
O13   Zn3   S    
C13   H1    S    
C1    C17   S    
C32   C33   A    
C12   C39   A    
C13   C15   A    
C29   C31   A    
C20   C26   A    
C37   H7    S    
C10   C11   A    
N1    N2    D    
C20   C21   A    
C3    C37   A    
C16   O6    A    
C1    O8    A    
C10   C47   S    
O6    Zn1   S    
C21   C22   A    
O1    Zn3   S    
C32   H3    S    
C11   H12   S    
