data_mof_unit_17082.cif
_audit_creation_date              2012-12-10T17:09:55-0500
_audit_creation_method            fapswitch 2.2
_symmetry_space_group_name_H-M    P1
_symmetry_Int_Tables_number       1
_space_group_crystal_system       triclinic
_cell_length_a                    10.846284
_cell_length_b                    13.043198
_cell_length_c                    11.685185
_cell_angle_alpha                 99.345214
_cell_angle_beta                  92.681882
_cell_angle_gamma                 91.758671
_cell_volume                      1628.14921505

loop_
_atom_site_label
_atom_site_type_symbol
_atom_type_description
_atom_site_fract_x
_atom_site_fract_y
_atom_site_fract_z
_atom_type_partial_charge
C1    C     C_R   0.502505 0.299708 0.478867 0.808709
C2    C     C_R   0.064582 0.490983 0.606704 0.046853
C3    C     C_R   0.127507 0.518219 0.510114 -0.165014
C4    C     C_R   0.057227 0.538977 0.411842 -0.034387
C5    C     C_R   0.929840 0.525725 0.407042 -0.224669
C6    C     C_R   0.870547 0.486007 0.494738 -0.120201
C7    C     C_R   0.471142 0.813247 0.528000 -0.232436
C8    C     C_R   0.507067 0.186813 0.466082 -0.163881
C9    C     C_R   0.541112 0.018839 0.350261 0.458575
C10   C     C_R   0.554058 0.127719 0.367171 -0.132826
C11   C     C_R   0.463755 0.138172 0.554844 -0.230225
C12   C     C_R   0.262335 0.508034 0.503076 0.794037
C13   C     C_R   0.462026 0.030012 0.545854 -0.022903
C14   C     C_R   0.495036 0.969589 0.440553 -0.011293
C15   C     C_R   0.480358 0.861152 0.428083 -0.117153
C16   C     C_R   0.436703 0.872885 0.632684 0.428551
C17   C     C_R   0.423791 0.980994 0.638402 -0.094643
C18   C     C_R   0.375213 0.409907 0.025367 -0.260331
C19   C     C_R   0.387808 0.416925 0.146484 0.108222
C20   C     C_R   0.557566 0.537814 0.155803 0.138919
C21   C     C_R   0.551667 0.529984 0.032311 -0.113004
C22   C     C_R   0.456593 0.467042 0.967491 0.003369
C23   C     C_R   0.490805 0.700362 0.520377 0.862523
C24   C     C_R   0.445794 0.461498 0.845721 -0.086865
C25   C     C_R   0.616689 0.581535 0.850186 0.597146
C26   C     C_R   0.638063 0.581521 0.971305 0.246485
C27   C     C_R   0.736954 0.492649 0.497857 0.814438
C28   C     C_R   0.117173 0.496896 0.721718 -0.000097
C29   C     C_R   0.064389 0.437510 0.797719 -0.215025
C30   C     C_R   0.953398 0.381794 0.765673 -0.169198
C31   C     C_R   0.888228 0.395090 0.664014 -0.126232
C32   C     C_R   0.940067 0.456264 0.587776 0.092396
Cu1   Cu    Cu3+1 0.509250 0.507730 0.615930 1.002112
Cu2   Cu    Cu3+1 0.490750 0.492270 0.384070 0.972341
H1    H     H_    0.432214 0.185879 0.631805 0.174517
H2    H     H_    0.374745 0.411436 0.794990 0.154999
H3    H     H_    0.302453 0.359786 0.977259 0.139769
H4    H     H_    0.325023 0.372118 0.190102 0.127931
H5    H     H_    0.105297 0.439162 0.884460 0.139092
H6    H     H_    0.912626 0.335838 0.824418 0.145526
H7    H     H_    0.797909 0.356804 0.645041 0.139708
H8    H     H_    0.876755 0.547221 0.334463 0.174393
N1    N     N_R   0.523180 0.519350 0.790130 -0.235076
N2    N     N_R   0.476820 0.480650 0.209890 -0.213864
O1    O     O_R   0.506570 0.354460 0.582000 -0.600091
O2    O     O_R   0.490940 0.341410 0.386200 -0.584731
O3    O     O_R   0.327470 0.506530 0.597920 -0.585737
O4    O     O_R   0.311840 0.493480 0.402120 -0.583879
O5    O     O_R   0.509060 0.658590 0.613800 -0.502305
O6    O     O_R   0.493430 0.645540 0.418000 -0.602859
O7    O     O_R   0.688160 0.506520 0.597880 -0.532578
O8    O     O_R   0.672530 0.493470 0.402080 -0.602092
C33   C     C_1   0.111723 0.580242 0.317268 0.268568
N3    N     N_1   0.155038 0.613263 0.241527 -0.273594
C34   C     C_1   0.368176 0.040310 0.737403 0.257432
N4    N     N_1   0.323684 0.088029 0.816107 -0.310875
C35   C     C_1   0.624697 0.177554 0.287769 0.308520
N5    N     N_1   0.681260 0.217556 0.224659 -0.290386
O9    O     O_3   0.696909 0.632271 0.786228 -0.551863
C36   C     C_3   0.739485 0.732239 0.841905 -0.220856
H9    H     H_    0.835587 0.728566 0.877587 0.205964
H10   H     H_    0.680664 0.768258 0.911663 0.142288
H11   H     H_    0.742128 0.784270 0.775754 0.160890
O10   O     O_3   0.744703 0.628976 0.028196 -0.586449
C37   C     C_3   0.839350 0.556897 0.016643 -0.325904
H12   H     H_    0.863501 0.537328 0.924624 0.195004
H13   H     H_    0.813672 0.485092 0.051608 0.153716
H14   H     H_    0.923040 0.593025 0.067382 0.209357
C38   C     C_1   0.641984 0.612448 0.226581 0.423457
N6    N     N_1   0.709177 0.673581 0.282216 -0.265069
C39   C     C_1   0.198742 0.582896 0.774366 0.282697
N7    N     N_1   0.263106 0.652107 0.817597 -0.231857
C40   C     C_1   0.448003 0.802736 0.313370 0.397482
N8    N     N_1   0.419930 0.756428 0.222258 -0.287999
O11   O     O_3   0.394021 0.821339 0.719022 -0.549792
C41   C     C_3   0.462420 0.852956 0.825420 -0.238798
H15   H     H_    0.408851 0.907694 0.884648 0.173229
H16   H     H_    0.555478 0.888558 0.816364 0.113095
H17   H     H_    0.474640 0.783689 0.867865 0.185419
O12   O     O_3   0.590695 0.960002 0.254585 -0.565750
C42   C     C_3   0.516877 0.966012 0.152901 -0.298005
H18   H     H_    0.544050 0.035183 0.114611 0.173518
H19   H     H_    0.416028 0.965757 0.167573 0.151391
H20   H     H_    0.533125 0.896787 0.087388 0.188152

loop_
_geom_bond_atom_site_label_1
_geom_bond_atom_site_label_2
_ccdc_geom_bond_type
C6    C32   A    
C34   N4    T    
C4    C33   S    
C16   O11   S    
Cu1   O1    S    
C40   N8    T    
C41   H17   S    
C12   O4    A    
C25   N1    A    
C42   H18   S    
C33   N3    T    
C27   O8    A    
C24   H2    S    
C36   H11   S    
C36   H10   S    
C28   C29   A    
C18   H3    S    
C41   H16   S    
C5    C6    A    
C1    O2    A    
C23   O5    A    
Cu1   O5    S    
C1    C8    S    
C2    C32   A    
C18   C19   A    
C26   O10   S    
C3    C12   S    
C42   H19   S    
C31   C32   A    
C16   C17   A    
C37   H13   S    
Cu2   O2    S    
C9    C10   A    
C17   C34   S    
C7    C15   A    
O9    C36   S    
C13   C14   A    
C12   O3    A    
C20   N2    A    
C21   C26   A    
C27   O7    A    
Cu2   O6    S    
Cu1   N1    S    
C10   C35   S    
Cu2   N2    S    
C41   H15   S    
C9    C14   A    
C4    C5    A    
C23   O6    A    
C25   C26   A    
C36   H9    S    
C9    O12   S    
O11   C41   S    
C29   C30   A    
C19   H4    S    
C6    C27   S    
C37   H14   S    
C29   H5    S    
Cu1   Cu2   S    
C30   H6    S    
C7    C16   A    
C15   C40   S    
Cu1   O3    S    
C22   C24   A    
C20   C38   S    
C28   C39   S    
Cu2   O4    S    
C3    C4    A    
C42   H20   S    
C19   N2    A    
C5    H8    S    
C31   H7    S    
C18   C22   A    
O12   C42   S    
Cu1   O7    S    
Cu2   O8    S    
C13   C17   A    
O10   C37   S    
C11   H1    S    
C2    C3    A    
C39   N7    T    
C11   C13   A    
C1    O1    A    
C35   N5    T    
C30   C31   A    
C8    C11   A    
C7    C23   S    
C38   N6    T    
C20   C21   A    
C8    C10   A    
C37   H12   S    
C24   N1    A    
C14   C15   A    
C2    C28   A    
C25   O9    S    
C21   C22   A    
