data_mof_unit_33044.cif
_audit_creation_date              2012-12-10T18:32:46-0500
_audit_creation_method            fapswitch 2.2
_symmetry_space_group_name_H-M    P1
_symmetry_Int_Tables_number       1
_space_group_crystal_system       triclinic
_cell_length_a                    14.994374
_cell_length_b                    15.111404
_cell_length_c                    15.729036
_cell_angle_alpha                 91.661648
_cell_angle_beta                  104.526683
_cell_angle_gamma                 80.367473
_cell_volume                      3401.08715285

loop_
_atom_site_label
_atom_site_type_symbol
_atom_type_description
_atom_site_fract_x
_atom_site_fract_y
_atom_site_fract_z
_atom_type_partial_charge
C1    C     C_R   0.440912 0.663412 0.484706 0.866486
C2    C     C_3   0.418532 0.456727 0.026411 -0.410206
C3    C     C_3   0.491345 0.510870 0.081238 0.299559
C4    C     C_3   0.589983 0.468475 0.071208 -0.442275
C5    C     C_3   0.593862 0.471217 0.974384 -0.467873
C6    C     C_1   0.492925 0.505461 0.173081 -0.120571
C7    C     C_1   0.500699 0.507893 0.825927 -0.116617
C8    C     C_1   0.502328 0.504430 0.750900 -0.207386
C9    C     C_R   0.405177 0.756825 0.455077 -0.107556
C10   C     C_R   0.597888 0.239295 0.510567 -0.131864
C11   C     C_R   0.290641 0.869613 0.359301 0.107913
C12   C     C_R   0.501100 0.500678 0.661598 0.897362
C13   C     C_R   0.316442 0.782986 0.398722 -0.215122
C14   C     C_R   0.468712 0.815911 0.470499 -0.253258
C15   C     C_R   0.452068 0.894032 0.420842 0.062990
C16   C     C_R   0.359754 0.926460 0.372398 0.116387
C17   C     C_R   0.524273 0.944785 0.426444 0.047738
C18   C     C_R   0.498944 0.038174 0.412344 0.064759
C19   C     C_R   0.406701 0.071627 0.363968 -0.210885
C20   C     C_R   0.339635 0.015456 0.340777 -0.256755
C21   C     C_R   0.620678 0.906594 0.445909 0.067689
C22   C     C_R   0.686417 0.962244 0.479573 -0.288494
C23   C     C_R   0.559463 0.336110 0.512632 0.859698
C24   C     C_R   0.659544 0.054955 0.490155 0.080639
C25   C     C_R   0.565638 0.093839 0.451105 0.055969
C26   C     C_R   0.723704 0.108654 0.539938 0.096002
C27   C     C_R   0.689991 0.200237 0.556093 0.063441
C28   C     C_R   0.538704 0.186032 0.458439 -0.289819
C29   C     C_R   0.854179 0.593411 0.662950 -0.327139
C30   C     C_R   0.759848 0.594513 0.626091 0.000659
C31   C     C_R   0.791711 0.514485 0.501777 -0.081265
C32   C     C_R   0.888460 0.510480 0.535764 0.000472
C33   C     C_R   0.918978 0.548642 0.619628 0.185761
C34   C     C_R   0.498792 0.499655 0.338420 0.910302
C35   C     C_R   0.955981 0.467793 0.491821 0.065241
C36   C     C_R   0.051488 0.471274 0.530185 0.080291
C37   C     C_R   0.078489 0.492250 0.619534 -0.238327
C38   C     C_R   0.013570 0.535193 0.662369 -0.236019
C39   C     C_R   0.933041 0.419968 0.412932 -0.247128
C40   C     C_R   0.002536 0.379953 0.372830 -0.205804
C41   C     C_R   0.094379 0.395442 0.404320 0.154859
C42   C     C_R   0.117801 0.448414 0.479572 -0.011857
C43   C     C_R   0.162166 0.361955 0.359556 -0.331566
C44   C     C_R   0.250342 0.386132 0.386476 -0.009002
C45   C     C_3   0.427105 0.450688 0.930837 -0.392208
C46   C     C_R   0.203040 0.483215 0.495286 0.166269
C47   C     C_3   0.470926 0.610535 0.946827 -0.041798
C48   C     C_3   0.468158 0.610493 0.046700 -0.058793
C49   C     C_1   0.495081 0.501926 0.248766 -0.197130
C50   C     C_3   0.496400 0.511300 0.916556 0.329088
H1    H     H_    0.429640 0.387735 0.054396 0.171273
H2    H     H_    0.644009 0.505074 0.111852 0.169059
H3    H     H_    0.270781 0.044437 0.302777 0.140684
H4    H     H_    0.468696 0.217610 0.427281 0.165785
H5    H     H_    0.268934 0.735127 0.385717 0.158413
H6    H     H_    0.532391 0.800234 0.521758 0.155022
H7    H     H_    0.384988 0.140353 0.341139 0.136066
H8    H     H_    0.037197 0.555862 0.729727 0.143648
H9    H     H_    0.303765 0.359156 0.353214 0.136651
H10   H     H_    0.983353 0.340910 0.314145 0.138880
H11   H     H_    0.876418 0.622887 0.726820 0.140949
H12   H     H_    0.709213 0.622985 0.661888 0.133323
H13   H     H_    0.762622 0.482922 0.441290 0.126438
H14   H     H_    0.533087 0.642236 0.947003 0.096395
H15   H     H_    0.149906 0.473575 0.657252 0.143438
H16   H     H_    0.528418 0.642028 0.083562 0.121236
H17   H     H_    0.607361 0.397489 0.095124 0.186268
N1    N     N_R   0.731690 0.552720 0.548990 -0.097052
N2    N     N_R   0.268300 0.447240 0.450950 -0.110498
O1    O     O_R   0.383120 0.605620 0.475300 -0.630768
O2    O     O_R   0.531890 0.639510 0.506740 -0.611413
O3    O     O_R   0.425580 0.483050 0.607130 -0.625604
O4    O     O_R   0.574360 0.516930 0.638570 -0.616210
O5    O     O_R   0.468110 0.360490 0.493260 -0.607538
O6    O     O_R   0.616880 0.394380 0.524700 -0.606805
O7    O     O_R   0.425640 0.483070 0.361430 -0.616141
O8    O     O_R   0.574420 0.516950 0.392870 -0.622831
Zn1   Zn    Zn3+2 0.400660 0.477370 0.479010 0.916948
Zn2   Zn    Zn3+2 0.599340 0.522630 0.520990 0.914704
H18   H     H_    0.346706 0.489292 0.027907 0.164203
H19   H     H_    0.453594 0.379694 0.917270 0.171061
C51   C     C_3   0.746229 0.251638 0.629517 -0.403927
C52   C     C_3   0.822321 0.291668 0.601472 -0.311009
C53   C     C_3   0.880344 0.337425 0.678477 -0.871346
H20   H     H_    0.836328 0.396257 0.699643 0.271291
H21   H     H_    0.910743 0.289667 0.734634 0.249026
H22   H     H_    0.938666 0.360276 0.658392 0.261031
H23   H     H_    0.870115 0.239354 0.576774 0.214943
H24   H     H_    0.790053 0.340968 0.547253 0.241491
H25   H     H_    0.700037 0.305955 0.654248 0.207302
H26   H     H_    0.776972 0.207182 0.688123 0.177160
H27   H     H_    0.758590 0.930745 0.499345 0.157237
C54   C     C_3   0.192253 0.901980 0.302898 -0.439479
C55   C     C_3   0.125451 0.832941 0.286296 -0.355625
C56   C     C_3   0.030221 0.872587 0.227921 -0.889353
H28   H     H_    0.997904 0.931759 0.259676 0.259925
H29   H     H_    0.037498 0.893168 0.163087 0.260049
H30   H     H_    0.983443 0.821415 0.217344 0.248271
H31   H     H_    0.155093 0.773211 0.253304 0.217826
H32   H     H_    0.115109 0.811769 0.349598 0.228274
H33   H     H_    0.160446 0.961137 0.335157 0.203214
H34   H     H_    0.197981 0.924058 0.237959 0.203827
H35   H     H_    0.357355 0.466315 0.884800 0.154198
C57   C     C_3   0.657234 0.810935 0.421756 -0.399811
C58   C     C_3   0.617060 0.791558 0.324523 -0.333352
C59   C     C_3   0.661333 0.699243 0.299495 -0.891328
H36   H     H_    0.737697 0.696135 0.308635 0.257668
H37   H     H_    0.629666 0.686215 0.229525 0.234546
H38   H     H_    0.649244 0.646246 0.340649 0.291429
H39   H     H_    0.540500 0.793397 0.311072 0.229335
H40   H     H_    0.630267 0.843468 0.282633 0.219624
H41   H     H_    0.734584 0.800915 0.433434 0.197042
H42   H     H_    0.644643 0.759504 0.463818 0.213078
C60   C     C_3   0.825995 0.066685 0.577896 -0.440132
C61   C     C_3   0.880371 0.055248 0.506148 -0.343728
C62   C     C_3   0.980377 0.007224 0.542152 -0.889695
H43   H     H_    0.018067 0.046241 0.596329 0.263713
H44   H     H_    0.980375 0.939108 0.566902 0.261490
H45   H     H_    0.017828 0.000323 0.489079 0.250272
H46   H     H_    0.845843 0.016446 0.450143 0.222164
H47   H     H_    0.882257 0.122079 0.479743 0.215865
H48   H     H_    0.863355 0.105997 0.631196 0.208131
H49   H     H_    0.830073 0.001584 0.610762 0.192596
C63   C     C_3   0.213651 0.571576 0.543222 -0.387007
C64   C     C_3   0.145377 0.650256 0.491217 -0.358380
C65   C     C_3   0.155462 0.738964 0.538620 -0.904540
H50   H     H_    0.137032 0.736880 0.602470 0.269512
H51   H     H_    0.228100 0.752374 0.549856 0.267358
H52   H     H_    0.107062 0.794728 0.498514 0.249857
H53   H     H_    0.158750 0.654936 0.425294 0.213631
H54   H     H_    0.072181 0.639191 0.481879 0.233590
H55   H     H_    0.284121 0.585537 0.553278 0.259831
H56   H     H_    0.207792 0.571562 0.611375 0.180571
H57   H     H_    0.862777 0.409634 0.382471 0.135725
H58   H     H_    0.146900 0.318193 0.303836 0.143215
C66   C     C_3   0.391785 0.673566 0.880962 -0.402289
C67   C     C_3   0.300882 0.636844 0.840117 -0.324481
C68   C     C_3   0.223316 0.711759 0.795244 -0.930336
H59   H     H_    0.204826 0.760899 0.844505 0.263581
H60   H     H_    0.246211 0.746904 0.745448 0.269099
H61   H     H_    0.160258 0.682887 0.762110 0.249794
H62   H     H_    0.312916 0.586657 0.789484 0.220384
H63   H     H_    0.276051 0.604390 0.890021 0.213104
H64   H     H_    0.375812 0.738772 0.912582 0.210062
H65   H     H_    0.420124 0.690268 0.825519 0.186458
C69   C     C_3   0.379351 0.665963 0.069800 -0.411418
C70   C     C_3   0.394732 0.760873 0.101127 -0.373717
C71   C     C_3   0.307281 0.814616 0.121787 -0.885542
H66   H     H_    0.248384 0.822838 0.061975 0.258500
H67   H     H_    0.287489 0.779972 0.173915 0.267239
H68   H     H_    0.321269 0.882100 0.145493 0.249423
H69   H     H_    0.452582 0.755859 0.161719 0.224889
H70   H     H_    0.414620 0.797567 0.050460 0.215452
H71   H     H_    0.316696 0.670377 0.014672 0.222112
H72   H     H_    0.360485 0.632964 0.123367 0.209750
H73   H     H_    0.616768 0.402006 0.953101 0.184450
H74   H     H_    0.647133 0.512001 0.967672 0.168453

loop_
_geom_bond_atom_site_label_1
_geom_bond_atom_site_label_2
_ccdc_geom_bond_type
C10   C27   A    
C14   H6    S    
C58   H39   S    
C65   H50   S    
C61   H47   S    
C47   C66   S    
O1    Zn1   S    
C41   C42   A    
C36   C42   A    
C56   H28   S    
C71   H68   S    
C67   H62   S    
C3    C6    S    
O2    Zn2   S    
C60   C61   S    
C56   H30   S    
C7    C8    T    
C19   H7    S    
C25   C28   A    
C26   C27   A    
C1    O2    A    
C63   H56   S    
C4    H2    S    
C40   H10   S    
C55   H31   S    
C36   C37   A    
O7    Zn1   S    
C34   O8    A    
C59   H36   S    
C44   H9    S    
C15   C16   A    
C29   C33   A    
C3    C48   S    
C62   H43   S    
C63   H55   S    
C18   C19   A    
C42   C46   A    
C9    C13   A    
C46   N2    A    
O3    Zn1   S    
C45   H35   S    
C70   C71   S    
C38   H8    S    
C21   C57   S    
C64   H53   S    
C69   H72   S    
C47   C48   S    
C37   H15   S    
C53   H22   S    
C24   C25   A    
C29   C30   A    
C66   H65   S    
C8    C12   S    
C11   C54   S    
N1    Zn2   S    
C52   H23   S    
C58   H40   S    
C21   C22   A    
C41   C43   A    
C46   C63   S    
N2    Zn1   S    
C18   C25   A    
C70   H70   S    
C57   C58   S    
C47   C50   S    
O8    Zn2   S    
C2    C45   S    
C31   N1    A    
C52   H24   S    
C29   H11   S    
C32   C35   A    
C31   H13   S    
C1    C9    S    
C71   H66   S    
C68   H59   S    
C54   H33   S    
C47   H14   S    
C57   H41   S    
C28   H4    S    
C20   H3    S    
C65   H52   S    
C17   C21   A    
C51   H26   S    
C48   C69   S    
C35   C36   A    
C35   C39   A    
C9    C14   A    
C26   C60   S    
C37   C38   A    
C11   C16   A    
C64   H54   S    
C52   C53   S    
C69   H71   S    
C55   H32   S    
C16   C20   A    
C17   C18   A    
O4    Zn2   S    
C44   N2    A    
C54   C55   S    
C53   H20   S    
C1    O1    A    
C43   H58   S    
C68   H60   S    
C60   H49   S    
C71   H67   S    
C40   C41   A    
C51   C52   S    
C5    H74   S    
C30   H12   S    
C43   C44   A    
C64   C65   S    
C22   C24   A    
C5    C50   S    
C23   O5    A    
C3    C4    S    
C39   C40   A    
C69   C70   S    
C67   C68   S    
C10   C28   A    
C15   C17   A    
C34   C49   S    
C65   H51   S    
C27   C51   S    
C31   C32   A    
C45   H19   S    
C24   C26   A    
C7    C50   S    
C23   O6    A    
C66   C67   S    
C68   H61   S    
C54   H34   S    
C4    H17   S    
C56   H29   S    
C10   C23   S    
C5    H73   S    
C58   C59   S    
C33   C38   A    
C51   H25   S    
C62   H45   S    
C32   C33   A    
C19   C20   A    
C70   H69   S    
C66   H64   S    
C11   C13   A    
C59   H37   S    
C45   C50   S    
C62   H44   S    
C2    C3    S    
C6    C49   T    
C67   H63   S    
C55   C56   S    
C12   O3    A    
C2    H18   S    
C2    H1    S    
C57   H42   S    
C60   H48   S    
C4    C5    S    
C61   H46   S    
O5    Zn1   S    
C22   H27   S    
C14   C15   A    
C53   H21   S    
C48   H16   S    
C12   O4    A    
O6    Zn2   S    
C59   H38   S    
C30   N1    A    
C61   C62   S    
C34   O7    A    
C63   C64   S    
C13   H5    S    
C39   H57   S    
