data_mof_unit_42843.cif
_audit_creation_date              2012-12-10T21:29:42-0500
_audit_creation_method            fapswitch 2.2
_symmetry_space_group_name_H-M    P1
_symmetry_Int_Tables_number       1
_space_group_crystal_system       triclinic
_cell_length_a                    10.60054
_cell_length_b                    16.050716
_cell_length_c                    16.853791
_cell_angle_alpha                 87.593894
_cell_angle_beta                  90.173532
_cell_angle_gamma                 91.970282
_cell_volume                      2863.38379894

loop_
_atom_site_label
_atom_site_type_symbol
_atom_type_description
_atom_site_fract_x
_atom_site_fract_y
_atom_site_fract_z
_atom_type_partial_charge
C1    C     C_R   0.503529 0.488726 0.652934 0.868566
C2    C     C_R   0.501301 0.511195 0.346977 0.857886
C3    C     C_R   0.525747 0.481292 0.737825 -0.027787
C4    C     C_R   0.512142 0.517817 0.261286 -0.028440
C5    C     C_R   0.566699 0.552091 0.777725 -0.233318
C6    C     C_R   0.486607 0.446906 0.217689 -0.229077
C7    C     C_R   0.590773 0.546063 0.858244 -0.162943
C8    C     C_R   0.506616 0.449920 0.136771 -0.163280
C9    C     C_R   0.572014 0.468962 0.900322 0.330660
C10   C     C_R   0.553014 0.524287 0.098241 0.329270
C11   C     C_R   0.537914 0.397545 0.859714 -0.213091
C12   C     C_R   0.575165 0.595637 0.141467 -0.191615
C13   C     C_R   0.514549 0.403463 0.778601 -0.214609
C14   C     C_R   0.555592 0.592519 0.222984 -0.248260
C15   C     C_R   0.436608 0.762863 0.462673 0.592250
C16   C     C_R   0.547551 0.235965 0.545687 0.597985
C17   C     C_R   0.438130 0.850410 0.467633 -0.415496
C18   C     C_R   0.539748 0.148163 0.543518 -0.413285
C19   C     C_R   0.523485 0.890770 0.519053 0.221500
C20   C     C_R   0.473298 0.109057 0.481903 0.223408
C21   C     C_R   0.603602 0.841015 0.566973 -0.097306
C22   C     C_R   0.411166 0.160009 0.424809 -0.099767
C23   C     C_R   0.737845 0.500946 0.484417 0.885041
C24   C     C_R   0.258785 0.499658 0.509413 0.889288
C25   C     C_R   0.598057 0.753769 0.560325 -0.167671
C26   C     C_R   0.417528 0.247247 0.431065 -0.167729
C27   C     C_R   0.879239 0.350670 0.442835 -0.132206
C28   C     C_R   0.114295 0.654312 0.530301 -0.062096
C29   C     C_R   0.933584 0.274235 0.460541 -0.200768
C30   C     C_R   0.061778 0.729742 0.506081 -0.148054
C31   C     C_R   0.039790 0.271007 0.509049 -0.180275
C32   C     C_R   0.953626 0.729728 0.459225 -0.210435
C33   C     C_R   0.098503 0.344844 0.533128 -0.128528
C34   C     C_R   0.892483 0.654347 0.442314 -0.123868
C35   C     C_R   0.052494 0.423498 0.507621 0.087784
C36   C     C_R   0.941346 0.577653 0.470500 0.090682
C37   C     C_R   0.933942 0.425370 0.471296 0.088367
C38   C     C_R   0.060608 0.577228 0.506143 0.075148
C39   C     C_R   0.121384 0.499980 0.516385 -0.270792
C40   C     C_R   0.872230 0.501602 0.466010 -0.267495
H1    H     H_    0.914699 0.788134 0.438269 0.141261
H2    H     H_    0.077937 0.211403 0.527002 0.143371
H3    H     H_    0.583934 0.111180 0.590279 0.175762
H4    H     H_    0.372301 0.886141 0.432179 0.177438
H5    H     H_    0.658188 0.714721 0.596915 0.167522
H6    H     H_    0.369775 0.286943 0.387931 0.167388
H7    H     H_    0.794891 0.351191 0.406447 0.150210
H8    H     H_    0.195353 0.657248 0.569277 0.147982
H9    H     H_    0.890224 0.217258 0.439419 0.136894
H10   H     H_    0.105876 0.788218 0.522987 0.137759
H11   H     H_    0.179277 0.339721 0.572202 0.152098
H12   H     H_    0.807023 0.656128 0.406978 0.143900
H13   H     H_    0.451914 0.388813 0.246131 0.159599
H14   H     H_    0.579894 0.612359 0.746909 0.163499
H15   H     H_    0.484672 0.394286 0.104524 0.147909
H16   H     H_    0.620002 0.602188 0.887780 0.148004
H17   H     H_    0.524017 0.337989 0.891686 0.137484
H18   H     H_    0.608590 0.653405 0.111901 0.135657
H19   H     H_    0.485648 0.347754 0.748267 0.183050
H20   H     H_    0.576866 0.647711 0.256047 0.145383
N1    N     N_2   0.572642 0.462424 0.983871 -0.209456
N2    N     N_2   0.569006 0.531084 0.015368 -0.210023
N3    N     N_R   0.515300 0.716920 0.509720 -0.128732
N4    N     N_R   0.484700 0.283080 0.490280 -0.126930
N5    N     N_2   0.532961 0.979907 0.523523 -0.170627
N6    N     N_2   0.462598 0.019967 0.477271 -0.168580
O1    O     O_R   0.494530 0.422540 0.612660 -0.571119
O2    O     O_R   0.505470 0.577460 0.387340 -0.609979
O3    O     O_R   0.504350 0.561840 0.618900 -0.635623
O4    O     O_R   0.495650 0.438160 0.381100 -0.636139
O5    O     O_R   0.678310 0.430340 0.496890 -0.602490
O6    O     O_R   0.321690 0.569660 0.503110 -0.571528
O7    O     O_R   0.688140 0.569650 0.503130 -0.620777
O8    O     O_R   0.311860 0.430350 0.496870 -0.621004
Zn1   Zn    Zn3+2 0.493440 0.406980 0.495830 0.966692
Zn2   Zn    Zn3+2 0.506560 0.593020 0.504170 0.963780
C41   C     C_R   0.692615 0.878760 0.624637 0.148728
C42   C     C_R   0.820063 0.857323 0.625899 -0.176092
C43   C     C_R   0.904337 0.893101 0.679722 -0.137678
C44   C     C_R   0.861937 0.949956 0.733341 -0.108278
C45   C     C_R   0.735076 0.970780 0.733462 -0.153510
C46   C     C_R   0.650587 0.935355 0.679529 -0.138959
H21   H     H_    0.854350 0.813481 0.584832 0.138471
H22   H     H_    0.002529 0.876686 0.679846 0.127794
H23   H     H_    0.927236 0.977626 0.774998 0.124944
H24   H     H_    0.702091 0.014184 0.775570 0.128818
H25   H     H_    0.552305 0.951500 0.681151 0.131118
C47   C     C_R   0.339508 0.123384 0.358376 0.143955
C48   C     C_R   0.213563 0.144353 0.344137 -0.172711
C49   C     C_R   0.145802 0.109402 0.281699 -0.139147
C50   C     C_R   0.203534 0.054033 0.232538 -0.105908
C51   C     C_R   0.329261 0.033790 0.245570 -0.151062
C52   C     C_R   0.397058 0.068100 0.308245 -0.136816
H26   H     H_    0.167553 0.187051 0.381763 0.139004
H27   H     H_    0.048554 0.125327 0.271397 0.128576
H28   H     H_    0.151085 0.027135 0.184131 0.124008
H29   H     H_    0.374566 0.991856 0.206872 0.122827
H30   H     H_    0.494709 0.052223 0.317162 0.131047
O9    O     O_3   0.606574 0.275625 0.607890 -0.628848
C53   C     C_3   0.733034 0.251602 0.618356 0.086884
H31   H     H_    0.794934 0.308650 0.610888 0.190955
H32   H     H_    0.765710 0.206762 0.574638 0.124249
C54   C     C_3   0.750441 0.214815 0.702599 -0.363851
H33   H     H_    0.727968 0.262329 0.746091 0.232827
H34   H     H_    0.684479 0.160175 0.712660 0.213716
C55   C     C_3   0.885518 0.187420 0.716221 -0.957499
H35   H     H_    0.908985 0.138671 0.674289 0.270448
H36   H     H_    0.895317 0.161123 0.777832 0.259477
H37   H     H_    0.953032 0.241512 0.707620 0.266946
O10   O     O_3   0.347269 0.721138 0.417500 -0.613726
C56   C     C_3   0.349016 0.749817 0.336876 0.071258
H38   H     H_    0.365367 0.695207 0.300416 0.178949
H39   H     H_    0.425651 0.797087 0.321267 0.101457
C57   C     C_3   0.220323 0.784082 0.314230 -0.335790
H40   H     H_    0.144948 0.736783 0.330862 0.248120
H41   H     H_    0.204058 0.841262 0.347129 0.215717
C58   C     C_3   0.211698 0.804701 0.225233 -0.971212
H42   H     H_    0.288596 0.849704 0.206218 0.259107
H43   H     H_    0.119599 0.832864 0.211284 0.263996
H44   H     H_    0.218998 0.747052 0.191528 0.268411

loop_
_geom_bond_atom_site_label_1
_geom_bond_atom_site_label_2
_ccdc_geom_bond_type
O5    Zn1   S    
C31   H2    S    
C27   C29   A    
C2    C4    S    
C56   H38   S    
O6    Zn2   S    
C57   H40   S    
C18   H3    S    
C49   H27   S    
C29   H9    S    
C41   C42   A    
C9    N1    S    
C20   N6    S    
C19   C21   A    
C37   C40   A    
C2    O2    A    
C58   H43   S    
C38   C39   A    
C55   H35   S    
C46   H25   S    
C24   C39   S    
O3    Zn2   S    
C7    C9    A    
C25   N3    A    
C48   H26   S    
C26   N4    A    
O10   C56   S    
C53   H31   S    
C33   C35   A    
C50   H28   S    
C42   H21   S    
C54   H34   S    
C32   H1    S    
C31   C33   A    
C22   C47   S    
C54   C55   S    
C18   C20   A    
C45   H24   S    
C3    C13   A    
C12   H18   S    
C30   H10   S    
C1    O1    A    
C15   O10   S    
C10   N2    S    
C7    H16   S    
C23   O7    A    
C8    H15   S    
C51   H29   S    
C45   C46   A    
O8    Zn1   S    
C23   O5    A    
C5    H14   S    
C36   C40   A    
C4    C6    A    
C58   H44   S    
C50   C51   A    
C5    C7    A    
C42   C43   A    
C6    C8    A    
C53   C54   S    
C1    O3    A    
C33   H11   S    
C1    C3    S    
C32   C34   A    
C35   C39   A    
C44   H23   S    
O9    C53   S    
C28   C38   A    
C53   H32   S    
C56   H39   S    
C9    C11   A    
C10   C12   A    
C8    C10   A    
C12   C14   A    
O7    Zn2   S    
O1    Zn1   S    
C6    H13   S    
C25   H5    S    
C54   H33   S    
C24   O6    A    
C27   H7    S    
C15   C17   A    
C21   C25   A    
C47   C52   A    
C28   H8    S    
C35   C37   A    
C20   C22   A    
C44   C45   A    
C3    C5    A    
C57   H41   S    
C16   O9    S    
C13   H19   S    
O2    Zn2   S    
C14   H20   S    
C34   H12   S    
C28   C30   A    
C17   H4    S    
C29   C31   A    
C2    O4    A    
C58   H42   S    
C30   C32   A    
C11   C13   A    
C24   O8    A    
C49   C50   A    
C43   H22   S    
C55   H36   S    
C41   C46   A    
C27   C37   A    
C36   C38   A    
C51   C52   A    
C17   C19   A    
N4    Zn1   S    
C19   N5    S    
C56   C57   S    
C34   C36   A    
C4    C14   A    
N1    N2    D    
C57   C58   S    
C26   H6    S    
C43   C44   A    
C47   C48   A    
C16   C18   A    
N5    N6    D    
C22   C26   A    
C21   C41   S    
O4    Zn1   S    
C15   N3    A    
N3    Zn2   S    
C16   N4    A    
C48   C49   A    
C11   H17   S    
C52   H30   S    
C23   C40   S    
C55   H37   S    
