data_mof_unit_52182.cif
_audit_creation_date              2012-12-11T16:05:09-0500
_audit_creation_method            fapswitch 2.2
_symmetry_space_group_name_H-M    P1
_symmetry_Int_Tables_number       1
_space_group_crystal_system       triclinic
_cell_length_a                    10.585659
_cell_length_b                    10.739775
_cell_length_c                    16.815805
_cell_angle_alpha                 98.891232
_cell_angle_beta                  98.06454
_cell_angle_gamma                 62.689277
_cell_volume                      1672.98798583

loop_
_atom_site_label
_atom_site_type_symbol
_atom_type_description
_atom_site_fract_x
_atom_site_fract_y
_atom_site_fract_z
_atom_type_partial_charge
C1    C     C_R   0.355574 0.778370 0.400499 0.561612
C2    C     C_3   0.376058 0.755095 0.250331 -0.158449
C3    C     C_3   0.339809 0.848784 0.329547 0.039900
C4    C     C_R   0.369628 0.345437 0.359882 0.524461
C5    C     C_3   0.398739 0.942574 0.304887 -0.140649
C6    C     C_3   0.249107 0.038326 0.266540 -0.168287
C7    C     C_3   0.193832 0.943466 0.294610 0.284547
C8    C     C_3   0.224735 0.847610 0.215019 -0.095728
C9    C     C_3   0.284076 0.939696 0.186511 0.011630
C10   C     C_3   0.449294 0.227171 0.769290 -0.141494
C11   C     C_3   0.404842 0.374663 0.744068 -0.157533
C12   C     C_3   0.622946 0.404285 0.225457 -0.151594
C13   C     C_3   0.337220 0.333033 0.663888 -0.012362
C14   C     C_3   0.384778 0.185783 0.688501 0.094893
C15   C     C_3   0.238856 0.240709 0.722648 0.008082
C16   C     C_R   0.702680 0.415563 0.390344 0.553134
C17   C     C_3   0.191035 0.390528 0.698278 -0.112549
C18   C     C_3   0.260454 0.427915 0.779558 0.288192
C19   C     C_3   0.302907 0.281845 0.802792 0.053138
C20   C     C_1   0.762870 0.370749 0.716886 -0.012741
C21   C     C_1   0.806944 0.332357 0.783642 -0.007225
C22   C     C_1   0.358035 0.764263 0.714191 -0.002917
C23   C     C_3   0.724617 0.390123 0.302482 0.026802
C24   C     C_1   0.326715 0.812798 0.781742 -0.010708
C25   C     C_R   0.878493 0.315148 0.083784 0.524939
C26   C     C_R   0.317102 0.296802 0.120789 0.522640
C27   C     C_R   0.254322 0.964978 0.099912 0.564634
C28   C     C_R   0.379004 0.715043 0.631398 0.546633
C29   C     C_R   0.876673 0.302526 0.863056 0.544116
C30   C     C_R   0.280418 0.253220 0.878352 0.579480
C31   C     C_R   0.281512 0.882385 0.859161 0.544906
C32   C     C_R   0.370432 0.349353 0.587572 0.529349
C33   C     C_R   0.716963 0.410865 0.635860 0.527852
C34   C     C_3   0.832617 0.248264 0.263837 -0.124548
C35   C     C_1   0.340106 0.331676 0.276350 -0.046600
C36   C     C_1   0.327071 0.321567 0.204874 -0.041564
C37   C     C_3   0.734643 0.264323 0.186072 -0.119553
C38   C     C_3   0.055452 0.101243 0.395622 -0.011262
C39   C     C_3   0.165247 0.087221 0.466555 -0.267784
C40   C     C_3   0.120107 0.231374 0.513683 -0.438359
C41   C     C_3   0.292987 0.585952 0.883877 0.031074
C42   C     C_3   0.393937 0.483741 0.944816 -0.285216
C43   C     C_3   0.495095 0.538596 0.992107 -0.478941
C44   C     C_3   0.901157 0.328277 0.232151 -0.104877
C45   C     C_3   0.790235 0.470173 0.268765 -0.083068
C46   C     C_3   0.690099 0.484360 0.191057 -0.114978
C47   C     C_3   0.802421 0.344117 0.155213 0.046626
C48   C     C_3   0.435005 0.848831 0.223743 0.089081
Cr1   Cr    Cr6+3 0.608340 0.611040 0.520430 1.045968
Cr2   Cr    Cr6+3 0.287650 0.601120 0.489350 1.040970
Cr3   Cr    Cr6+3 0.604040 0.287870 0.490280 1.039482
Cr4   Cr    Cr6+3 0.054020 0.052700 0.970850 1.032244
Cr5   Cr    Cr6+3 0.059230 0.375120 0.993390 1.054194
Cr6   Cr    Cr6+3 0.374950 0.061200 0.992340 1.043055
H1    H     H_    0.511024 0.423462 0.221124 0.103828
H2    H     H_    0.814643 0.555233 0.302062 0.164401
H3    H     H_    0.626336 0.572535 0.154437 0.152758
H4    H     H_    0.418202 0.641709 0.246667 0.104709
H5    H     H_    0.469662 0.980121 0.345019 0.163692
H6    H     H_    0.955692 0.129180 0.422376 0.210494
H7    H     H_    0.041932 0.189839 0.363798 0.127627
H8    H     H_    0.171124 0.010244 0.505873 0.223934
H9    H     H_    0.271909 0.055344 0.446491 0.162178
H10   H     H_    0.200688 0.220159 0.563404 0.177204
H11   H     H_    0.014694 0.269662 0.537862 0.206248
H12   H     H_    0.211288 0.153023 0.276102 0.086431
H13   H     H_    0.116444 0.309391 0.475872 0.154325
H14   H     H_    0.230089 0.684654 0.920815 0.204910
H15   H     H_    0.357584 0.604823 0.845676 0.105997
H16   H     H_    0.332272 0.471972 0.988780 0.204685
H17   H     H_    0.461096 0.379966 0.913583 0.174709
H18   H     H_    0.556869 0.556293 0.950573 0.160741
H19   H     H_    0.571070 0.458508 0.031856 0.143354
H20   H     H_    0.434879 0.638471 0.029786 0.183694
H21   H     H_    0.151065 0.808083 0.179964 0.152988
H22   H     H_    0.474069 0.428162 0.748528 0.075600
H23   H     H_    0.554349 0.159622 0.799326 0.159398
H24   H     H_    0.086807 0.459125 0.667969 0.158069
H25   H     H_    0.711380 0.180243 0.150255 0.154293
H26   H     H_    0.867862 0.144371 0.283960 0.188877
H27   H     H_    0.013714 0.305692 0.232610 0.106268
I1    I     I_    0.514270 0.990799 0.623570 -0.282366
I2    I     I_    0.118267 0.124142 0.701484 -0.359049
I3    I     I_    0.632664 0.828708 0.188706 -0.374008
O1    O     O_R   0.751220 0.499230 0.435170 -0.514872
O2    O     O_R   0.412990 0.180750 0.091610 -0.500673
O3    O     O_R   0.366620 0.943130 0.065760 -0.471305
O4    O     O_R   0.477220 0.727600 0.436870 -0.514129
O5    O     O_R   0.160510 0.906330 0.879210 -0.497660
O6    O     O_R   0.930190 0.179050 0.889450 -0.480828
O7    O     O_R   0.909140 0.398170 0.896710 -0.500087
O8    O     O_R   0.186190 0.363460 0.918830 -0.460367
O9    O     O_R   0.401670 0.173200 0.913310 -0.541451
O10   O     O_R   0.356120 0.936130 0.900470 -0.494596
O11   O     O_3   0.162740 0.163010 0.985530 -0.306202
O12   O     O_R   0.297880 0.469080 0.560050 -0.522591
O13   O     O_R   0.258650 0.745120 0.411470 -0.457887
O14   O     O_R   0.297070 0.467240 0.395960 -0.499811
O15   O     O_R   0.488830 0.252610 0.387790 -0.505871
O16   O     O_R   0.724400 0.302390 0.420980 -0.517000
O17   O     O_R   0.752100 0.501210 0.612190 -0.495227
O18   O     O_R   0.478040 0.729440 0.600970 -0.468999
O19   O     O_R   0.259530 0.747110 0.588490 -0.479307
O20   O     O_3   0.080177 0.978452 0.341853 -0.559589
O21   O     O_3   0.193136 0.546845 0.835411 -0.527370
O22   O     O_R   0.489720 0.254590 0.564810 -0.482079
O23   O     O_R   0.725220 0.304230 0.585080 -0.470801
O24   O     O_3   0.500010 0.500010 0.500020 -0.332851
O25   O     O_R   0.171830 0.913880 0.057510 -0.538562
O26   O     O_R   0.940690 0.186050 0.054730 -0.520924
O27   O     O_R   0.920470 0.405720 0.075010 -0.496531
O28   O     O_R   0.196690 0.370460 0.084120 -0.503065

loop_
_geom_bond_atom_site_label_1
_geom_bond_atom_site_label_2
_ccdc_geom_bond_type
C43   H19   S    
C11   C18   S    
C43   H18   S    
C23   C45   S    
C4    O14   A    
Cr5   O11   S    
C34   C37   S    
C41   C42   S    
C13   C32   S    
Cr4   O6    S    
C35   C36   T    
C33   O23   A    
C29   O7    A    
C6    C9    S    
C7    C8    S    
C45   C46   S    
C15   C19   S    
C37   H25   S    
C12   C23   S    
C41   O21   S    
C33   O17   A    
C30   O9    A    
C3    C7    S    
C11   H22   S    
Cr1   O17   S    
Cr6   O3    S    
C42   H16   S    
Cr4   O11   S    
C18   C19   S    
C12   C37   S    
C42   H17   S    
Cr6   O9    S    
C38   O20   S    
C34   H26   S    
C46   C47   S    
C45   H2    S    
C8    C9    S    
C31   O5    A    
C40   H13   S    
Cr5   O7    S    
C37   C47   S    
C25   C47   S    
C44   C47   S    
C38   H7    S    
Cr5   O27   S    
C43   H20   S    
C4    C35   S    
Cr2   O19   S    
C32   O22   A    
C13   C14   S    
Cr2   O24   S    
Cr1   O4    S    
Cr4   O5    S    
C29   O6    A    
C10   H23   S    
Cr1   O24   S    
Cr3   O15   S    
C38   C39   S    
C5    C48   S    
Cr2   O14   S    
Cr6   O10   S    
C5    H5    S    
Cr1   O1    S    
C34   C44   S    
C12   C46   S    
C44   H27   S    
C10   C14   S    
C1    O13   A    
Cr1   O18   S    
Cr6   O2    S    
C16   O16   A    
C15   I2    S    
C2    C48   S    
C21   C29   S    
C8    H21   S    
C48   I3    S    
C1    C3    S    
Cr4   O26   S    
C10   C19   S    
C26   O2    A    
C23   C34   S    
Cr5   O8    S    
C17   C18   S    
C27   O3    A    
Cr6   O11   S    
C25   O26   A    
C38   H6    S    
C20   C33   S    
Cr5   O28   S    
C30   O8    A    
C32   O12   A    
Cr3   O24   S    
C16   C23   S    
C7    O20   S    
C46   H3    S    
C16   O1    A    
C22   C24   T    
C42   C43   S    
C14   I1    S    
C26   O28   A    
C39   C40   S    
C44   C45   S    
C9    C27   S    
C41   H15   S    
C26   C36   S    
Cr3   O16   S    
C15   C17   S    
C39   H8    S    
C41   H14   S    
Cr2   O13   S    
C2    C8    S    
C3    C5    S    
C2    H4    S    
C6    C7    S    
C31   O10   A    
C39   H9    S    
C40   H10   S    
C13   C17   S    
C40   H11   S    
C2    C3    S    
C24   C31   S    
C11   C13   S    
C28   O19   A    
Cr2   O12   S    
C5    C6    S    
Cr4   O25   S    
C1    O4    A    
Cr3   O22   S    
C17   H24   S    
C18   O21   S    
C12   H1    S    
C10   C11   S    
C25   O27   A    
C28   O18   A    
C6    H12   S    
C20   C21   T    
C27   O25   A    
C9    C48   S    
Cr3   O23   S    
C4    O15   A    
C14   C15   S    
C22   C28   S    
C19   C30   S    
