data_mof_unit_23304.cif
_audit_creation_date              2012-12-10T17:18:31-0500
_audit_creation_method            fapswitch 2.2
_symmetry_space_group_name_H-M    P1
_symmetry_Int_Tables_number       1
_space_group_crystal_system       triclinic
_cell_length_a                    26.314555
_cell_length_b                    26.314324
_cell_length_c                    26.314495
_cell_angle_alpha                 89.99967
_cell_angle_beta                  90.000092
_cell_angle_gamma                 89.999749
_cell_volume                      18221.464857

loop_
_atom_site_label
_atom_site_type_symbol
_atom_type_description
_atom_site_fract_x
_atom_site_fract_y
_atom_site_fract_z
_atom_type_partial_charge
C1    C     C_R   0.749999 0.610057 0.750001 0.797995
C2    C     C_R   0.249999 0.389943 0.250002 0.798010
C3    C     C_R   0.750000 0.610057 0.250000 0.797993
C4    C     C_R   0.250000 0.389943 0.750000 0.797998
C5    C     C_R   0.249999 0.610058 0.250001 0.797987
C6    C     C_R   0.749999 0.389943 0.750001 0.797996
C7    C     C_R   0.250001 0.610057 0.750000 0.797978
C8    C     C_R   0.750000 0.389943 0.250000 0.797996
C9    C     C_R   0.610057 0.250000 0.250000 0.797994
C10   C     C_R   0.389943 0.749999 0.750000 0.797988
C11   C     C_R   0.610056 0.750003 0.249999 0.798035
C12   C     C_R   0.389943 0.250000 0.750000 0.797994
C13   C     C_R   0.610057 0.750000 0.750001 0.797995
C14   C     C_R   0.389943 0.250000 0.250000 0.797995
C15   C     C_R   0.610057 0.250000 0.750000 0.797992
C16   C     C_R   0.389942 0.750001 0.250001 0.797987
C17   C     C_R   0.250000 0.750000 0.389943 0.797987
C18   C     C_R   0.749999 0.249999 0.610057 0.798000
C19   C     C_R   0.750000 0.750000 0.389943 0.797988
C20   C     C_R   0.250003 0.249997 0.610057 0.797982
C21   C     C_R   0.749999 0.249999 0.389943 0.797996
C22   C     C_R   0.250000 0.750000 0.610057 0.797995
C23   C     C_R   0.250001 0.249997 0.389943 0.797999
C24   C     C_R   0.750000 0.750000 0.610057 0.798006
C25   C     C_R   0.249998 0.110057 0.750002 0.797992
C26   C     C_R   0.750000 0.889943 0.250001 0.798000
C27   C     C_R   0.750000 0.110057 0.750000 0.797983
C28   C     C_R   0.249999 0.889943 0.249999 0.797976
C29   C     C_R   0.750001 0.110057 0.250000 0.798002
C30   C     C_R   0.249999 0.889942 0.750002 0.797987
C31   C     C_R   0.250000 0.110057 0.250000 0.797983
C32   C     C_R   0.750001 0.889943 0.750001 0.798001
C33   C     C_R   0.110057 0.250000 0.750000 0.797989
C34   C     C_R   0.889943 0.750000 0.250001 0.798002
C35   C     C_R   0.110058 0.250000 0.249996 0.797949
C36   C     C_R   0.889943 0.749999 0.750000 0.798012
C37   C     C_R   0.110057 0.750000 0.250000 0.797984
C38   C     C_R   0.889943 0.250000 0.750000 0.797999
C39   C     C_R   0.110058 0.749998 0.749995 0.797962
C40   C     C_R   0.889943 0.250003 0.250005 0.798030
C41   C     C_R   0.250000 0.250000 0.889943 0.797994
C42   C     C_R   0.749999 0.750000 0.110057 0.798009
C43   C     C_R   0.250000 0.750000 0.889943 0.797978
C44   C     C_R   0.749999 0.250001 0.110057 0.797997
C45   C     C_R   0.750000 0.750000 0.889943 0.797996
C46   C     C_R   0.250000 0.250000 0.110057 0.797994
C47   C     C_R   0.749999 0.250001 0.889943 0.797991
C48   C     C_R   0.250000 0.750000 0.110057 0.797994
C49   C     C_R   0.546623 0.667627 0.702644 -0.302619
C50   C     C_R   0.453377 0.297354 0.332375 -0.302622
C51   C     C_R   0.702650 0.667623 0.453378 -0.302610
C52   C     C_R   0.332373 0.297355 0.546621 -0.302652
C53   C     C_R   0.453383 0.667626 0.297340 -0.302616
C54   C     C_R   0.546620 0.297359 0.667628 -0.302608
C55   C     C_R   0.297367 0.667633 0.546621 -0.302624
C56   C     C_R   0.667622 0.297352 0.453377 -0.302611
C57   C     C_R   0.546619 0.332371 0.297364 -0.302605
C58   C     C_R   0.453381 0.702642 0.667629 -0.302606
C59   C     C_R   0.702634 0.332367 0.546619 -0.302607
C60   C     C_R   0.332375 0.702648 0.453378 -0.302607
C61   C     C_R   0.453379 0.332375 0.702644 -0.302613
C62   C     C_R   0.546621 0.702639 0.332360 -0.302590
C63   C     C_R   0.297358 0.332367 0.453379 -0.302584
C64   C     C_R   0.667633 0.702632 0.546620 -0.302611
C65   C     C_R   0.667628 0.546620 0.297358 -0.302605
C66   C     C_R   0.297371 0.453382 0.667634 -0.302616
C67   C     C_R   0.667627 0.453378 0.702642 -0.302610
C68   C     C_R   0.297330 0.546631 0.332386 -0.302595
C69   C     C_R   0.332349 0.453382 0.297401 -0.302686
C70   C     C_R   0.702642 0.546620 0.667628 -0.302610
C71   C     C_R   0.332379 0.546624 0.702654 -0.302609
C72   C     C_R   0.702642 0.453378 0.332373 -0.302615
C73   C     C_R   0.046620 0.167624 0.702652 -0.302603
C74   C     C_R   0.953381 0.797387 0.332361 -0.302636
C75   C     C_R   0.702642 0.167628 0.953379 -0.302612
C76   C     C_R   0.332365 0.797375 0.046619 -0.302633
C77   C     C_R   0.953406 0.167689 0.297470 -0.302667
C78   C     C_R   0.046621 0.797345 0.667612 -0.302609
C79   C     C_R   0.297361 0.167630 0.046620 -0.302597
C80   C     C_R   0.667624 0.797359 0.953377 -0.302583
C81   C     C_R   0.046627 0.832382 0.297340 -0.302596
C82   C     C_R   0.953379 0.202636 0.667634 -0.302623
C83   C     C_R   0.702632 0.832368 0.046623 -0.302649
C84   C     C_R   0.332374 0.202647 0.953379 -0.302617
C85   C     C_R   0.953378 0.832361 0.702623 -0.302635
C86   C     C_R   0.046646 0.202759 0.332411 -0.302717
C87   C     C_R   0.297348 0.832378 0.953375 -0.302607
C88   C     C_R   0.667626 0.202641 0.046620 -0.302605
C89   C     C_R   0.167626 0.297357 0.953377 -0.302619
C90   C     C_R   0.797356 0.667626 0.046622 -0.302613
C91   C     C_R   0.167638 0.046625 0.297380 -0.302612
C92   C     C_R   0.797367 0.953380 0.667632 -0.302632
C93   C     C_R   0.167631 0.702640 0.046622 -0.302631
C94   C     C_R   0.797348 0.332380 0.953376 -0.302604
C95   C     C_R   0.167608 0.953371 0.702675 -0.302604
C96   C     C_R   0.797364 0.046627 0.332368 -0.302648
C97   C     C_R   0.832372 0.702645 0.953382 -0.302597
C98   C     C_R   0.202636 0.332372 0.046620 -0.302607
C99   C     C_R   0.832370 0.953380 0.297364 -0.302572
C100  C     C_R   0.202610 0.046614 0.667649 -0.302599
C101  C     C_R   0.832366 0.297367 0.046618 -0.302614
C102  C     C_R   0.202648 0.667624 0.953382 -0.302581
C103  C     C_R   0.832376 0.046624 0.702649 -0.302593
C104  C     C_R   0.202649 0.953376 0.332377 -0.302595
C105  C     C_R   0.297356 0.046622 0.832376 -0.302610
C106  C     C_R   0.667640 0.953384 0.202632 -0.302621
C107  C     C_R   0.046631 0.702689 0.832372 -0.302541
C108  C     C_R   0.953373 0.332364 0.202616 -0.302605
C109  C     C_R   0.702643 0.953379 0.832376 -0.302606
C110  C     C_R   0.332363 0.046619 0.202634 -0.302644
C111  C     C_R   0.953378 0.297366 0.832370 -0.302625
C112  C     C_R   0.046622 0.667623 0.202652 -0.302609
C113  C     C_R   0.702665 0.046623 0.167623 -0.302618
C114  C     C_R   0.332370 0.953380 0.797360 -0.302582
C115  C     C_R   0.953380 0.702634 0.167635 -0.302608
C116  C     C_R   0.046621 0.332375 0.797357 -0.302608
C117  C     C_R   0.297340 0.953380 0.167619 -0.302593
C118  C     C_R   0.667628 0.046620 0.797354 -0.302543
C119  C     C_R   0.046620 0.297344 0.167616 -0.302634
C120  C     C_R   0.953390 0.667646 0.797399 -0.302671
C121  C     C_R   0.546619 0.167632 0.202633 -0.302610
C122  C     C_R   0.453376 0.797351 0.832378 -0.302606
C123  C     C_R   0.202622 0.167628 0.453390 -0.302360
C124  C     C_R   0.832362 0.797386 0.546616 -0.302615
C125  C     C_R   0.453378 0.167624 0.797356 -0.302618
C126  C     C_R   0.546604 0.797466 0.167658 -0.302625
C127  C     C_R   0.797363 0.167627 0.546622 -0.302583
C128  C     C_R   0.167626 0.797358 0.453377 -0.302617
C129  C     C_R   0.546619 0.832368 0.797370 -0.302626
C130  C     C_R   0.453377 0.202652 0.167623 -0.302598
C131  C     C_R   0.202635 0.832369 0.546622 -0.302619
C132  C     C_R   0.832374 0.202649 0.453381 -0.302609
C133  C     C_R   0.453352 0.832417 0.202705 -0.302585
C134  C     C_R   0.546621 0.202636 0.832370 -0.302602
C135  C     C_R   0.797335 0.832383 0.453371 -0.302592
C136  C     C_R   0.167635 0.202655 0.546636 -0.302650
C137  C     C_R   0.167626 0.546622 0.797348 -0.302585
C138  C     C_R   0.797361 0.453379 0.167629 -0.302622
C139  C     C_R   0.167627 0.453377 0.202648 -0.302603
C140  C     C_R   0.797350 0.546624 0.832377 -0.302623
C141  C     C_R   0.832366 0.453381 0.797368 -0.302599
C142  C     C_R   0.202640 0.546618 0.167632 -0.302618
C143  C     C_R   0.832374 0.546622 0.202643 -0.302606
C144  C     C_R   0.202634 0.453380 0.832368 -0.302620
C145  C     C_R   0.521556 0.641881 0.663766 0.422627
C146  C     C_R   0.478443 0.336230 0.358124 0.422593
C147  C     C_R   0.663773 0.641874 0.478444 0.422619
C148  C     C_R   0.358115 0.336236 0.521558 0.422636
C149  C     C_R   0.478448 0.641877 0.336218 0.422625
C150  C     C_R   0.521551 0.336237 0.641881 0.422627
C151  C     C_R   0.336245 0.641887 0.521553 0.422648
C152  C     C_R   0.641872 0.336227 0.478445 0.422619
C153  C     C_R   0.521547 0.358118 0.336239 0.422609
C154  C     C_R   0.478452 0.663768 0.641880 0.422635
C155  C     C_R   0.663757 0.358114 0.521549 0.422629
C156  C     C_R   0.358128 0.663774 0.478447 0.422654
C157  C     C_R   0.478448 0.358124 0.663769 0.422627
C158  C     C_R   0.521552 0.663761 0.358105 0.422622
C159  C     C_R   0.336227 0.358121 0.478455 0.422621
C160  C     C_R   0.641886 0.663757 0.521549 0.422623
C161  C     C_R   0.641877 0.521549 0.336231 0.422624
C162  C     C_R   0.336247 0.478454 0.641889 0.422633
C163  C     C_R   0.641881 0.478446 0.663764 0.422624
C164  C     C_R   0.336204 0.521571 0.358145 0.422633
C165  C     C_R   0.358092 0.478462 0.336274 0.422626
C166  C     C_R   0.663769 0.521550 0.641878 0.422618
C167  C     C_R   0.358130 0.521558 0.663778 0.422609
C168  C     C_R   0.663764 0.478445 0.358118 0.422623
C169  C     C_R   0.021550 0.141870 0.663781 0.422653
C170  C     C_R   0.978456 0.836264 0.358103 0.422632
C171  C     C_R   0.663765 0.141880 0.978446 0.422636
C172  C     C_R   0.358107 0.836254 0.021549 0.422644
C173  C     C_R   0.978514 0.141967 0.336338 0.422702
C174  C     C_R   0.021549 0.836217 0.641859 0.422631
C175  C     C_R   0.336237 0.141883 0.021550 0.422644
C176  C     C_R   0.641871 0.836230 0.978449 0.422540
C177  C     C_R   0.021564 0.858139 0.336214 0.422625
C178  C     C_R   0.978448 0.163756 0.641891 0.422660
C179  C     C_R   0.663753 0.858114 0.021555 0.422516
C180  C     C_R   0.358123 0.163771 0.978447 0.422625
C181  C     C_R   0.978445 0.858105 0.663744 0.422630
C182  C     C_R   0.021621 0.163880 0.358187 0.422576
C183  C     C_R   0.336220 0.858132 0.978441 0.422642
C184  C     C_R   0.641878 0.163766 0.021550 0.422637
C185  C     C_R   0.141878 0.336235 0.978443 0.422620
C186  C     C_R   0.836236 0.641881 0.021555 0.422614
C187  C     C_R   0.141906 0.021560 0.336266 0.422621
C188  C     C_R   0.836240 0.978455 0.641882 0.422594
C189  C     C_R   0.141889 0.663759 0.021557 0.422663
C190  C     C_R   0.836225 0.358128 0.978442 0.422622
C191  C     C_R   0.141853 0.978433 0.663801 0.422601
C192  C     C_R   0.836254 0.021570 0.358103 0.422543
C193  C     C_R   0.858123 0.663771 0.978453 0.422635
C194  C     C_R   0.163761 0.358121 0.021548 0.422640
C195  C     C_R   0.858134 0.978463 0.336220 0.422573
C196  C     C_R   0.163733 0.021538 0.641910 0.422671
C197  C     C_R   0.858114 0.336241 0.021546 0.422628
C198  C     C_R   0.163777 0.641872 0.978454 0.422687
C199  C     C_R   0.858124 0.021557 0.663772 0.422609
C200  C     C_R   0.163788 0.978448 0.358138 0.422605
C201  C     C_R   0.336233 0.021553 0.858123 0.422634
C202  C     C_R   0.641895 0.978459 0.163758 0.422641
C203  C     C_R   0.021587 0.663806 0.858132 0.422658
C204  C     C_R   0.978449 0.358108 0.163742 0.422623
C205  C     C_R   0.663766 0.978450 0.858123 0.422600
C206  C     C_R   0.358103 0.021553 0.163751 0.422681
C207  C     C_R   0.978446 0.336243 0.858116 0.422617
C208  C     C_R   0.021554 0.641873 0.163777 0.422616
C209  C     C_R   0.663787 0.021560 0.141873 0.422608
C210  C     C_R   0.358117 0.978448 0.836238 0.422635
C211  C     C_R   0.978450 0.663758 0.141889 0.422627
C212  C     C_R   0.021552 0.358126 0.836230 0.422624
C213  C     C_R   0.336209 0.978453 0.141864 0.422711
C214  C     C_R   0.641880 0.021554 0.836234 0.422633
C215  C     C_R   0.021555 0.336218 0.141863 0.422630
C216  C     C_R   0.978480 0.641907 0.836267 0.422669
C217  C     C_R   0.521545 0.141885 0.163759 0.422617
C218  C     C_R   0.478443 0.836226 0.858129 0.422622
C219  C     C_R   0.163762 0.141879 0.478490 0.422750
C220  C     C_R   0.858104 0.836261 0.521536 0.422604
C221  C     C_R   0.478446 0.141875 0.836232 0.422627
C222  C     C_R   0.521504 0.836323 0.141922 0.422540
C223  C     C_R   0.836244 0.141885 0.521553 0.422631
C224  C     C_R   0.141876 0.836232 0.478446 0.422633
C225  C     C_R   0.521547 0.858114 0.836245 0.422634
C226  C     C_R   0.478442 0.163775 0.141874 0.422600
C227  C     C_R   0.163757 0.858116 0.521554 0.422660
C228  C     C_R   0.858129 0.163778 0.478453 0.422606
C229  C     C_R   0.478392 0.858184 0.163825 0.422590
C230  C     C_R   0.521552 0.163760 0.858118 0.422636
C231  C     C_R   0.836211 0.858139 0.478431 0.422608
C232  C     C_R   0.141876 0.163778 0.521580 0.422678
C233  C     C_R   0.141877 0.521556 0.836223 0.422652
C234  C     C_R   0.836237 0.478447 0.141882 0.422602
C235  C     C_R   0.141881 0.478442 0.163769 0.422623
C236  C     C_R   0.836231 0.521561 0.858121 0.422577
C237  C     C_R   0.858117 0.478457 0.836237 0.422605
C238  C     C_R   0.163766 0.521547 0.141882 0.422623
C239  C     C_R   0.858123 0.521552 0.163768 0.422611
C240  C     C_R   0.163758 0.478451 0.858112 0.422636
C241  C     C_R   0.474112 0.722344 0.713018 0.010358
C242  C     C_R   0.525888 0.286983 0.277658 0.010367
C243  C     C_R   0.713020 0.722340 0.525888 0.010361
C244  C     C_R   0.277657 0.286978 0.474110 0.010356
C245  C     C_R   0.525889 0.722349 0.286974 0.010331
C246  C     C_R   0.474112 0.286985 0.722346 0.010359
C247  C     C_R   0.286986 0.722349 0.474111 0.010354
C248  C     C_R   0.722338 0.286978 0.525888 0.010356
C249  C     C_R   0.474111 0.277652 0.286986 0.010360
C250  C     C_R   0.525889 0.713014 0.722349 0.010352
C251  C     C_R   0.713009 0.277648 0.474111 0.010358
C252  C     C_R   0.277658 0.713019 0.525888 0.010354
C253  C     C_R   0.525888 0.277654 0.713016 0.010352
C254  C     C_R   0.474114 0.713018 0.277643 0.010343
C255  C     C_R   0.286988 0.277647 0.525887 0.010353
C256  C     C_R   0.722350 0.713012 0.474112 0.010355
C257  C     C_R   0.722346 0.474111 0.286985 0.010352
C258  C     C_R   0.286990 0.525889 0.722352 0.010357
C259  C     C_R   0.722343 0.525888 0.713018 0.010361
C260  C     C_R   0.286971 0.474113 0.277675 0.010397
C261  C     C_R   0.277639 0.525891 0.286997 0.010353
C262  C     C_R   0.713013 0.474111 0.722348 0.010352
C263  C     C_R   0.277662 0.474112 0.713021 0.010359
C264  C     C_R   0.713016 0.525888 0.277655 0.010359
C265  C     C_R   0.974112 0.222343 0.713020 0.010348
C266  C     C_R   0.025890 0.786991 0.277647 0.010351
C267  C     C_R   0.713014 0.222346 0.025888 0.010361
C268  C     C_R   0.277650 0.786989 0.974110 0.010357
C269  C     C_R   0.025895 0.222408 0.287018 0.010274
C270  C     C_R   0.974110 0.786974 0.722331 0.010356
C271  C     C_R   0.286986 0.222349 0.974112 0.010351
C272  C     C_R   0.722340 0.786983 0.025888 0.010369
C273  C     C_R   0.974113 0.777665 0.286979 0.010381
C274  C     C_R   0.025888 0.213014 0.722351 0.010359
C275  C     C_R   0.713012 0.777655 0.974110 0.010382
C276  C     C_R   0.277657 0.213019 0.025888 0.010351
C277  C     C_R   0.025887 0.777644 0.713001 0.010383
C278  C     C_R   0.974120 0.213062 0.277713 0.010424
C279  C     C_R   0.286981 0.777662 0.025887 0.010360
C280  C     C_R   0.722344 0.213017 0.974112 0.010350
C281  C     C_R   0.222342 0.286984 0.025888 0.010362
C282  C     C_R   0.786982 0.722345 0.974112 0.010355
C283  C     C_R   0.222345 0.974110 0.286987 0.010365
C284  C     C_R   0.786988 0.025889 0.722350 0.010353
C285  C     C_R   0.222348 0.713015 0.974112 0.010352
C286  C     C_R   0.786978 0.277661 0.025888 0.010359
C287  C     C_R   0.222324 0.025886 0.713034 0.010344
C288  C     C_R   0.786982 0.974111 0.277662 0.010392
C289  C     C_R   0.777651 0.713014 0.025889 0.010352
C290  C     C_R   0.213014 0.277654 0.974111 0.010357
C291  C     C_R   0.777654 0.025889 0.286988 0.010340
C292  C     C_R   0.212999 0.974109 0.722368 0.010346
C293  C     C_R   0.777647 0.286990 0.974111 0.010361
C294  C     C_R   0.213017 0.722346 0.025889 0.010339
C295  C     C_R   0.777661 0.974112 0.713021 0.010372
C296  C     C_R   0.213016 0.025889 0.277662 0.010325
C297  C     C_R   0.286980 0.974112 0.777659 0.010350
C298  C     C_R   0.722360 0.025889 0.213013 0.010347
C299  C     C_R   0.974116 0.713023 0.777665 0.010389
C300  C     C_R   0.025886 0.277651 0.213008 0.010371
C301  C     C_R   0.713019 0.025888 0.777656 0.010326
C302  C     C_R   0.277645 0.974112 0.213012 0.010349
C303  C     C_R   0.025888 0.286986 0.777655 0.010363
C304  C     C_R   0.974112 0.722341 0.213022 0.010352
C305  C     C_R   0.713027 0.974113 0.222341 0.010360
C306  C     C_R   0.277650 0.025889 0.786990 0.010352
C307  C     C_R   0.025888 0.713012 0.222353 0.010356
C308  C     C_R   0.974111 0.277658 0.786984 0.010363
C309  C     C_R   0.286977 0.025888 0.222342 0.010338
C310  C     C_R   0.722349 0.974112 0.786988 0.010355
C311  C     C_R   0.974108 0.286982 0.222336 0.010376
C312  C     C_R   0.025892 0.722359 0.786982 0.010250
C313  C     C_R   0.474111 0.222351 0.213012 0.010350
C314  C     C_R   0.525887 0.786981 0.777662 0.010363
C315  C     C_R   0.213011 0.222356 0.525892 0.010221
C316  C     C_R   0.777643 0.786992 0.474109 0.010342
C317  C     C_R   0.525888 0.222341 0.786982 0.010357
C318  C     C_R   0.474101 0.787022 0.222380 0.010322
C319  C     C_R   0.786982 0.222345 0.474112 0.010362
C320  C     C_R   0.222342 0.786983 0.525888 0.010351
C321  C     C_R   0.474110 0.777650 0.786989 0.010357
C322  C     C_R   0.525888 0.213019 0.222341 0.010361
C323  C     C_R   0.213014 0.777653 0.474111 0.010363
C324  C     C_R   0.777653 0.213013 0.525889 0.010350
C325  C     C_R   0.525880 0.777709 0.213037 0.010488
C326  C     C_R   0.474111 0.213013 0.777653 0.010359
C327  C     C_R   0.786977 0.777668 0.525887 0.010381
C328  C     C_R   0.222323 0.213027 0.474109 0.010318
C329  C     C_R   0.222343 0.474112 0.786982 0.010355
C330  C     C_R   0.786986 0.525889 0.222347 0.010362
C331  C     C_R   0.222344 0.525887 0.213021 0.010364
C332  C     C_R   0.786977 0.474112 0.777663 0.010370
C333  C     C_R   0.777646 0.525889 0.786991 0.010348
C334  C     C_R   0.213014 0.474110 0.222352 0.010341
C335  C     C_R   0.777656 0.474112 0.213017 0.010360
C336  C     C_R   0.213015 0.525889 0.777650 0.010331
C337  C     C_R   0.446217 0.749998 0.750003 -0.091429
C338  C     C_R   0.553782 0.250000 0.250000 -0.091436
C339  C     C_R   0.750000 0.750002 0.553782 -0.091442
C340  C     C_R   0.249995 0.249998 0.446217 -0.091423
C341  C     C_R   0.553779 0.750020 0.250001 -0.091468
C342  C     C_R   0.446217 0.249999 0.750000 -0.091430
C343  C     C_R   0.250000 0.750001 0.446217 -0.091422
C344  C     C_R   0.749995 0.249996 0.553783 -0.091435
C345  C     C_R   0.446217 0.250001 0.250000 -0.091429
C346  C     C_R   0.553783 0.749998 0.750004 -0.091432
C347  C     C_R   0.749996 0.249997 0.446217 -0.091429
C348  C     C_R   0.250000 0.750000 0.553783 -0.091429
C349  C     C_R   0.553783 0.249998 0.749999 -0.091433
C350  C     C_R   0.446215 0.750011 0.250006 -0.091415
C351  C     C_R   0.250003 0.249998 0.553784 -0.091386
C352  C     C_R   0.749998 0.750000 0.446217 -0.091425
C353  C     C_R   0.750001 0.446217 0.250001 -0.091429
C354  C     C_R   0.250002 0.553783 0.750001 -0.091416
C355  C     C_R   0.749996 0.553783 0.750003 -0.091427
C356  C     C_R   0.249996 0.446217 0.250010 -0.091429
C357  C     C_R   0.249994 0.553783 0.250005 -0.091423
C358  C     C_R   0.749996 0.446217 0.750005 -0.091433
C359  C     C_R   0.250002 0.446217 0.750001 -0.091427
C360  C     C_R   0.750001 0.553783 0.250001 -0.091431
C361  C     C_R   0.946217 0.250000 0.750001 -0.091428
C362  C     C_R   0.053783 0.750000 0.250001 -0.091425
C363  C     C_R   0.749997 0.250003 0.053782 -0.091433
C364  C     C_R   0.249999 0.750001 0.946217 -0.091419
C365  C     C_R   0.053783 0.250015 0.250001 -0.091387
C366  C     C_R   0.946218 0.749997 0.749999 -0.091430
C367  C     C_R   0.250000 0.250001 0.946217 -0.091424
C368  C     C_R   0.749996 0.749999 0.053782 -0.091440
C369  C     C_R   0.946218 0.750002 0.250001 -0.091436
C370  C     C_R   0.053783 0.250000 0.750002 -0.091426
C371  C     C_R   0.749998 0.750000 0.946217 -0.091440
C372  C     C_R   0.249999 0.250001 0.053782 -0.091432
C373  C     C_R   0.053783 0.749998 0.749989 -0.091409
C374  C     C_R   0.946218 0.250013 0.250018 -0.091459
C375  C     C_R   0.250000 0.750003 0.053782 -0.091424
C376  C     C_R   0.749997 0.250002 0.946217 -0.091427
C377  C     C_R   0.249995 0.946217 0.249999 -0.091412
C378  C     C_R   0.750002 0.053783 0.750001 -0.091432
C379  C     C_R   0.249991 0.053782 0.750008 -0.091430
C380  C     C_R   0.750002 0.946217 0.250003 -0.091435
C381  C     C_R   0.750004 0.053783 0.250002 -0.091423
C382  C     C_R   0.249994 0.946216 0.750009 -0.091414
C383  C     C_R   0.750004 0.946217 0.750003 -0.091428
C384  C     C_R   0.249997 0.053783 0.250001 -0.091420
H1    H     H_    0.580795 0.650864 0.718004 0.208964
H2    H     H_    0.419204 0.281992 0.349136 0.208963
H3    H     H_    0.718011 0.650862 0.419204 0.208960
H4    H     H_    0.349136 0.281997 0.580795 0.208967
H5    H     H_    0.419209 0.650866 0.281980 0.208960
H6    H     H_    0.580791 0.281996 0.650864 0.208957
H7    H     H_    0.282009 0.650868 0.580794 0.208974
H8    H     H_    0.650861 0.281992 0.419203 0.208961
H9    H     H_    0.580791 0.349135 0.282006 0.208965
H10   H     H_    0.419209 0.718003 0.650865 0.208961
H11   H     H_    0.717996 0.349133 0.580790 0.208964
H12   H     H_    0.349136 0.718009 0.419205 0.208962
H13   H     H_    0.419207 0.349137 0.718006 0.208959
H14   H     H_    0.580789 0.718002 0.349129 0.208961
H15   H     H_    0.281995 0.349131 0.419208 0.208961
H16   H     H_    0.650868 0.717991 0.580792 0.208970
H17   H     H_    0.650864 0.580793 0.281998 0.208963
H18   H     H_    0.282013 0.419210 0.650868 0.208972
H19   H     H_    0.650863 0.419206 0.718003 0.208961
H20   H     H_    0.281963 0.580804 0.349142 0.208949
H21   H     H_    0.349112 0.419198 0.282071 0.209041
H22   H     H_    0.718004 0.580793 0.650865 0.208963
H23   H     H_    0.349139 0.580797 0.718017 0.208957
H24   H     H_    0.718003 0.419205 0.349136 0.208964
H25   H     H_    0.080794 0.150863 0.718014 0.208952
H26   H     H_    0.919201 0.782043 0.349127 0.209001
H27   H     H_    0.718005 0.150864 0.919207 0.208962
H28   H     H_    0.349130 0.782021 0.080794 0.208983
H29   H     H_    0.919233 0.150902 0.282140 0.209037
H30   H     H_    0.080797 0.781988 0.650854 0.208952
H31   H     H_    0.281996 0.150864 0.080790 0.208951
H32   H     H_    0.650862 0.781999 0.919203 0.208959
H33   H     H_    0.080799 0.849140 0.281972 0.208953
H34   H     H_    0.919206 0.217995 0.650869 0.208970
H35   H     H_    0.717990 0.849132 0.080797 0.208978
H36   H     H_    0.349136 0.218009 0.919206 0.208961
H37   H     H_    0.919209 0.849129 0.717986 0.208973
H38   H     H_    0.080807 0.218144 0.349120 0.208973
H39   H     H_    0.281984 0.849138 0.919202 0.208959
H40   H     H_    0.650863 0.218001 0.080793 0.208961
H41   H     H_    0.150864 0.281996 0.919204 0.208965
H42   H     H_    0.781994 0.650862 0.080793 0.208957
H43   H     H_    0.150872 0.080798 0.282027 0.208999
H44   H     H_    0.782010 0.919207 0.650869 0.208971
H45   H     H_    0.150867 0.718001 0.080793 0.208969
H46   H     H_    0.781988 0.349141 0.919200 0.208958
H47   H     H_    0.150852 0.919197 0.718040 0.208947
H48   H     H_    0.782005 0.080799 0.349132 0.208980
H49   H     H_    0.849136 0.718009 0.919211 0.208954
H50   H     H_    0.217996 0.349136 0.080792 0.208965
H51   H     H_    0.849128 0.919202 0.282010 0.208975
H52   H     H_    0.217971 0.080783 0.650876 0.208974
H53   H     H_    0.849131 0.282006 0.080790 0.208969
H54   H     H_    0.218008 0.650863 0.919208 0.208956
H55   H     H_    0.849138 0.080795 0.718014 0.208953
H56   H     H_    0.218009 0.919200 0.349134 0.208970
H57   H     H_    0.281995 0.080795 0.849140 0.208960
H58   H     H_    0.650873 0.919213 0.217990 0.208966
H59   H     H_    0.080770 0.718107 0.849130 0.208893
H60   H     H_    0.919197 0.349132 0.217966 0.208984
H61   H     H_    0.718003 0.919206 0.849140 0.208962
H62   H     H_    0.349132 0.080788 0.217997 0.208966
H63   H     H_    0.919204 0.282008 0.849133 0.208973
H64   H     H_    0.080795 0.650862 0.218013 0.208960
H65   H     H_    0.718028 0.080797 0.150865 0.208957
H66   H     H_    0.349137 0.919208 0.781993 0.208952
H67   H     H_    0.919209 0.717995 0.150868 0.208966
H68   H     H_    0.080794 0.349137 0.781996 0.208962
H69   H     H_    0.281977 0.919207 0.150859 0.208948
H70   H     H_    0.650859 0.080783 0.781970 0.208919
H71   H     H_    0.080795 0.281984 0.150860 0.208956
H72   H     H_    0.919211 0.650880 0.782064 0.209017
H73   H     H_    0.580791 0.150866 0.217991 0.208970
H74   H     H_    0.419203 0.781988 0.849139 0.208959
H75   H     H_    0.218041 0.150809 0.419280 0.208792
H76   H     H_    0.849132 0.782034 0.580791 0.208978
H77   H     H_    0.419205 0.150862 0.781996 0.208963
H78   H     H_    0.580800 0.782152 0.150863 0.209015
H79   H     H_    0.781997 0.150857 0.580793 0.208944
H80   H     H_    0.150866 0.782000 0.419203 0.208972
H81   H     H_    0.580791 0.849133 0.782012 0.208973
H82   H     H_    0.419205 0.218017 0.150861 0.208953
H83   H     H_    0.217995 0.849134 0.580794 0.208971
H84   H     H_    0.849135 0.218013 0.419210 0.208950
H85   H     H_    0.419179 0.849162 0.218082 0.208926
H86   H     H_    0.580794 0.217998 0.849134 0.208962
H87   H     H_    0.781967 0.849140 0.419199 0.208958
H88   H     H_    0.150880 0.218048 0.580788 0.208958
H89   H     H_    0.150865 0.580794 0.781983 0.208965
H90   H     H_    0.782001 0.419206 0.150866 0.208967
H91   H     H_    0.150863 0.419206 0.218012 0.208957
H92   H     H_    0.781989 0.580798 0.849138 0.208964
H93   H     H_    0.849129 0.419207 0.782011 0.208975
H94   H     H_    0.217998 0.580792 0.150868 0.208966
H95   H     H_    0.849136 0.580795 0.218003 0.208962
H96   H     H_    0.217992 0.419207 0.849133 0.208970
O1    O     O_3   0.750000 0.750000 0.750000 -0.495389
O2    O     O_3   0.250000 0.250000 0.250000 -0.495404
O3    O     O_3   0.750000 0.750000 0.250000 -0.495386
O4    O     O_3   0.250000 0.250000 0.750000 -0.495395
O5    O     O_3   0.250000 0.750000 0.250000 -0.495400
O6    O     O_3   0.750000 0.250000 0.750000 -0.495394
O7    O     O_3   0.250000 0.750000 0.750000 -0.495403
O8    O     O_3   0.750000 0.250000 0.250000 -0.495387
O9    O     O_R   0.719640 0.634190 0.719640 -0.646041
O10   O     O_R   0.280360 0.365810 0.280360 -0.646084
O11   O     O_R   0.719640 0.634190 0.280360 -0.646039
O12   O     O_R   0.280360 0.365810 0.719640 -0.646046
O13   O     O_R   0.280360 0.634190 0.280360 -0.646031
O14   O     O_R   0.719640 0.365810 0.719640 -0.646039
O15   O     O_R   0.280360 0.634190 0.719640 -0.646041
O16   O     O_R   0.719640 0.365810 0.280360 -0.646041
O17   O     O_R   0.634190 0.280360 0.280360 -0.646042
O18   O     O_R   0.365810 0.719640 0.719640 -0.646039
O19   O     O_R   0.634190 0.719640 0.280360 -0.646027
O20   O     O_R   0.365810 0.280360 0.719640 -0.646041
O21   O     O_R   0.634190 0.719640 0.719640 -0.646040
O22   O     O_R   0.365810 0.280360 0.280360 -0.646049
O23   O     O_R   0.634190 0.280360 0.719640 -0.646040
O24   O     O_R   0.365810 0.719640 0.280360 -0.646038
O25   O     O_R   0.280360 0.719640 0.365810 -0.646037
O26   O     O_R   0.719640 0.280360 0.634190 -0.646043
O27   O     O_R   0.719640 0.719640 0.365810 -0.646039
O28   O     O_R   0.280360 0.280360 0.634190 -0.646043
O29   O     O_R   0.719640 0.280360 0.365810 -0.646039
O30   O     O_R   0.280360 0.719640 0.634190 -0.646044
O31   O     O_R   0.280360 0.280360 0.365810 -0.646063
O32   O     O_R   0.719640 0.719640 0.634190 -0.646041
O33   O     O_R   0.219640 0.134190 0.719640 -0.646047
O34   O     O_R   0.780360 0.865810 0.280360 -0.646046
O35   O     O_R   0.719640 0.134190 0.780360 -0.646021
O36   O     O_R   0.280360 0.865810 0.219640 -0.646028
O37   O     O_R   0.780360 0.134190 0.280360 -0.646064
O38   O     O_R   0.219640 0.865810 0.719640 -0.646030
O39   O     O_R   0.280360 0.134190 0.219640 -0.646041
O40   O     O_R   0.719640 0.865810 0.780360 -0.646038
O41   O     O_R   0.219640 0.865810 0.280360 -0.646041
O42   O     O_R   0.780360 0.134190 0.719640 -0.646045
O43   O     O_R   0.719640 0.865810 0.219640 -0.646053
O44   O     O_R   0.280360 0.134190 0.780360 -0.646038
O45   O     O_R   0.780360 0.865810 0.719640 -0.646051
O46   O     O_R   0.219640 0.134190 0.280360 -0.646043
O47   O     O_R   0.280360 0.865810 0.780360 -0.646041
O48   O     O_R   0.719640 0.134190 0.219640 -0.646033
O49   O     O_R   0.134190 0.280360 0.780360 -0.646043
O50   O     O_R   0.865810 0.719640 0.219640 -0.646039
O51   O     O_R   0.134190 0.219640 0.280360 -0.646015
O52   O     O_R   0.865810 0.780360 0.719640 -0.646049
O53   O     O_R   0.134190 0.719640 0.219640 -0.646038
O54   O     O_R   0.865810 0.280360 0.780360 -0.646046
O55   O     O_R   0.134190 0.780360 0.719640 -0.646043
O56   O     O_R   0.865810 0.219640 0.280360 -0.646083
O57   O     O_R   0.865810 0.719640 0.780360 -0.646062
O58   O     O_R   0.134190 0.280360 0.219640 -0.646046
O59   O     O_R   0.865810 0.780360 0.280360 -0.646062
O60   O     O_R   0.134190 0.219640 0.719640 -0.646027
O61   O     O_R   0.865810 0.280360 0.219640 -0.646049
O62   O     O_R   0.134190 0.719640 0.780360 -0.645986
O63   O     O_R   0.865810 0.219640 0.719640 -0.646046
O64   O     O_R   0.134190 0.780360 0.280360 -0.646034
O65   O     O_R   0.280360 0.219640 0.865810 -0.646040
O66   O     O_R   0.719640 0.780360 0.134190 -0.646073
O67   O     O_R   0.219640 0.719640 0.865810 -0.646017
O68   O     O_R   0.780360 0.280360 0.134190 -0.646044
O69   O     O_R   0.719640 0.780360 0.865810 -0.646044
O70   O     O_R   0.280360 0.219640 0.134190 -0.646036
O71   O     O_R   0.780360 0.280360 0.865810 -0.646043
O72   O     O_R   0.219640 0.719640 0.134190 -0.646041
O73   O     O_R   0.719640 0.219640 0.134190 -0.646036
O74   O     O_R   0.280360 0.780360 0.865810 -0.646042
O75   O     O_R   0.780360 0.719640 0.134190 -0.646033
O76   O     O_R   0.219640 0.280360 0.865810 -0.646044
O77   O     O_R   0.280360 0.780360 0.134190 -0.646045
O78   O     O_R   0.719640 0.219640 0.865810 -0.646040
O79   O     O_R   0.219640 0.280360 0.134190 -0.646042
O80   O     O_R   0.780360 0.719640 0.865810 -0.646038
O81   O     O_R   0.219640 0.634190 0.219640 -0.646045
O82   O     O_R   0.780360 0.365810 0.780360 -0.646049
O83   O     O_R   0.219640 0.634190 0.780360 -0.646033
O84   O     O_R   0.780360 0.365810 0.219640 -0.646052
O85   O     O_R   0.780360 0.634190 0.780360 -0.646047
O86   O     O_R   0.219640 0.365810 0.219640 -0.646031
O87   O     O_R   0.780360 0.634190 0.219640 -0.646043
O88   O     O_R   0.219640 0.365810 0.780360 -0.646042
O89   O     O_R   0.634190 0.780360 0.780360 -0.646048
O90   O     O_R   0.365810 0.219640 0.219640 -0.646034
O91   O     O_R   0.634190 0.219640 0.780360 -0.646041
O92   O     O_R   0.365810 0.780360 0.219640 -0.646027
O93   O     O_R   0.634190 0.219640 0.219640 -0.646042
O94   O     O_R   0.365810 0.780360 0.780360 -0.646036
O95   O     O_R   0.634190 0.780360 0.219640 -0.646093
O96   O     O_R   0.365810 0.219640 0.780360 -0.646039
O97   O     O_R   0.780360 0.219640 0.365810 -0.646045
O98   O     O_R   0.219640 0.780360 0.634190 -0.646044
O99   O     O_R   0.219640 0.219640 0.365810 -0.645905
O100  O     O_R   0.780360 0.780360 0.634190 -0.646053
O101  O     O_R   0.219640 0.780360 0.365810 -0.646042
O102  O     O_R   0.780360 0.219640 0.634190 -0.646037
O103  O     O_R   0.780360 0.780360 0.365810 -0.646039
O104  O     O_R   0.219640 0.219640 0.634190 -0.646029
Zn1   Zn    Zn3+2 0.706630 0.793370 0.793370 0.974480
Zn2   Zn    Zn3+2 0.293370 0.206630 0.206630 0.974481
Zn3   Zn    Zn3+2 0.793370 0.793370 0.293370 0.974480
Zn4   Zn    Zn3+2 0.206630 0.206630 0.706630 0.974493
Zn5   Zn    Zn3+2 0.293370 0.793370 0.206630 0.974489
Zn6   Zn    Zn3+2 0.706630 0.206630 0.793370 0.974487
Zn7   Zn    Zn3+2 0.206630 0.793370 0.706630 0.974483
Zn8   Zn    Zn3+2 0.793370 0.206630 0.293370 0.974459
Zn9   Zn    Zn3+2 0.706630 0.206630 0.206630 0.974493
Zn10  Zn    Zn3+2 0.293370 0.793370 0.793370 0.974480
Zn11  Zn    Zn3+2 0.793370 0.206630 0.706630 0.974477
Zn12  Zn    Zn3+2 0.206630 0.793370 0.293370 0.974485
Zn13  Zn    Zn3+2 0.293370 0.206630 0.793370 0.974483
Zn14  Zn    Zn3+2 0.706630 0.793370 0.206630 0.974440
Zn15  Zn    Zn3+2 0.206630 0.206630 0.293370 0.974546
Zn16  Zn    Zn3+2 0.793370 0.793370 0.706630 0.974471
Zn17  Zn    Zn3+2 0.793370 0.706630 0.206630 0.974488
Zn18  Zn    Zn3+2 0.206630 0.293370 0.793370 0.974480
Zn19  Zn    Zn3+2 0.793370 0.293370 0.793370 0.974477
Zn20  Zn    Zn3+2 0.206630 0.706630 0.206630 0.974479
Zn21  Zn    Zn3+2 0.206630 0.293370 0.206630 0.974484
Zn22  Zn    Zn3+2 0.793370 0.706630 0.793370 0.974477
Zn23  Zn    Zn3+2 0.206630 0.706630 0.793370 0.974521
Zn24  Zn    Zn3+2 0.793370 0.293370 0.206630 0.974475
Zn25  Zn    Zn3+2 0.706630 0.293370 0.293370 0.974482
Zn26  Zn    Zn3+2 0.293370 0.706630 0.706630 0.974478
Zn27  Zn    Zn3+2 0.293370 0.293370 0.293370 0.974456
Zn28  Zn    Zn3+2 0.706630 0.706630 0.706630 0.974484
Zn29  Zn    Zn3+2 0.293370 0.293370 0.706630 0.974480
Zn30  Zn    Zn3+2 0.706630 0.706630 0.293370 0.974493
Zn31  Zn    Zn3+2 0.706630 0.293370 0.706630 0.974481
Zn32  Zn    Zn3+2 0.293370 0.706630 0.293370 0.974492
Cl1   Cl    Cl    0.543717 0.917727 0.855534 -0.330068
Cl2   Cl    Cl    0.456263 0.144488 0.082265 -0.330176
Cl3   Cl    Cl    0.855484 0.917744 0.456245 -0.330313
Cl4   Cl    Cl    0.082270 0.144495 0.543775 -0.330154
Cl5   Cl    Cl    0.456165 0.917775 0.144535 -0.330448
Cl6   Cl    Cl    0.543724 0.144472 0.917729 -0.330100
Cl7   Cl    Cl    0.144464 0.917721 0.543734 -0.330044
Cl8   Cl    Cl    0.917751 0.144511 0.456291 -0.330237
Cl9   Cl    Cl    0.543710 0.082270 0.144473 -0.330031
Cl10  Cl    Cl    0.456265 0.855510 0.917740 -0.330190
Cl11  Cl    Cl    0.855531 0.082270 0.543715 -0.330084
Cl12  Cl    Cl    0.082271 0.855527 0.456261 -0.330130
Cl13  Cl    Cl    0.456270 0.082265 0.855522 -0.330125
Cl14  Cl    Cl    0.543644 0.855649 0.082305 -0.329667
Cl15  Cl    Cl    0.144513 0.082244 0.456397 -0.329960
Cl16  Cl    Cl    0.917720 0.855550 0.543693 -0.330059
Cl17  Cl    Cl    0.917734 0.543723 0.144482 -0.330139
Cl18  Cl    Cl    0.144469 0.456283 0.917723 -0.330079
Cl19  Cl    Cl    0.917736 0.456294 0.855512 -0.330140
Cl20  Cl    Cl    0.144481 0.543716 0.082268 -0.330110
Cl21  Cl    Cl    0.082274 0.456264 0.144478 -0.330121
Cl22  Cl    Cl    0.855534 0.543750 0.917718 -0.330165
Cl23  Cl    Cl    0.082272 0.543732 0.855499 -0.330193
Cl24  Cl    Cl    0.855525 0.456274 0.082272 -0.330142
Cl25  Cl    Cl    0.043722 0.417740 0.855512 -0.330131
Cl26  Cl    Cl    0.956283 0.644473 0.082276 -0.330083
Cl27  Cl    Cl    0.855513 0.417736 0.956264 -0.330180
Cl28  Cl    Cl    0.082282 0.644466 0.043733 -0.330057
Cl29  Cl    Cl    0.956290 0.417725 0.144457 -0.330047
Cl30  Cl    Cl    0.043785 0.644542 0.917738 -0.330388
Cl31  Cl    Cl    0.144476 0.417734 0.043717 -0.330087
Cl32  Cl    Cl    0.917740 0.644496 0.956290 -0.330129
Cl33  Cl    Cl    0.043731 0.582263 0.144492 -0.330162
Cl34  Cl    Cl    0.956268 0.355539 0.917723 -0.330073
Cl35  Cl    Cl    0.855526 0.582269 0.043726 -0.330110
Cl36  Cl    Cl    0.082271 0.355526 0.956262 -0.330134
Cl37  Cl    Cl    0.956322 0.582307 0.855578 -0.329887
Cl38  Cl    Cl    0.043737 0.355503 0.082255 -0.330197
Cl39  Cl    Cl    0.144495 0.582260 0.956284 -0.330101
Cl40  Cl    Cl    0.917730 0.355520 0.043709 -0.330136
Cl41  Cl    Cl    0.417734 0.144484 0.956272 -0.330127
Cl42  Cl    Cl    0.644452 0.917718 0.043740 -0.330128
Cl43  Cl    Cl    0.417715 0.043724 0.144460 -0.330011
Cl44  Cl    Cl    0.644474 0.956272 0.917731 -0.330111
Cl45  Cl    Cl    0.417706 0.855563 0.043734 -0.330021
Cl46  Cl    Cl    0.644480 0.082269 0.956271 -0.330131
Cl47  Cl    Cl    0.417728 0.956270 0.855526 -0.330105
Cl48  Cl    Cl    0.644499 0.043743 0.082267 -0.330220
Cl49  Cl    Cl    0.582255 0.855512 0.956282 -0.330211
Cl50  Cl    Cl    0.355518 0.082266 0.043714 -0.330082
Cl51  Cl    Cl    0.582273 0.956309 0.144486 -0.330168
Cl52  Cl    Cl    0.355522 0.043728 0.917733 -0.330085
Cl53  Cl    Cl    0.582267 0.144479 0.043721 -0.330112
Cl54  Cl    Cl    0.355503 0.917741 0.956258 -0.330165
Cl55  Cl    Cl    0.582265 0.043723 0.855512 -0.330157
Cl56  Cl    Cl    0.355472 0.956294 0.082238 -0.330138
Cl57  Cl    Cl    0.144448 0.043693 0.582300 -0.329987
Cl58  Cl    Cl    0.917756 0.956307 0.355483 -0.330254
Cl59  Cl    Cl    0.043722 0.855503 0.582248 -0.330179
Cl60  Cl    Cl    0.956413 0.082333 0.355632 -0.329623
Cl61  Cl    Cl    0.855525 0.956294 0.582263 -0.330086
Cl62  Cl    Cl    0.082328 0.043758 0.355593 -0.329956
Cl63  Cl    Cl    0.956277 0.144465 0.582280 -0.330045
Cl64  Cl    Cl    0.043749 0.917747 0.355493 -0.330250
Cl65  Cl    Cl    0.855568 0.043763 0.417693 -0.330142
Cl66  Cl    Cl    0.082248 0.956244 0.644512 -0.330211
Cl67  Cl    Cl    0.956278 0.855571 0.417703 -0.329998
Cl68  Cl    Cl    0.043716 0.082251 0.644507 -0.330149
Cl69  Cl    Cl    0.144516 0.956268 0.417750 -0.330234
Cl70  Cl    Cl    0.917736 0.043729 0.644490 -0.330163
Cl71  Cl    Cl    0.043875 0.144591 0.417765 -0.330665
Cl72  Cl    Cl    0.956278 0.917721 0.644461 -0.330063
Cl73  Cl    Cl    0.543713 0.417732 0.355525 -0.330111
Cl74  Cl    Cl    0.456283 0.644487 0.582266 -0.330135
Cl75  Cl    Cl    0.355490 0.417744 0.456300 -0.330191
Cl76  Cl    Cl    0.582273 0.644471 0.543717 -0.330084
Cl77  Cl    Cl    0.456277 0.417737 0.644485 -0.330134
Cl78  Cl    Cl    0.543724 0.644473 0.417717 -0.330094
Cl79  Cl    Cl    0.644473 0.417728 0.543717 -0.330094
Cl80  Cl    Cl    0.417738 0.644490 0.456270 -0.330106
Cl81  Cl    Cl    0.543732 0.582272 0.644476 -0.330119
Cl82  Cl    Cl    0.456267 0.355514 0.417735 -0.330168
Cl83  Cl    Cl    0.355537 0.582279 0.543729 -0.330052
Cl84  Cl    Cl    0.582261 0.355513 0.456271 -0.330145
Cl85  Cl    Cl    0.456263 0.582273 0.355513 -0.330146
Cl86  Cl    Cl    0.543722 0.355523 0.582269 -0.330119
Cl87  Cl    Cl    0.644483 0.582266 0.456264 -0.330150
Cl88  Cl    Cl    0.417720 0.355532 0.543738 -0.330114
Cl89  Cl    Cl    0.417739 0.543737 0.644492 -0.330174
Cl90  Cl    Cl    0.644473 0.456268 0.417726 -0.330116
Cl91  Cl    Cl    0.417701 0.456291 0.355573 -0.329975
Cl92  Cl    Cl    0.644486 0.543722 0.582265 -0.330146
Cl93  Cl    Cl    0.582271 0.456274 0.644474 -0.330113
Cl94  Cl    Cl    0.355486 0.543760 0.417750 -0.330257
Cl95  Cl    Cl    0.582263 0.543717 0.355512 -0.330133
Cl96  Cl    Cl    0.355533 0.456290 0.582276 -0.330037

loop_
_geom_bond_atom_site_label_1
_geom_bond_atom_site_label_2
_ccdc_geom_bond_type
C317  C326  A    
C124  C220  A    
C113  C298  A    
C209  Cl48  S    
C104  C200  A    
C288  C380  A    
C186  C193  A    
C188  Cl61  S    
C199  Cl70  S    
C59   H11   S    
C119  C300  A    
C5    O81   A    
C128  C224  A    
C31   O46   A    
C57   H9    S    
C10   O94   A    
C247  C252  A    
C71   C258  A    
O26   Zn31  S    
C100  C287  A    
C79   C276  A    
C221  Cl13  S    
C9    O93   A    
C201  Cl52  S    
C31   O39   A    
C47   C376  S    
C43   O74   A    
C11   C341  S    
C11   O95   A    
C116  C303  A    
O6    Zn31  S    
C12   O96   A    
C317  C349  A    
C170  Cl67  S    
C194  Cl31  S    
C99   C195  A    
C25   O44   A    
C235  Cl21  S    
C270  C366  A    
C16   O92   A    
C23   O99   A    
C178  Cl63  S    
C84   C180  A    
C191  C196  A    
C22   O98   A    
O15   Zn26  S    
C176  C179  A    
C30   O47   A    
C222  C229  A    
C147  Cl87  S    
O1    Zn16  S    
C77   C173  A    
O54   Zn19  S    
C302  C377  A    
C240  Cl18  S    
C180  Cl41  S    
O3    Zn14  S    
C41   O65   A    
C219  C232  A    
C10   C337  S    
C35   O58   A    
C217  C226  A    
C69   H21   S    
C300  C365  A    
O58   Zn21  S    
O94   Zn10  S    
C130  C313  A    
O57   Zn22  S    
C131  C320  A    
C197  Cl40  S    
C132  C319  A    
C126  H78   S    
C51   C256  A    
C137  C233  A    
C120  H72   S    
C173  Cl60  S    
O39   Zn2   S    
C100  C196  A    
O64   Zn12  S    
C219  Cl15  S    
C295  C383  A    
C241  C250  A    
C21   O29   A    
C116  H68   S    
C320  C323  A    
C271  C367  A    
C41   C367  S    
C101  H53   S    
O1    Zn1   S    
O78   Zn6   S    
C22   C348  S    
C62   C245  A    
C90   C186  A    
C284  C295  A    
C129  C314  A    
C145  Cl81  S    
C85   C270  A    
C40   C374  S    
C94   C190  A    
C57   C242  A    
C213  Cl56  S    
C139  H91   S    
C13   C346  S    
C132  H84   S    
O73   Zn9   S    
C82   C178  A    
O79   Zn21  S    
C289  C368  A    
C150  Cl86  S    
C117  C213  A    
O102  Zn11  S    
C314  C346  A    
C138  H90   S    
C5    O13   A    
C69   C260  A    
C49   C250  A    
C316  C352  A    
C70   C259  A    
O7    Zn7   S    
C205  C214  A    
O67   Zn23  S    
C93   C294  A    
C260  C356  A    
C334  C356  A    
C169  Cl68  S    
C80   H32   S    
C65   C264  A    
C53   C254  A    
C265  C274  A    
C40   O61   A    
C221  C230  A    
C272  C368  A    
C177  Cl64  S    
C32   O40   A    
C181  Cl72  S    
C164  C165  A    
C204  C215  A    
C50   H2    S    
C179  Cl42  S    
C242  C249  A    
C71   H23   S    
O3    Zn17  S    
C109  H61   S    
C72   H24   S    
C68   H20   S    
C254  C350  A    
C55   C151  A    
C184  Cl53  S    
C246  C253  A    
C301  C378  A    
O7    Zn10  S    
C310  C383  A    
O51   Zn15  S    
C83   C179  A    
C84   H36   S    
C187  C200  A    
C140  C333  A    
C55   H7    S    
C2    C356  S    
O87   Zn17  S    
C200  Cl69  S    
C67   H19   S    
C32   O45   A    
C293  C376  A    
C272  C275  A    
C48   O72   A    
C329  C336  A    
C48   C375  S    
O12   Zn29  S    
C158  Cl78  S    
C83   C272  A    
C37   O64   A    
O14   Zn31  S    
O41   Zn12  S    
C287  C379  A    
C234  Cl24  S    
C163  Cl93  S    
C116  C212  A    
C288  C291  A    
C112  C208  A    
C65   C161  A    
C28   C377  S    
C39   C373  S    
C190  Cl27  S    
O8    Zn24  S    
O66   Zn14  S    
C28   O41   A    
C190  C197  A    
O83   Zn23  S    
C30   O38   A    
C8    C353  S    
C14   C345  S    
C99   H51   S    
C150  C157  A    
C112  H64   S    
C45   C371  S    
C97   H49   S    
C300  C311  A    
C63   C159  A    
O32   Zn28  S    
C168  Cl90  S    
C274  C370  A    
C252  C348  A    
C156  Cl80  S    
C98   C281  A    
O8    Zn25  S    
C54   C150  A    
C64   C243  A    
C99   C288  A    
C107  C203  A    
C92   C295  A    
C66   C162  A    
O6    Zn19  S    
C94   H46   S    
C270  C277  A    
C104  H56   S    
C52   C255  A    
C15   O23   A    
O46   Zn15  S    
C208  C211  A    
C215  Cl38  S    
C87   C183  A    
C217  Cl9   S    
C88   C184  A    
C47   O78   A    
O18   Zn26  S    
C266  C273  A    
C97   C193  A    
C296  C384  A    
C56   C251  A    
C162  Cl96  S    
C267  C280  A    
O3    Zn30  S    
C117  H69   S    
O1    Zn22  S    
C144  C240  A    
O2    Zn27  S    
C21   C347  S    
O9    Zn28  S    
C236  Cl22  S    
C76   C172  A    
C251  C347  A    
C277  C373  A    
C314  C321  A    
C298  C381  A    
C282  C371  A    
C113  H65   S    
C237  Cl19  S    
C226  Cl2   S    
C117  C302  A    
C15   C349  S    
C114  C297  A    
C176  Cl49  S    
C285  C364  A    
C115  C304  A    
O5    Zn32  S    
C27   O35   A    
C149  C158  A    
C107  C312  A    
C134  H86   S    
C46   C372  S    
C133  H85   S    
C122  H74   S    
C203  Cl30  S    
C72   C257  A    
C52   C148  A    
O25   Zn32  S    
C71   C167  A    
C4    O88   A    
C53   C149  A    
C290  C367  A    
C72   C168  A    
O27   Zn30  S    
C33   O49   A    
C18   O26   A    
C147  C160  A    
C134  C317  A    
C228  Cl8   S    
O47   Zn10  S    
C133  C229  A    
C304  C307  A    
C136  C315  A    
C271  C276  A    
C14   O90   A    
C261  C357  A    
C164  Cl94  S    
C230  Cl6   S    
C315  C351  A    
C232  Cl4   S    
C332  C333  A    
C40   O56   A    
C110  C206  A    
C2    O86   A    
C139  C235  A    
C257  C353  A    
C192  Cl65  S    
C268  C364  A    
C189  Cl28  S    
C61   C246  A    
C95   C292  A    
C305  C380  A    
C19   C352  S    
C77   H29   S    
C77   C278  A    
C285  C294  A    
C245  C341  A    
O2    Zn15  S    
C30   C382  S    
C111  H63   S    
C7    C354  S    
C322  C338  A    
O68   Zn24  S    
C105  C201  A    
C70   H22   S    
C275  C371  A    
C73   C274  A    
C1    C355  S    
O37   Zn8   S    
C109  C205  A    
C130  C226  A    
C33   C370  S    
C328  C340  A    
C124  H76   S    
C103  H55   S    
C294  C375  A    
C301  C310  A    
C330  C335  A    
C218  Cl10  S    
C143  H95   S    
C324  C344  A    
C235  C238  A    
C248  C344  A    
C145  C154  A    
C202  C209  A    
C326  C342  A    
C4    C359  S    
C111  C207  A    
C103  C284  A    
O90   Zn2   S    
C86   C182  A    
O70   Zn2   S    
C45   O80   A    
C105  H57   S    
C278  C374  A    
O69   Zn1   S    
C46   O79   A    
C224  Cl12  S    
C191  Cl66  S    
C85   C181  A    
C220  C231  A    
C21   O97   A    
O85   Zn22  S    
O33   Zn4   S    
C89   C185  A    
C335  C353  A    
C135  H87   S    
C306  C379  A    
C185  Cl36  S    
C1    O9    A    
C260  C261  A    
C28   O36   A    
O61   Zn24  S    
C29   O37   A    
C92   C188  A    
C303  C308  A    
C125  C221  A    
C239  Cl17  S    
C315  C328  A    
C323  C343  A    
C35   C365  S    
C115  C211  A    
C75   C280  A    
C96   C192  A    
C154  Cl74  S    
C33   O60   A    
C241  C337  A    
O101  Zn12  S    
O103  Zn3   S    
O5    Zn20  S    
C81   C266  A    
C171  Cl46  S    
C206  Cl43  S    
C38   C361  S    
C307  C362  A    
O100  Zn16  S    
C63   C244  A    
C302  C309  A    
C41   O76   A    
C38   O63   A    
O84   Zn24  S    
O7    Zn23  S    
C134  C230  A    
C331  C334  A    
C69   C165  A    
C266  C362  A    
C298  C305  A    
C148  Cl88  S    
C102  H54   S    
C67   C163  A    
C299  C312  A    
C329  C359  A    
C53   H5    S    
C258  C354  A    
C60   C247  A    
C23   O31   A    
C48   O77   A    
C129  C225  A    
C51   H3    S    
C287  C292  A    
C115  H67   S    
C64   H16   S    
O55   Zn7   S    
C127  H79   S    
C110  H62   S    
C223  Cl11  S    
C113  C209  A    
C18   O102  A    
C303  C370  A    
C138  C335  A    
C17   O101  A    
C175  Cl50  S    
C107  H59   S    
C286  C363  A    
C121  C322  A    
C312  C373  A    
C297  C306  A    
C19   O103  A    
C172  Cl45  S    
C26   O34   A    
C313  C322  A    
C90   H42   S    
C283  C377  A    
C325  C341  A    
O21   Zn28  S    
O98   Zn7   S    
C74   H26   S    
O75   Zn17  S    
O80   Zn22  S    
O4    Zn29  S    
C20   C351  S    
C166  Cl92  S    
C202  Cl51  S    
C132  C228  A    
C279  C375  A    
O13   Zn32  S    
C155  Cl79  S    
C193  Cl32  S    
C13   O89   A    
C233  Cl23  S    
O43   Zn14  S    
C65   H17   S    
C34   O50   A    
O42   Zn11  S    
C98   C194  A    
C26   O43   A    
C125  H77   S    
C1    O85   A    
C160  Cl76  S    
O86   Zn21  S    
C269  C365  A    
C58   C154  A    
C247  C343  A    
C17   C343  S    
C29   O48   A    
C3    O87   A    
C185  C194  A    
C258  C263  A    
O74   Zn10  S    
C109  C310  A    
C231  Cl3   S    
C62   C158  A    
C299  C366  A    
C56   C152  A    
C250  C346  A    
C8    O84   A    
C16   C350  S    
C84   C271  A    
C152  Cl84  S    
C105  C306  A    
C85   H37   S    
C50   C146  A    
C68   C164  A    
C256  C352  A    
O4    Zn18  S    
C37   C362  S    
C244  C340  A    
C263  C359  A    
C196  Cl57  S    
C167  Cl89  S    
C198  Cl39  S    
C121  C217  A    
O8    Zn9   S    
C92   H44   S    
O59   Zn3   S    
C93   H45   S    
C255  C351  A    
C140  H92   S    
C327  C339  A    
C43   C364  S    
C153  Cl73  S    
C22   O30   A    
C102  C285  A    
C144  H96   S    
C161  Cl95  S    
C170  C177  A    
C14   O22   A    
C208  Cl33  S    
C135  C231  A    
C75   H27   S    
C171  C184  A    
C163  C166  A    
C86   C269  A    
O11   Zn30  S    
C159  Cl75  S    
C44   O73   A    
C46   O70   A    
C57   C153  A    
C123  C219  A    
C142  H94   S    
C80   C275  A    
C243  C256  A    
C118  C301  A    
C141  H93   S    
C136  H88   S    
C148  C159  A    
C192  C195  A    
C120  C299  A    
C309  C384  A    
C143  C239  A    
O20   Zn29  S    
C11   O19   A    
C214  Cl55  S    
C203  C216  A    
C210  Cl47  S    
C268  C279  A    
C152  C155  A    
C38   O54   A    
C9    O17   A    
C64   C160  A    
C220  Cl16  S    
C49   C145  A    
C118  C214  A    
C151  C156  A    
C6    O82   A    
O7    Zn26  S    
C83   H35   S    
C6    O14   A    
C175  C180  A    
O5    Zn5   S    
O44   Zn13  S    
C32   C383  S    
C81   C177  A    
C36   O57   A    
C93   C189  A    
C25   C379  S    
O95   Zn14  S    
O6    Zn11  S    
C138  C234  A    
C27   O42   A    
C98   H50   S    
O81   Zn20  S    
C73   H25   S    
O60   Zn4   S    
C224  C227  A    
O96   Zn13  S    
C249  C345  A    
C94   C293  A    
C211  Cl26  S    
C276  C372  A    
C24   O32   A    
C42   C368  S    
C319  C324  A    
C63   H15   S    
O16   Zn25  S    
C76   C279  A    
O50   Zn17  S    
C149  Cl85  S    
C78   H30   S    
C87   H39   S    
O49   Zn18  S    
C78   C277  A    
C88   H40   S    
C43   O67   A    
C182  Cl71  S    
O92   Zn5   S    
C88   C267  A    
C110  C309  A    
C139  C334  A    
C253  C349  A    
C128  H80   S    
C245  C254  A    
C74   C273  A    
C108  C311  A    
C128  C323  A    
C26   C380  S    
C282  C289  A    
C25   O33   A    
C58   H10   S    
C102  C198  A    
C3    O11   A    
O36   Zn5   S    
C104  C283  A    
C91   C296  A    
C131  H83   S    
C124  C327  A    
C114  C210  A    
O38   Zn7   S    
C146  C153  A    
C264  C360  A    
C112  C307  A    
O52   Zn16  S    
O40   Zn1   S    
C36   O52   A    
C101  C286  A    
C101  C197  A    
C8    O16   A    
C5    C357  S    
C130  H82   S    
C23   C340  S    
C229  Cl5   S    
O24   Zn32  S    
C131  C227  A    
C135  C316  A    
C106  H58   S    
C37   O53   A    
C331  C357  A    
C20   O104  A    
O93   Zn9   S    
C90   C289  A    
C238  Cl20  S    
C97   C282  A    
O35   Zn6   S    
C91   C187  A    
C18   C344  S    
O34   Zn3   S    
C281  C290  A    
O53   Zn20  S    
C118  H70   S    
C189  C198  A    
C3    C360  S    
O31   Zn27  S    
C204  Cl29  S    
C119  C215  A    
C243  C339  A    
C257  C264  A    
C4    O12   A    
C123  C328  A    
C13   O21   A    
C227  Cl7   S    
C172  C183  A    
C96   C291  A    
O104  Zn4   S    
C259  C262  A    
C225  Cl1   S    
C142  C331  A    
C143  C330  A    
C60   C156  A    
C146  Cl82  S    
C273  C369  A    
C236  C237  A    
C151  Cl83  S    
C127  C223  A    
O6    Zn6   S    
C195  Cl58  S    
O62   Zn23  S    
C313  C345  A    
C60   H12   S    
C31   C384  S    
C59   C248  A    
C61   H13   S    
C233  C240  A    
C133  C318  A    
C61   C157  A    
C70   C166  A    
C36   C366  S    
C286  C293  A    
C284  C378  A    
C330  C360  A    
C129  H81   S    
O82   Zn19  S    
C100  H52   S    
C207  Cl34  S    
O63   Zn11  S    
C126  C325  A    
C44   C363  S    
O89   Zn1   S    
C291  C381  A    
O65   Zn13  S    
C44   O68   A    
O3    Zn3   S    
C280  C376  A    
O2    Zn2   S    
C262  C358  A    
C244  C255  A    
C10   O18   A    
C269  C278  A    
C142  C238  A    
C140  C236  A    
C141  C332  A    
C114  H66   S    
C82   C265  A    
C218  C225  A    
C248  C251  A    
C91   H43   S    
C174  Cl59  S    
O8    Zn8   S    
C89   H41   S    
O97   Zn8   S    
C7    O15   A    
C96   H48   S    
C19   O27   A    
O30   Zn26  S    
C81   H33   S    
C157  Cl77  S    
O29   Zn25  S    
C165  Cl91  S    
C174  C181  A    
C17   O25   A    
C68   C261  A    
C108  H60   S    
C6    C358  S    
O5    Zn12  S    
C332  C358  A    
C111  C308  A    
O4    Zn13  S    
C66   H18   S    
C79   C175  A    
C212  Cl25  S    
C87   C268  A    
C80   C176  A    
C281  C372  A    
C137  H89   S    
C59   C155  A    
C223  C228  A    
C16   O24   A    
C123  H75   S    
C122  C321  A    
C188  C199  A    
C183  Cl54  S    
C318  C325  A    
C52   H4    S    
C265  C361  A    
C186  Cl35  S    
C58   C241  A    
C42   O66   A    
C29   C381  S    
C106  C202  A    
C222  Cl14  S    
C216  Cl37  S    
C106  C305  A    
O17   Zn25  S    
C86   H38   S    
C51   C147  A    
C283  C296  A    
C246  C342  A    
C103  C199  A    
C127  C324  A    
O72   Zn20  S    
C34   C369  S    
O56   Zn8   S    
C50   C249  A    
C119  H71   S    
C7    O83   A    
C24   C339  S    
C308  C361  A    
C318  C350  A    
C75   C171  A    
C207  C212  A    
C54   C253  A    
C20   O28   A    
C42   O75   A    
C320  C348  A    
C319  C347  A    
C144  C329  A    
O2    Zn21  S    
C201  C210  A    
C67   C262  A    
O76   Zn18  S    
C206  C213  A    
O19   Zn30  S    
C141  C237  A    
C95   C191  A    
C122  C218  A    
C336  C354  A    
C55   C252  A    
C15   O91   A    
C297  C382  A    
C2    O10   A    
C12   O20   A    
C137  C336  A    
C173  C182  A    
C126  C222  A    
C12   C342  S    
O22   Zn27  S    
C120  C216  A    
C47   O71   A    
O99   Zn15  S    
O28   Zn29  S    
O23   Zn31  S    
C9    C338  S    
O91   Zn6   S    
C242  C338  A    
C108  C204  A    
C35   O51   A    
C34   O59   A    
C79   H31   S    
O4    Zn4   S    
C205  Cl44  S    
C39   O55   A    
C187  Cl62  S    
C49   H1    S    
C62   H14   S    
C267  C363  A    
C321  C337  A    
O45   Zn16  S    
O88   Zn18  S    
O48   Zn9   S    
C56   H8    S    
C27   C378  S    
C125  C326  A    
C333  C355  A    
C234  C239  A    
C121  H73   S    
C39   O62   A    
C74   C170  A    
C161  C168  A    
C169  C178  A    
C24   O100  A    
C45   O69   A    
C162  C167  A    
O71   Zn19  S    
C259  C355  A    
C89   C290  A    
O1    Zn28  S    
C292  C382  A    
C78   C174  A    
O10   Zn27  S    
O77   Zn5   S    
C82   H34   S    
C316  C327  A    
C73   C169  A    
C76   H28   S    
C95   H47   S    
C66   C263  A    
C304  C369  A    
C136  C232  A    
C311  C374  A    
C54   H6    S    
