data_mof_unit_47136.cif
_audit_creation_date              2012-12-10T19:57:36-0500
_audit_creation_method            fapswitch 2.2
_symmetry_space_group_name_H-M    P1
_symmetry_Int_Tables_number       1
_space_group_crystal_system       triclinic
_cell_length_a                    26.071463
_cell_length_b                    26.070392
_cell_length_c                    18.451098
_cell_angle_alpha                 89.190527
_cell_angle_beta                  134.708734
_cell_angle_gamma                 90.048818
_cell_volume                      8911.23511009

loop_
_atom_site_label
_atom_site_type_symbol
_atom_type_description
_atom_site_fract_x
_atom_site_fract_y
_atom_site_fract_z
_atom_type_partial_charge
C1    C     C_R   0.889949 0.750391 0.500112 0.860284
C2    C     C_R   0.889779 0.249997 0.499492 0.837724
C3    C     C_R   0.391124 0.248562 0.502792 0.804449
C4    C     C_R   0.389868 0.750178 0.499696 0.834752
C5    C     C_R   0.424621 0.762406 0.944026 -0.124123
C6    C     C_R   0.471687 0.197142 0.948035 -0.089618
C7    C     C_R   0.929419 0.273162 0.945748 -0.141797
C8    C     C_R   0.974292 0.696507 0.947476 -0.098305
C9    C     C_R   0.443108 0.748236 0.890984 -0.118409
C10   C     C_R   0.449433 0.243175 0.890080 -0.142450
C11   C     C_R   0.941391 0.246752 0.891761 -0.139995
C12   C     C_R   0.950425 0.742913 0.889949 -0.124170
C13   C     C_R   0.514823 0.735267 0.948114 0.013874
C14   C     C_R   0.487402 0.286825 0.941160 -0.106153
C15   C     C_R   0.009142 0.224492 0.947887 -0.037489
C16   C     C_R   0.986535 0.786868 0.941649 -0.119353
C17   C     C_3   0.568993 0.750884 0.944440 0.261134
C18   C     C_3   0.464726 0.341847 0.920480 0.298407
C19   C     C_3   0.059368 0.226484 0.933840 0.310567
C20   C     C_3   0.964530 0.841913 0.920879 0.306901
C21   C     C_3   0.627268 0.739883 0.061935 -0.252454
C22   C     C_3   0.524619 0.346838 0.038748 -0.287912
C23   C     C_3   0.122482 0.231583 0.051987 -0.314177
C24   C     C_3   0.023905 0.846876 0.039239 -0.293751
C25   C     C_R   0.484321 0.752159 0.414098 -0.191392
C26   C     C_R   0.499269 0.217417 0.444308 -0.089212
C27   C     C_R   0.984302 0.253533 0.413672 -0.196722
C28   C     C_R   0.004191 0.712709 0.456044 -0.043917
C29   C     C_R   0.556753 0.749030 0.505180 -0.146119
C30   C     C_R   0.558512 0.249260 0.508782 -0.179953
C31   C     C_R   0.056642 0.249066 0.504939 -0.141333
C32   C     C_R   0.049668 0.754634 0.490485 -0.166471
C33   C     C_R   0.574500 0.741713 0.596934 -0.180952
C34   C     C_R   0.568493 0.275437 0.585827 -0.191681
C35   C     C_R   0.074203 0.240048 0.596306 -0.176857
C36   C     C_R   0.037257 0.799283 0.519819 -0.195759
C37   C     C_R   0.519187 0.746415 0.594308 0.494964
C38   C     C_R   0.518216 0.268596 0.592832 0.452191
C39   C     C_R   0.018926 0.243338 0.593870 0.491637
C40   C     C_R   0.991489 0.795741 0.535601 0.408113
C41   C     C_R   0.446065 0.750391 0.500411 -0.122078
C42   C     C_R   0.452211 0.243730 0.513719 -0.185263
C43   C     C_R   0.945980 0.249738 0.500167 -0.135839
C44   C     C_R   0.944473 0.753436 0.496930 -0.129299
C45   C     C_R   0.611042 0.750411 0.501995 0.897277
C46   C     C_R   0.610413 0.250564 0.500498 0.882120
C47   C     C_R   0.111071 0.250466 0.502045 0.892867
C48   C     C_R   0.109419 0.750876 0.498277 0.930071
C49   C     C_R   0.429238 0.751048 0.409714 -0.206670
C50   C     C_R   0.447907 0.215141 0.446440 -0.262232
C51   C     C_R   0.929242 0.252253 0.409452 -0.203499
C52   C     C_R   0.950316 0.713673 0.453799 -0.189216
C53   C     C_3   0.382605 0.787116 0.317339 0.848253
C54   C     C_3   0.390823 0.201136 0.334913 0.857745
C55   C     C_3   0.883293 0.289698 0.319395 0.845620
C56   C     C_3   0.958501 0.657161 0.477851 0.754518
C57   C     C_3   0.446820 0.790023 0.327943 0.855520
C58   C     C_3   0.450364 0.204467 0.333631 0.811111
C59   C     C_3   0.948076 0.293936 0.331554 0.856838
C60   C     C_3   0.020830 0.656246 0.481922 0.831766
C61   C     C_R   0.744011 0.527756 0.433524 -0.052737
C62   C     C_R   0.737404 0.475896 0.429640 -0.071414
C63   C     C_R   0.243981 0.027971 0.433017 -0.053026
C64   C     C_R   0.238592 0.975849 0.429746 -0.078379
C65   C     C_R   0.759439 0.554643 0.511225 -0.190595
C66   C     C_R   0.758083 0.445806 0.509261 -0.193598
C67   C     C_R   0.258671 0.054653 0.510440 -0.176531
C68   C     C_R   0.257763 0.945911 0.508739 -0.187025
C69   C     C_R   0.783007 0.526210 0.596827 0.368553
C70   C     C_R   0.786766 0.471732 0.598281 0.401776
C71   C     C_R   0.280978 0.026260 0.595176 0.377790
C72   C     C_R   0.284822 0.971869 0.596802 0.391932
C73   C     C_3   0.684463 0.473540 0.316617 -0.227075
C74   C     C_3   0.690553 0.533623 0.319027 -0.247256
C75   C     C_3   0.183842 0.973688 0.316333 -0.223703
C76   C     C_3   0.188010 0.033845 0.318230 -0.255394
C77   C     C_R   0.804642 0.974841 0.519965 -0.240334
C78   C     C_R   0.804755 0.026784 0.524456 -0.177497
C79   C     C_R   0.304563 0.474296 0.515301 -0.237832
C80   C     C_R   0.305821 0.526445 0.520780 -0.176669
C81   C     C_R   0.746525 0.945897 0.487307 -0.206562
C82   C     C_R   0.747868 0.054840 0.496170 -0.174185
C83   C     C_R   0.247469 0.445711 0.487046 -0.207690
C84   C     C_R   0.250967 0.554654 0.498895 -0.185033
C85   C     C_R   0.683015 0.973766 0.443425 0.424680
C86   C     C_R   0.685301 0.027493 0.454572 0.402491
C87   C     C_R   0.186737 0.473926 0.451361 0.434845
C88   C     C_R   0.192285 0.526988 0.468604 0.399875
C89   C     C_R   0.749391 0.889920 0.496216 0.865700
C90   C     C_R   0.749963 0.110300 0.500522 0.849082
C91   C     C_R   0.249541 0.389832 0.495652 0.873231
C92   C     C_R   0.250615 0.610252 0.500639 0.855996
C93   C     C_3   0.879567 0.032951 0.569060 0.376854
C94   C     C_3   0.880099 0.973047 0.562913 0.270439
C95   C     C_3   0.378169 0.531323 0.556068 0.375907
C96   C     C_3   0.377039 0.471216 0.549436 0.277478
C97   C     C_R   0.752147 0.610226 0.502804 0.854379
C98   C     C_R   0.751571 0.389947 0.501542 0.927423
C99   C     C_R   0.251819 0.110232 0.502475 0.848049
C100  C     C_R   0.251587 0.889973 0.501516 0.935730
C101  C     C_R   0.891333 0.747501 0.779171 0.871284
C102  C     C_R   0.888498 0.248539 0.779805 0.809446
C103  C     C_R   0.391170 0.247510 0.779211 0.805819
C104  C     C_R   0.389212 0.749179 0.779558 0.779718
C105  C     C_R   0.609673 0.750669 0.219800 0.814686
C106  C     C_R   0.610649 0.249804 0.219579 0.918017
C107  C     C_R   0.110968 0.251848 0.219954 0.874088
C108  C     C_R   0.110548 0.749796 0.219589 0.899401
C109  C     C_R   0.565680 0.730793 0.053002 0.028821
C110  C     C_R   0.540435 0.289566 0.045451 0.016372
C111  C     C_R   0.064595 0.227855 0.053122 0.019642
C112  C     C_R   0.039143 0.789630 0.045608 0.015204
C113  C     C_R   0.551577 0.751195 0.107446 -0.080132
C114  C     C_R   0.558907 0.246421 0.107225 -0.099887
C115  C     C_R   0.054814 0.254868 0.107701 -0.080960
C116  C     C_R   0.058299 0.746442 0.107190 -0.087774
C117  C     C_R   0.480167 0.770403 0.050565 -0.126129
C118  C     C_R   0.527745 0.198437 0.057026 -0.132264
C119  C     C_R   0.987291 0.280537 0.052017 -0.151398
C120  C     C_R   0.028407 0.698311 0.056922 -0.111510
O1    O     O_3   0.750030 0.750030 0.500000 -0.523376
O2    O     O_3   0.750030 0.249970 0.500000 -0.542273
O3    O     O_3   0.250030 0.250030 0.500000 -0.533791
O4    O     O_3   0.250030 0.749970 0.500000 -0.540684
O5    O     O_R   0.689310 0.865830 0.439290 -0.597097
O6    O     O_R   0.689310 0.134170 0.439290 -0.587668
O7    O     O_R   0.189310 0.365830 0.439290 -0.591915
O8    O     O_R   0.189310 0.634170 0.439290 -0.593130
O9    O     O_R   0.750020 0.634220 0.439270 -0.640477
O10   O     O_R   0.750020 0.365780 0.439270 -0.620831
O11   O     O_R   0.250020 0.134220 0.439270 -0.622556
O12   O     O_R   0.250020 0.865780 0.439270 -0.619861
O13   O     O_R   0.896170 0.780390 0.560700 -0.648774
O14   O     O_R   0.896170 0.219610 0.560700 -0.574526
O15   O     O_R   0.396170 0.280390 0.560700 -0.629542
O16   O     O_R   0.396170 0.719610 0.560700 -0.602605
O17   O     O_R   0.664610 0.719670 0.560740 -0.638843
O18   O     O_R   0.664610 0.280330 0.560740 -0.628857
O19   O     O_R   0.164610 0.219670 0.560740 -0.633320
O20   O     O_R   0.164610 0.780330 0.560740 -0.631697
O21   O     O_R   0.835440 0.719660 0.439260 -0.628838
O22   O     O_R   0.835440 0.280340 0.439260 -0.654611
O23   O     O_R   0.335440 0.219660 0.439260 -0.590454
O24   O     O_R   0.335440 0.780340 0.439260 -0.652978
O25   O     O_R   0.603880 0.780390 0.439300 -0.622839
O26   O     O_R   0.603880 0.219610 0.439300 -0.573632
O27   O     O_R   0.103880 0.280390 0.439300 -0.627220
O28   O     O_R   0.103880 0.719610 0.439300 -0.583530
O29   O     O_R   0.810750 0.865830 0.560720 -0.648926
O30   O     O_R   0.810750 0.134170 0.560720 -0.625937
O31   O     O_R   0.310750 0.365830 0.560720 -0.642515
O32   O     O_R   0.310750 0.634170 0.560720 -0.614216
O33   O     O_R   0.750030 0.634230 0.560720 -0.610109
O34   O     O_R   0.750030 0.365770 0.560720 -0.575475
O35   O     O_R   0.250030 0.134230 0.560720 -0.612386
O36   O     O_R   0.250030 0.865770 0.560720 -0.575678
O37   O     O_R   0.896190 0.780400 0.731600 -0.645637
O38   O     O_R   0.896190 0.219600 0.731600 -0.611672
O39   O     O_R   0.396190 0.280400 0.731600 -0.645710
O40   O     O_R   0.396190 0.719600 0.731600 -0.591621
O41   O     O_R   0.664570 0.719650 0.268390 -0.609278
O42   O     O_R   0.664570 0.280350 0.268390 -0.637463
O43   O     O_R   0.164570 0.219650 0.268390 -0.576327
O44   O     O_R   0.164570 0.780350 0.268390 -0.634885
O45   O     O_R   0.835480 0.719680 0.731610 -0.609092
O46   O     O_R   0.835480 0.280320 0.731610 -0.644100
O47   O     O_R   0.335480 0.219680 0.731610 -0.595724
O48   O     O_R   0.335480 0.780320 0.731610 -0.641753
O49   O     O_R   0.603860 0.780380 0.268400 -0.636024
O50   O     O_R   0.603860 0.219620 0.268400 -0.607792
O51   O     O_R   0.103860 0.280380 0.268400 -0.651446
O52   O     O_R   0.103860 0.719620 0.268400 -0.612181
Zn1   Zn    Zn3+2 0.663280 0.793400 0.413250 1.010424
Zn2   Zn    Zn3+2 0.663280 0.206600 0.413250 1.063727
Zn3   Zn    Zn3+2 0.163280 0.293400 0.413250 1.014727
Zn4   Zn    Zn3+2 0.163280 0.706600 0.413250 1.079225
Zn5   Zn    Zn3+2 0.836780 0.793410 0.586750 0.991089
Zn6   Zn    Zn3+2 0.836780 0.206590 0.586750 1.037918
Zn7   Zn    Zn3+2 0.336780 0.293410 0.586750 0.989833
Zn8   Zn    Zn3+2 0.336780 0.706590 0.586750 1.021771
Zn9   Zn    Zn3+2 0.750030 0.706650 0.586760 1.030843
Zn10  Zn    Zn3+2 0.750030 0.293350 0.586760 1.047620
Zn11  Zn    Zn3+2 0.250030 0.206650 0.586760 1.031097
Zn12  Zn    Zn3+2 0.250030 0.793350 0.586760 1.050570
Zn13  Zn    Zn3+2 0.750010 0.706640 0.413230 1.011842
Zn14  Zn    Zn3+2 0.750010 0.293360 0.413230 0.990869
Zn15  Zn    Zn3+2 0.250010 0.206640 0.413230 1.049828
Zn16  Zn    Zn3+2 0.250010 0.793360 0.413230 0.987081
C121  C     C_2   0.463751 0.806327 0.093889 0.970115
O53   O     O_2   0.499887 0.844854 0.136720 -0.632770
O54   O     O_R   0.401305 0.800004 0.073123 -0.769887
H1    H     H_    0.387910 0.831684 0.088095 0.354497
C122  C     C_2   0.553502 0.149618 0.117089 0.964648
O55   O     O_2   0.618143 0.139601 0.183764 -0.664283
O56   O     O_R   0.503873 0.115125 0.097107 -0.782186
H2    H     H_    0.528065 0.083496 0.143245 0.344619
C123  C     C_2   0.977734 0.320275 0.098917 0.978305
O57   O     O_2   0.019124 0.356392 0.142331 -0.626607
O58   O     O_R   0.917699 0.318901 0.084922 -0.767409
H3    H     H_    0.911106 0.351724 0.106304 0.342084
C124  C     C_2   0.056809 0.650083 0.118408 0.954772
O59   O     O_2   0.119219 0.636706 0.169006 -0.692473
O60   O     O_R   0.013132 0.621085 0.121263 -0.713210
H4    H     H_    0.039055 0.589511 0.167212 0.339613
O61   O     O_3   0.321988 0.762827 0.225671 -0.649368
C125  C     C_3   0.269612 0.750638 0.226307 -0.181654
H5    H     H_    0.290064 0.720734 0.285164 0.131441
H6    H     H_    0.222046 0.734584 0.151235 0.186929
H7    H     H_    0.250583 0.785238 0.236417 0.231144
O62   O     O_3   0.332649 0.237276 0.267922 -0.590047
C126  C     C_3   0.349843 0.289831 0.293361 -0.266417
H8    H     H_    0.407934 0.299152 0.348024 0.164629
H9    H     H_    0.327526 0.303573 0.323261 0.166978
H10   H     H_    0.323859 0.312353 0.223358 0.203464
O63   O     O_3   0.822927 0.266417 0.225985 -0.648597
C127  C     C_3   0.770177 0.252636 0.225081 -0.180184
H11   H     H_    0.790515 0.221899 0.282569 0.129960
H12   H     H_    0.723032 0.237106 0.149123 0.186723
H13   H     H_    0.750584 0.286364 0.236183 0.228003
O64   O     O_3   0.897854 0.626236 0.399292 -0.634539
C128  C     C_3   0.848501 0.649277 0.300934 -0.148751
H14   H     H_    0.875313 0.665743 0.278874 0.174209
H15   H     H_    0.815229 0.678851 0.295224 0.240249
H16   H     H_    0.812261 0.618961 0.245795 0.183081
O65   O     O_3   0.483492 0.837664 0.368338 -0.643186
C129  C     C_3   0.484379 0.865392 0.303279 -0.130830
H17   H     H_    0.429265 0.872610 0.227193 0.111091
H18   H     H_    0.518580 0.845757 0.296607 0.249575
H19   H     H_    0.508005 0.903305 0.337513 0.203497
O66   O     O_3   0.477727 0.158422 0.329824 -0.619461
C130  C     C_3   0.426237 0.131066 0.238585 -0.231680
H20   H     H_    0.440229 0.133212 0.194082 0.210784
H21   H     H_    0.369497 0.143920 0.189563 0.156048
H22   H     H_    0.429556 0.090066 0.258609 0.187189
O67   O     O_3   0.985879 0.340718 0.378054 -0.641068
C131  C     C_3   0.989001 0.371209 0.317849 -0.143201
H23   H     H_    0.934536 0.380522 0.242219 0.110462
H24   H     H_    0.022972 0.352751 0.309557 0.243385
H25   H     H_    0.013892 0.407978 0.357363 0.206709
O68   O     O_3   0.094899 0.651592 0.576461 -0.631958
C132  C     C_3   0.109583 0.615819 0.647378 -0.267227
H26   H     H_    0.164479 0.599557 0.693815 0.175972
H27   H     H_    0.071597 0.583434 0.612321 0.134332
H28   H     H_    0.111530 0.635847 0.701917 0.229642
O69   O     O_3   0.429472 0.773815 0.238829 -0.621669
C133  C     C_3   0.439740 0.720712 0.236925 -0.207354
H29   H     H_    0.409049 0.696966 0.245964 0.175197
H30   H     H_    0.498031 0.710285 0.295918 0.125850
H31   H     H_    0.419164 0.711670 0.161759 0.222094
O70   O     O_3   0.448412 0.247428 0.283142 -0.645437
C134  C     C_3   0.395514 0.243463 0.176089 -0.209109
H32   H     H_    0.343621 0.228013 0.144714 0.203792
H33   H     H_    0.416716 0.220693 0.151349 0.198015
H34   H     H_    0.383637 0.282545 0.142551 0.195156
O71   O     O_3   0.930640 0.281757 0.240623 -0.615363
C135  C     C_3   0.939562 0.229380 0.232203 -0.194713
H35   H     H_    0.907879 0.204190 0.237544 0.171899
H36   H     H_    0.997510 0.218038 0.290349 0.127674
H37   H     H_    0.919252 0.223572 0.156229 0.221078
O72   O     O_3   0.006907 0.632568 0.400539 -0.598435
C136  C     C_3   0.988203 0.580256 0.388566 -0.171512
H38   H     H_    0.999536 0.562339 0.453468 0.122909
H39   H     H_    0.016869 0.558172 0.375072 0.230747
H40   H     H_    0.930176 0.575803 0.318365 0.178208
O73   O     O_3   0.805822 0.551312 0.680782 -0.605316
C137  C     C_3   0.751016 0.548707 0.679291 -0.061236
H41   H     H_    0.745292 0.509032 0.695450 0.191477
H42   H     H_    0.698206 0.563217 0.605493 0.143572
H43   H     H_    0.766238 0.573478 0.740216 0.201131
O74   O     O_3   0.813748 0.444502 0.684180 -0.558705
C138  C     C_3   0.888380 0.436584 0.747791 -0.210886
H44   H     H_    0.917508 0.473657 0.774385 0.168560
H45   H     H_    0.899307 0.414103 0.708878 0.094151
H46   H     H_    0.910154 0.414062 0.816170 0.216690
O75   O     O_3   0.301551 0.051304 0.677787 -0.596810
C139  C     C_3   0.244674 0.048638 0.672040 -0.069728
H47   H     H_    0.237685 0.008871 0.686163 0.178973
H48   H     H_    0.192870 0.063552 0.597352 0.144771
H49   H     H_    0.258209 0.072986 0.732252 0.214339
O76   O     O_3   0.309737 0.944648 0.681537 -0.569867
C140  C     C_3   0.385320 0.939620 0.751022 -0.206736
H50   H     H_    0.411839 0.977676 0.778268 0.174939
H51   H     H_    0.401077 0.918508 0.716970 0.098195
H52   H     H_    0.405435 0.917097 0.818478 0.208490
C141  C     C_2   0.610831 0.455055 0.267085 1.001118
O77   O     O_2   0.557526 0.469791 0.180518 -0.523840
O78   O     O_R   0.602960 0.423614 0.320656 -0.792723
H53   H     H_    0.550569 0.417378 0.281189 0.352909
C142  C     C_2   0.624017 0.564804 0.275391 0.953010
O79   O     O_2   0.595904 0.595597 0.205091 -0.550171
O80   O     O_R   0.595051 0.558407 0.316180 -0.812651
H54   H     H_    0.551420 0.581383 0.281386 0.340044
C143  C     C_2   0.111007 0.954095 0.268364 0.993760
O81   O     O_2   0.057079 0.968041 0.181567 -0.524380
O82   O     O_R   0.104355 0.922996 0.323635 -0.778301
H55   H     H_    0.052243 0.916213 0.285002 0.363516
C144  C     C_2   0.121409 0.063535 0.278215 0.946561
O83   O     O_2   0.090975 0.094804 0.207965 -0.557343
O84   O     O_R   0.095043 0.055170 0.322247 -0.812685
H56   H     H_    0.051098 0.077258 0.289633 0.342166
C145  C     C_2   0.719540 0.440872 0.293759 0.946864
O85   O     O_2   0.771231 0.456256 0.310253 -0.639058
O86   O     O_R   0.699814 0.389727 0.269673 -0.767896
H57   H     H_    0.737545 0.367468 0.283103 0.374211
C146  C     C_2   0.723138 0.553825 0.281828 1.073278
O87   O     O_2   0.781516 0.574940 0.340398 -0.588557
O88   O     O_R   0.686685 0.546574 0.180234 -0.708116
H58   H     H_    0.715362 0.558520 0.165055 0.346862
C147  C     C_2   0.218142 0.942298 0.290795 0.946143
O89   O     O_2   0.266218 0.959603 0.300394 -0.646619
O90   O     O_R   0.202147 0.890404 0.271736 -0.765151
H59   H     H_    0.240325 0.869436 0.284109 0.373433
C148  C     C_2   0.216705 0.056039 0.276531 1.095054
O91   O     O_2   0.272177 0.080739 0.331109 -0.585643
O92   O     O_R   0.178818 0.048201 0.174470 -0.708279
H60   H     H_    0.204403 0.062905 0.155878 0.356830
O93   O     O_3   0.617797 0.949429 0.387622 -0.602291
C149  C     C_3   0.579926 0.953599 0.283566 -0.192281
H61   H     H_    0.609088 0.933041 0.268666 0.181117
H62   H     H_    0.569956 0.994343 0.257296 0.166674
H63   H     H_    0.526386 0.935723 0.236523 0.185857
O94   O     O_3   0.624018 0.052984 0.417545 -0.569595
C150  C     C_3   0.624638 0.052599 0.494551 -0.194039
H64   H     H_    0.672956 0.072376 0.563934 0.137318
H65   H     H_    0.621979 0.012796 0.514285 0.171701
H66   H     H_    0.576204 0.073798 0.465707 0.198726
O95   O     O_3   0.121634 0.450398 0.399823 -0.595690
C151  C     C_3   0.076356 0.461505 0.294680 -0.230455
H67   H     H_    0.100993 0.447969 0.267649 0.186270
H68   H     H_    0.063137 0.503206 0.277355 0.169306
H69   H     H_    0.024596 0.441332 0.249797 0.175814
O96   O     O_3   0.142823 0.550085 0.464351 -0.587927
C152  C     C_3   0.171177 0.547958 0.563663 -0.186623
H70   H     H_    0.202642 0.583080 0.605323 0.184057
H71   H     H_    0.205316 0.513257 0.609782 0.144303
H72   H     H_    0.125863 0.546001 0.557211 0.175792
C153  C     C_2   0.930813 0.054254 0.675720 0.906131
O97   O     O_2   0.993543 0.062250 0.721348 -0.542093
O98   O     O_R   0.906946 0.063685 0.722625 -0.802472
H73   H     H_    0.946226 0.076714 0.794378 0.379958
C154  C     C_2   0.936729 0.946267 0.666026 0.879441
O99   O     O_2   0.990065 0.927706 0.690372 -0.536237
O100  O     O_R   0.931910 0.945318 0.736835 -0.702108
H74   H     H_    0.886483 0.961648 0.711765 0.345421
C155  C     C_2   0.435912 0.552336 0.662681 0.887072
O101  O     O_2   0.497610 0.556345 0.701309 -0.557433
O102  O     O_R   0.419612 0.566207 0.717670 -0.781088
H75   H     H_    0.463386 0.578503 0.788565 0.389198
C156  C     C_2   0.435936 0.443235 0.651090 0.877891
O103  O     O_2   0.483392 0.419822 0.666263 -0.519939
O104  O     O_R   0.438722 0.445090 0.729516 -0.719908
H76   H     H_    0.397158 0.464438 0.711140 0.342199
O105  O     O_3   0.888062 0.059335 0.509443 -0.550109
C157  C     C_3   0.823553 0.067660 0.405632 -0.106273
H77   H     H_    0.792341 0.031881 0.368279 0.182209
H78   H     H_    0.837897 0.081519 0.364706 0.174079
H79   H     H_    0.789961 0.098049 0.397465 0.126207
O106  O     O_3   0.883754 0.959204 0.492207 -0.540161
C158  C     C_3   0.854669 0.910374 0.450922 -0.141713
H80   H     H_    0.794853 0.911696 0.394784 0.113192
H81   H     H_    0.877510 0.880773 0.510985 0.208703
H82   H     H_    0.869006 0.898766 0.409339 0.186329
O107  O     O_3   0.380986 0.556724 0.489565 -0.557804
C159  C     C_3   0.313188 0.566505 0.389253 -0.113330
H83   H     H_    0.280106 0.531337 0.353270 0.182546
H84   H     H_    0.322462 0.580212 0.342104 0.176250
H85   H     H_    0.283642 0.597496 0.388399 0.124925
O108  O     O_3   0.374275 0.456785 0.472558 -0.540809
C160  C     C_3   0.343880 0.407962 0.433096 -0.197087
H86   H     H_    0.284643 0.409404 0.383024 0.135784
H87   H     H_    0.369980 0.378194 0.494042 0.189996
H88   H     H_    0.352795 0.396384 0.385029 0.173015
C161  C     C_2   0.347960 0.772079 0.887388 1.025614
O109  O     O_2   0.307400 0.735891 0.855747 -0.617639
O110  O     O_R   0.322017 0.822443 0.867687 -0.762181
H89   H     H_    0.268743 0.824016 0.827183 0.351299
C162  C     C_2   0.439396 0.147700 0.896074 0.981137
O111  O     O_2   0.379002 0.136888 0.857525 -0.552929
O112  O     O_R   0.479198 0.112952 0.894202 -0.816151
H90   H     H_    0.451855 0.080284 0.857528 0.360483
C163  C     C_2   0.858815 0.298012 0.890706 1.037192
O113  O     O_2   0.806880 0.271717 0.854967 -0.586163
O114  O     O_R   0.852004 0.351379 0.877870 -0.787970
H91   H     H_    0.800917 0.364152 0.835340 0.355302
C164  C     C_2   0.947154 0.646902 0.893527 0.951334
O115  O     O_2   0.927247 0.613534 0.916117 -0.557354
O116  O     O_R   0.944191 0.638672 0.815905 -0.829487
H92   H     H_    0.926322 0.603264 0.785918 0.362650
O117  O     O_3   0.569509 0.804029 0.925391 -0.565393
C165  C     C_3   0.503679 0.822420 0.830873 -0.285472
H93   H     H_    0.467029 0.834357 0.838689 0.172975
H94   H     H_    0.477849 0.794685 0.768518 0.149976
H95   H     H_    0.514566 0.857646 0.809376 0.169358
O118  O     O_3   0.476361 0.372420 0.867772 -0.545938
C166  C     C_3   0.522392 0.351647 0.859376 -0.010161
H96   H     H_    0.489709 0.338015 0.780952 0.218246
H97   H     H_    0.560191 0.320880 0.915225 0.113628
H98   H     H_    0.556501 0.382982 0.871663 0.210059
O119  O     O_3   0.050406 0.268384 0.874308 -0.562925
C167  C     C_3   0.027100 0.316396 0.878788 -0.287151
H99   H     H_    0.033202 0.320766 0.944172 0.169705
H100  H     H_    0.970139 0.323757 0.806523 0.146175
H101  H     H_    0.059337 0.347035 0.884634 0.178719
O120  O     O_3   0.977583 0.871943 0.869533 -0.527300
C168  C     C_3   0.023698 0.850444 0.861894 -0.071336
H102  H     H_    0.991031 0.836576 0.783688 0.194251
H103  H     H_    0.061086 0.819595 0.917949 0.131251
H104  H     H_    0.058271 0.881437 0.874446 0.200455
C169  C     C_2   0.572746 0.716129 0.882942 0.951286
O121  O     O_2   0.618788 0.723583 0.882468 -0.486994
O122  O     O_R   0.525810 0.674933 0.829863 -0.774019
H105  H     H_    0.534117 0.655076 0.791962 0.384998
C170  C     C_2   0.387378 0.348849 0.869670 0.963727
O123  O     O_2   0.347309 0.379838 0.799145 -0.556146
O124  O     O_R   0.361920 0.320239 0.903545 -0.834718
H106  H     H_    0.311347 0.331045 0.868016 0.360615
C171  C     C_2   0.057699 0.175882 0.892379 0.979694
O125  O     O_2   0.054421 0.175591 0.822956 -0.449427
O126  O     O_R   0.061354 0.129451 0.934931 -0.817159
H107  H     H_    0.067800 0.098785 0.908750 0.374843
C172  C     C_2   0.886964 0.849492 0.868686 0.953416
O127  O     O_2   0.847645 0.880515 0.798008 -0.551786
O128  O     O_R   0.860421 0.821391 0.901453 -0.820574
H108  H     H_    0.809845 0.832675 0.865217 0.368415
C173  C     C_2   0.674901 0.784859 0.129560 0.999105
O129  O     O_2   0.647710 0.825727 0.120773 -0.591348
O130  O     O_R   0.750120 0.779237 0.203531 -0.800578
H109  H     H_    0.775723 0.811374 0.244701 0.323471
C174  C     C_2   0.583458 0.380920 0.068387 1.039863
O131  O     O_2   0.575980 0.427550 0.063039 -0.521719
O132  O     O_R   0.641531 0.359463 0.088206 -0.839680
H110  H     H_    0.670010 0.386428 0.089271 0.333416
C175  C     C_2   0.162441 0.281898 0.086470 0.971886
O133  O     O_2   0.169602 0.309000 0.146580 -0.680130
O134  O     O_R   0.191342 0.297196 0.048409 -0.745213
H111  H     H_    0.210558 0.333406 0.068195 0.318852
C176  C     C_2   0.083406 0.880558 0.070079 1.042623
O135  O     O_2   0.076256 0.927223 0.064547 -0.521829
O136  O     O_R   0.141564 0.858670 0.090592 -0.838282
H112  H     H_    0.170685 0.885390 0.092517 0.332394
C177  C     C_2   0.671358 0.691316 0.093552 0.867182
O137  O     O_2   0.665280 0.654174 0.128110 -0.569183
O138  O     O_R   0.717910 0.689017 0.080290 -0.743941
H113  H     H_    0.734856 0.652837 0.086485 0.334254
C178  C     C_2   0.497845 0.361138 0.087265 0.933969
O139  O     O_2   0.460613 0.399769 0.057643 -0.542517
O140  O     O_R   0.512488 0.329513 0.161914 -0.806015
H114  H     H_    0.487921 0.341820 0.183254 0.343947
C179  C     C_2   0.176282 0.187477 0.106453 1.018513
O141  O     O_2   0.185265 0.161354 0.170133 -0.515848
O142  O     O_R   0.215578 0.176618 0.082758 -0.764196
H115  H     H_    0.246547 0.144504 0.118998 0.354318
C180  C     C_2   0.996696 0.861170 0.087118 0.942842
O143  O     O_2   0.958663 0.899440 0.056429 -0.531587
O144  O     O_R   0.012222 0.829981 0.162876 -0.796897
H116  H     H_    0.987343 0.842157 0.183809 0.353913
C181  C     C_2   0.649981 0.734045 0.697590 0.999777
O145  O     O_2   0.662912 0.702762 0.758897 -0.523518
O146  O     O_R   0.705904 0.763012 0.723562 -0.808402
H117  H     H_    0.754746 0.751902 0.791923 0.367213
C182  C     C_2   0.624943 0.314346 0.653683 1.069476
O147  O     O_2   0.629653 0.351307 0.617151 -0.584003
O148  O     O_R   0.667799 0.311335 0.758554 -0.744567
H118  H     H_    0.698054 0.342966 0.795453 0.346817
C183  C     C_2   0.149688 0.231879 0.696709 0.990841
O149  O     O_2   0.162874 0.199086 0.756181 -0.531612
O150  O     O_R   0.205335 0.262098 0.724483 -0.806917
H119  H     H_    0.254232 0.250821 0.792592 0.365719
C184  C     C_2   0.069573 0.849650 0.531891 1.006160
O151  O     O_2   0.074093 0.862431 0.472505 -0.613955
O152  O     O_R   0.092434 0.883285 0.608062 -0.740455
H120  H     H_    0.112685 0.916239 0.607173 0.355896
O153  O     O_3   0.537682 0.754528 0.684039 -0.566430
C185  C     C_3   0.551759 0.807417 0.705713 -0.252727
H121  H     H_    0.500253 0.829340 0.660033 0.130089
H122  H     H_    0.584004 0.824104 0.692396 0.158249
H123  H     H_    0.584507 0.812679 0.787665 0.242356
O154  O     O_3   0.531216 0.290941 0.672044 -0.557690
C186  C     C_3   0.557958 0.252456 0.746503 -0.176342
H124  H     H_    0.515391 0.224350 0.718383 0.121912
H125  H     H_    0.575430 0.270723 0.814680 0.169903
H126  H     H_    0.605959 0.232130 0.771522 0.179477
O155  O     O_3   0.037697 0.246723 0.684815 -0.519179
C187  C     C_3   0.050579 0.298807 0.713424 -0.160807
H127  H     H_    0.001074 0.316428 0.687585 0.143521
H128  H     H_    0.068633 0.322581 0.684079 0.106307
H129  H     H_    0.094656 0.300505 0.797653 0.243953
O156  O     O_3   0.996440 0.831912 0.594206 -0.563352
C188  C     C_3   0.052876 0.816078 0.697644 -0.098869
H130  H     H_    0.037060 0.781916 0.714712 0.131033
H131  H     H_    0.064648 0.847478 0.747031 0.199191
H132  H     H_    0.104196 0.807635 0.719403 0.153907
O157  O     O_3   0.365534 0.834150 0.334950 -0.624519
C189  C     C_3   0.338549 0.871177 0.257647 -0.203820
H133  H     H_    0.323151 0.855687 0.188617 0.163015
H134  H     H_    0.378632 0.902028 0.290288 0.197125
H135  H     H_    0.290086 0.889879 0.231381 0.192775
O158  O     O_3   0.361829 0.150827 0.315268 -0.600688
C190  C     C_3   0.407072 0.115099 0.397902 -0.218414
H136  H     H_    0.387006 0.075899 0.368309 0.213841
H137  H     H_    0.405116 0.122219 0.455155 0.203782
H138  H     H_    0.463834 0.115378 0.435266 0.139379
O159  O     O_3   0.866022 0.335902 0.338699 -0.624041
C191  C     C_3   0.839206 0.373826 0.262784 -0.182806
H139  H     H_    0.828299 0.360097 0.196139 0.163902
H140  H     H_    0.877346 0.406238 0.298260 0.196059
H141  H     H_    0.787925 0.389520 0.231722 0.191891
O160  O     O_3   0.982522 0.650429 0.574778 -0.683496
C192  C     C_3   0.946181 0.611257 0.576925 -0.196890
H142  H     H_    0.888378 0.621613 0.526921 0.238225
H143  H     H_    0.970636 0.607049 0.655894 0.158152
H144  H     H_    0.952128 0.573741 0.555360 0.182210

loop_
_geom_bond_atom_site_label_1
_geom_bond_atom_site_label_2
_ccdc_geom_bond_type
O130  H109  S    
C55   C59   S    
C106  O50   A    
C173  O129  D    
O80   H54   S    
C127  H13   S    
O146  H117  S    
O12   Zn16  S    
C153  O97   D    
C107  O51   A    
C176  O135  D    
C140  H52   S    
C108  O44   A    
C2    O14   A    
C95   O107  S    
C24   C180  S    
O9    Zn13  S    
C26   C50   A    
C69   O73   S    
C70   O74   S    
C4    C41   S    
C138  H44   S    
C135  H37   S    
C29   C33   A    
C22   C174  S    
C96   C156  S    
C181  O145  D    
C123  O58   S    
C9    C13   A    
C187  H127  S    
O3    Zn11  S    
C11   C15   A    
O106  C158  S    
O1    Zn1   S    
C76   C148  S    
C12   C16   A    
C179  O142  S    
C71   O75   S    
C60   O68   S    
C61   C62   A    
O6    Zn2   S    
C160  H88   S    
C28   C60   S    
O58   H3    S    
C170  O124  S    
O69   C133  S    
C21   C173  S    
C41   C49   A    
O108  C160  S    
C47   O27   A    
C25   C29   A    
C27   C31   A    
O148  H118  S    
C7    C119  A    
C28   C32   A    
C3    O23   A    
C192  H143  S    
C30   C34   A    
C125  H5    S    
C165  H94   S    
C6    C162  S    
C184  O151  D    
C17   C21   S    
C29   C45   S    
O32   Zn8   S    
C19   C23   S    
C75   C76   S    
C78   C82   A    
O31   Zn7   S    
O86   H57   S    
C37   O153  S    
C68   C72   A    
C48   O20   A    
O158  C190  S    
C90   O6    A    
O107  C159  S    
C50   C54   S    
O120  C168  S    
C74   C146  S    
C91   O7    A    
C167  H100  S    
C184  O152  S    
O117  C165  S    
O114  H91   S    
C56   O64   S    
C191  H139  S    
C136  H39   S    
O50   Zn2   S    
C152  H72   S    
C167  H99   S    
C149  H63   S    
C59   O67   S    
C84   C88   A    
O44   Zn16  S    
C4    O24   A    
O110  H89   S    
C100  O12   A    
C147  O89   D    
C61   C74   S    
C83   C91   S    
C39   O155  S    
C60   O72   S    
O38   Zn6   S    
C79   C96   S    
C141  O78   S    
C168  H102  S    
C88   O96   S    
C17   O117  S    
C185  H121  S    
C46   O26   A    
C49   C53   S    
O26   Zn2   S    
O156  C188  S    
C130  H22   S    
O27   Zn3   S    
C69   C70   A    
O18   Zn10  S    
O118  C166  S    
C85   O93   S    
O56   H2    S    
C61   C65   A    
C57   O69   S    
C122  O55   D    
C63   C76   S    
C158  H80   S    
C150  H65   S    
C169  O121  D    
C164  O116  S    
O11   Zn15  S    
C98   O34   A    
C103  O47   A    
C156  O103  D    
C36   C184  S    
O126  H107  S    
O46   Zn10  S    
C90   O30   A    
O13   Zn5   S    
C102  O38   A    
C66   C70   A    
C174  O131  D    
C7    C163  S    
C22   C178  S    
C128  H14   S    
C45   O25   A    
C64   C68   A    
C105  C113  S    
C127  H12   S    
O4    Zn12  S    
C55   O63   S    
C136  H38   S    
O35   Zn11  S    
O2    Zn14  S    
O17   Zn9   S    
O119  C167  S    
C77   C94   S    
C131  H23   S    
C132  H26   S    
C121  O54   S    
C118  C122  S    
O40   Zn8   S    
C19   O119  S    
O132  H110  S    
C131  H24   S    
C146  O88   S    
C135  H36   S    
C62   C73   S    
C21   C177  S    
C110  C114  A    
C51   C55   S    
C191  H141  S    
C87   O95   S    
C57   O65   S    
C38   O154  S    
C35   C183  S    
C102  O46   A    
C124  O60   S    
C178  O139  D    
C25   C57   S    
C1    O13   A    
C56   O160  S    
C33   C181  S    
O64   C128  S    
C171  O126  S    
C27   C51   A    
C183  O149  D    
C152  H71   S    
C154  O100  S    
C189  H134  S    
C62   C66   A    
C1    O21   A    
O76   C140  S    
O3    Zn7   S    
C10   C14   A    
C168  H104  S    
O4    Zn16  S    
C134  H34   S    
O1    Zn5   S    
C22   C110  S    
O2    Zn2   S    
C116  C120  A    
C99   O35   A    
C72   O76   S    
C74   C142  S    
C68   C100  S    
C63   C67   A    
C5    C9    A    
C143  O81   D    
C58   O66   S    
C73   C141  S    
C96   O108  S    
O155  C187  S    
C8    C12   A    
C17   C169  S    
C54   C58   S    
C142  O79   D    
C80   C95   S    
C188  H131  S    
C173  O130  S    
C137  H42   S    
C42   C50   A    
C113  C117  A    
C95   C155  S    
C107  O43   A    
C26   C30   A    
C115  C119  A    
O88   H58   S    
C108  O52   A    
C73   C145  S    
C2    O22   A    
C105  O41   A    
C53   O157  S    
C112  C116  A    
C103  O39   A    
O54   H1    S    
C14   C110  A    
C133  H29   S    
C18   C22   S    
C30   C46   S    
C139  H48   S    
O72   C136  S    
C137  H43   S    
C136  H40   S    
O3    Zn3   S    
O159  C191  S    
O4    Zn4   S    
C140  H51   S    
C23   C111  S    
C129  H18   S    
C159  H85   S    
C13   C17   S    
C89   O5    A    
C132  H28   S    
C66   C98   S    
C12   C101  S    
C55   O159  S    
C89   O29   A    
O68   C132  S    
C183  O150  S    
C64   C75   S    
C158  H82   S    
C37   C41   A    
C123  O57   D    
C162  O112  S    
O142  H115  S    
C75   C147  S    
C54   O62   S    
C126  H10   S    
C139  H47   S    
C129  H17   S    
O49   Zn1   S    
C84   C92   S    
C187  H129  S    
C81   C85   A    
O52   Zn4   S    
C5    C161  S    
O160  C192  S    
C160  H87   S    
C133  H31   S    
C138  H46   S    
C83   C87   A    
C87   C88   A    
C3    C42   S    
C170  O123  D    
C181  O146  S    
C73   C74   S    
C186  H124  S    
C80   C84   A    
O105  C157  S    
O36   Zn12  S    
C186  H126  S    
O112  H90   S    
C157  H77   S    
C77   C78   A    
C15   C19   S    
O20   Zn12  S    
C152  H70   S    
C10   C103  S    
C160  H86   S    
C128  H16   S    
C161  O110  S    
C19   C171  S    
C192  H142  S    
C166  H98   S    
C125  H6    S    
C177  O138  S    
C67   C71   A    
C138  H45   S    
C144  O83   D    
C180  O144  S    
O41   Zn13  S    
O104  H76   S    
C175  O134  S    
C24   C112  S    
O67   C131  S    
C97   O33   A    
C155  O102  S    
C67   C99   S    
O10   Zn14  S    
C4    O16   A    
C81   C89   S    
C100  O36   A    
C176  O136  S    
O94   C150  S    
C101  O37   A    
O92   H60   S    
C18   C170  S    
C31   C47   S    
O157  C189  S    
C32   C48   S    
C190  H137  S    
C104  O40   A    
C167  H101  S    
C153  O98   S    
C191  H140  S    
C145  O86   S    
O7    Zn3   S    
O8    Zn4   S    
O140  H114  S    
C94   O106  S    
C134  H32   S    
O82   H55   S    
C8    C164  S    
C53   C57   S    
C151  H67   S    
O70   C134  S    
C82   C86   A    
C59   O71   S    
C33   C37   A    
C150  H64   S    
C35   C39   A    
O152  H120  S    
C141  O77   D    
C185  H122  S    
O98   H73   S    
C139  H49   S    
C77   C81   A    
C190  H138  S    
C98   O10   A    
C20   O120  S    
C130  H21   S    
C144  O84   S    
O28   Zn4   S    
O14   Zn6   S    
C101  O45   A    
C26   C58   S    
C85   C86   A    
C54   O158  S    
O33   Zn9   S    
C31   C35   A    
C129  H19   S    
C32   C36   A    
O102  H75   S    
O134  H111  S    
C16   C112  A    
C185  H123  S    
O1    Zn9   S    
C164  O115  D    
O144  H116  S    
O2    Zn6   S    
C119  C123  S    
C145  O85   D    
O39   Zn7   S    
C151  H69   S    
C6    C10   A    
C192  H144  S    
C166  H96   S    
C131  H25   S    
C38   C42   A    
C165  H93   S    
C99   O11   A    
C40   O156  S    
C82   C90   S    
C108  C116  S    
O95   C151  S    
C75   C143  S    
C34   C182  S    
C79   C83   A    
C43   C51   A    
C148  O91   D    
C76   C144  S    
C9    C104  S    
C65   C69   A    
C159  H84   S    
C11   C102  S    
C3    O15   A    
C106  O42   A    
C172  O127  D    
C121  O53   D    
C25   C49   A    
C148  O92   S    
C97   O9    A    
C56   C60   S    
C71   C72   A    
C117  C121  S    
C128  H15   S    
C146  O87   D    
C47   O19   A    
O122  H105  S    
C163  O114  S    
O74   C138  S    
C21   C109  S    
O100  H74   S    
C93   C94   S    
C166  H97   S    
C124  O59   D    
C14   C18   S    
C95   C96   S    
O63   C127  S    
O136  H112  S    
O5    Zn1   S    
C165  H95   S    
C187  H128  S    
C171  O125  D    
O61   C125  S    
C159  H83   S    
C7    C11   A    
C189  H135  S    
C106  C114  S    
C105  O49   A    
C168  H103  S    
C134  H33   S    
C78   C93   S    
C190  H136  S    
C93   O105  S    
O34   Zn10  S    
O73   C137  S    
O43   Zn15  S    
O96   C152  S    
C178  O140  S    
C24   C176  S    
O47   Zn11  S    
C20   C24   S    
C122  O56   S    
C92   O32   A    
C149  H62   S    
C169  O122  S    
C188  H130  S    
C16   C20   S    
O30   Zn6   S    
C13   C109  A    
C172  O128  S    
C93   C153  S    
C120  C124  S    
O93   C149  S    
C92   O8    A    
C182  O148  S    
O22   Zn14  S    
C133  H30   S    
C23   C175  S    
C174  O132  S    
O150  H119  S    
C15   C111  A    
C36   C40   A    
C127  H11   S    
O153  C185  S    
C151  H68   S    
O128  H108  S    
O42   Zn14  S    
O84   H56   S    
C94   C154  S    
C39   C43   A    
O90   H59   S    
O48   Zn12  S    
C140  H50   S    
O51   Zn3   S    
O66   C130  S    
C86   O94   S    
C63   C64   A    
C5    C117  A    
C132  H27   S    
C126  H8    S    
C182  O147  D    
C149  H61   S    
C104  O48   A    
C1    C44   S    
C53   O61   S    
O124  H106  S    
C40   C44   A    
C2    C43   S    
C135  H35   S    
O29   Zn5   S    
O65   C129  S    
C158  H81   S    
O37   Zn5   S    
C20   C172  S    
C107  C115  S    
C162  O111  D    
C114  C118  A    
C126  H9    S    
O75   C139  S    
O25   Zn1   S    
C179  O141  D    
C157  H78   S    
O78   H53   S    
C58   O70   S    
O21   Zn13  S    
C23   C179  S    
O71   C135  S    
O19   Zn11  S    
C8    C120  A    
C45   O17   A    
O24   Zn16  S    
C18   O118  S    
C189  H133  S    
C34   C38   A    
O23   Zn15  S    
C186  H125  S    
C109  C113  A    
C157  H79   S    
O16   Zn8   S    
O154  C186  S    
C46   O18   A    
C150  H66   S    
O45   Zn9   S    
C65   C97   S    
O138  H113  S    
C143  O82   S    
C27   C59   S    
C161  O109  D    
C91   O31   A    
C28   C52   A    
C125  H7    S    
C44   C52   A    
C177  O137  D    
C163  O113  D    
C147  O90   S    
C48   O28   A    
C142  O80   S    
O62   C126  S    
O3    Zn15  S    
C180  O143  D    
C188  H132  S    
O4    Zn8   S    
C137  H41   S    
O1    Zn13  S    
C79   C80   A    
C52   C56   S    
O2    Zn10  S    
O15   Zn7   S    
C156  O104  S    
C175  O133  D    
C130  H20   S    
C154  O99   D    
C111  C115  A    
O60   H4    S    
C155  O101  D    
C6    C118  A    
O116  H92   S    
