data_mof_unit_53514.cif
_audit_creation_date              2012-12-11T14:30:18-0500
_audit_creation_method            fapswitch 2.2
_symmetry_space_group_name_H-M    P1
_symmetry_Int_Tables_number       1
_space_group_crystal_system       triclinic
_cell_length_a                    12.652183
_cell_length_b                    12.652216
_cell_length_c                    27.065413
_cell_angle_alpha                 90.000126
_cell_angle_beta                  90.000291
_cell_angle_gamma                 120.007597
_cell_volume                      3751.8382035

loop_
_atom_site_label
_atom_site_type_symbol
_atom_type_description
_atom_site_fract_x
_atom_site_fract_y
_atom_site_fract_z
_atom_type_partial_charge
C1    C     C_R   0.558638 0.455937 0.822414 0.546061
C2    C     C_R   0.455937 0.558635 0.177587 0.546057
C3    C     C_R   0.004893 0.311593 0.474380 -0.124251
C4    C     C_R   0.306466 0.994659 0.025554 -0.124239
C5    C     C_R   0.688351 0.693434 0.474401 -0.124203
C6    C     C_R   0.311749 0.005207 0.525588 -0.124248
C7    C     C_R   0.994517 0.306394 0.974460 -0.124233
C8    C     C_R   0.693533 0.688247 0.525581 -0.124197
C9    C     C_R   0.311705 0.005119 0.974402 -0.124249
C10   C     C_R   0.994437 0.306354 0.525532 -0.124228
C11   C     C_R   0.693514 0.688269 0.974417 -0.124197
C12   C     C_R   0.441349 0.897269 0.322425 0.546008
C13   C     C_R   0.102771 0.544087 0.177569 0.546115
C14   C     C_R   0.992569 0.498186 0.974269 0.063157
C15   C     C_R   0.505336 0.006858 0.525810 0.063169
C16   C     C_R   0.501645 0.494556 0.974222 0.063159
C17   C     C_R   0.992566 0.498185 0.525730 0.063156
C18   C     C_R   0.505334 0.006851 0.974189 0.063167
C19   C     C_R   0.501637 0.494561 0.525780 0.063160
C20   C     C_R   0.498198 0.992594 0.474266 0.063158
C21   C     C_R   0.897266 0.441346 0.677574 0.546006
C22   C     C_R   0.006831 0.505326 0.025814 0.063166
C23   C     C_R   0.494550 0.501650 0.474222 0.063157
C24   C     C_R   0.498195 0.992587 0.025733 0.063157
C25   C     C_R   0.006829 0.505325 0.474186 0.063164
C26   C     C_R   0.494557 0.501641 0.025780 0.063158
C27   C     C_R   0.990256 0.689284 0.974449 -0.124330
C28   C     C_R   0.698593 0.008866 0.525656 -0.124365
C29   C     C_R   0.310476 0.301173 0.974396 -0.124385
C30   C     C_R   0.990338 0.689326 0.525559 -0.124333
C31   C     C_R   0.698635 0.008948 0.974353 -0.124363
C32   C     C_R   0.544088 0.102775 0.822431 0.546119
C33   C     C_R   0.310435 0.301212 0.525611 -0.124387
C34   C     C_R   0.689180 0.990052 0.474466 -0.124325
C35   C     C_R   0.009066 0.698697 0.025639 -0.124359
C36   C     C_R   0.301073 0.310578 0.474415 -0.124379
C37   C     C_R   0.689223 0.990135 0.025542 -0.124328
C38   C     C_R   0.009146 0.698738 0.474369 -0.124357
C39   C     C_R   0.301112 0.310536 0.025593 -0.124381
C40   C     C_R   0.959285 0.576366 0.897366 -0.135250
C41   C     C_R   0.616837 0.040204 0.602714 -0.135288
C42   C     C_R   0.423430 0.383086 0.897315 -0.135275
C43   C     C_R   0.558639 0.455935 0.677585 0.546066
C44   C     C_R   0.959322 0.576385 0.602637 -0.135249
C45   C     C_R   0.616856 0.040236 0.897290 -0.135286
C46   C     C_R   0.423411 0.383100 0.602688 -0.135279
C47   C     C_R   0.576327 0.959202 0.397373 -0.135247
C48   C     C_R   0.040281 0.616882 0.102708 -0.135282
C49   C     C_R   0.383041 0.423473 0.397323 -0.135270
C50   C     C_R   0.576345 0.959239 0.102630 -0.135246
C51   C     C_R   0.040313 0.616898 0.397296 -0.135280
C52   C     C_R   0.383058 0.423452 0.102681 -0.135273
C53   C     C_R   0.049597 0.524426 0.127799 -0.004951
C54   C     C_R   0.897265 0.441346 0.822426 0.546007
C55   C     C_R   0.474733 0.950214 0.372249 -0.004942
C56   C     C_R   0.475600 0.525142 0.127793 -0.004964
C57   C     C_R   0.049588 0.524424 0.372200 -0.004955
C58   C     C_R   0.474728 0.950207 0.127750 -0.004941
C59   C     C_R   0.475601 0.525145 0.372208 -0.004964
C60   C     C_R   0.524431 0.049623 0.627795 -0.004944
C61   C     C_R   0.950190 0.474714 0.872253 -0.004934
C62   C     C_R   0.525151 0.475596 0.627791 -0.004961
C63   C     C_R   0.524429 0.049614 0.872204 -0.004947
C64   C     C_R   0.950187 0.474711 0.627747 -0.004933
C65   C     C_R   0.544088 0.102776 0.677568 0.546116
C66   C     C_R   0.525151 0.475599 0.872209 -0.004963
C67   C     C_R   0.982073 0.589424 0.948413 0.016763
C68   C     C_R   0.607021 0.017246 0.551678 0.016784
C69   C     C_R   0.410357 0.392841 0.948359 0.016772
C70   C     C_R   0.982111 0.589445 0.551590 0.016769
C71   C     C_R   0.607040 0.017281 0.948326 0.016779
C72   C     C_R   0.410334 0.392860 0.551645 0.016778
C73   C     C_R   0.589381 0.981987 0.448420 0.016751
C74   C     C_R   0.017328 0.607066 0.051672 0.016771
C75   C     C_R   0.392791 0.410408 0.448369 0.016757
C76   C     C_R   0.455938 0.558635 0.322413 0.546056
C77   C     C_R   0.589400 0.982024 0.051583 0.016757
C78   C     C_R   0.017364 0.607085 0.448332 0.016766
C79   C     C_R   0.392812 0.410384 0.051636 0.016763
C80   C     C_R   0.970816 0.390167 0.897930 -0.128085
C81   C     C_R   0.419298 0.029030 0.602121 -0.128154
C82   C     C_R   0.609696 0.580802 0.897878 -0.128090
C83   C     C_R   0.970773 0.390146 0.602065 -0.128083
C84   C     C_R   0.419274 0.028978 0.897873 -0.128152
C85   C     C_R   0.609706 0.580784 0.602120 -0.128091
C86   C     C_R   0.390239 0.970947 0.397917 -0.128090
C87   C     C_R   0.441349 0.897269 0.177575 0.546008
C88   C     C_R   0.028894 0.419238 0.102136 -0.128158
C89   C     C_R   0.580847 0.609651 0.397869 -0.128090
C90   C     C_R   0.390213 0.970897 0.102078 -0.128088
C91   C     C_R   0.028847 0.419214 0.397860 -0.128155
C92   C     C_R   0.580833 0.609658 0.102130 -0.128091
C93   C     C_R   0.987650 0.398768 0.948706 0.013968
C94   C     C_R   0.410953 0.011989 0.551356 0.013921
C95   C     C_R   0.601087 0.589048 0.948655 0.013970
C96   C     C_R   0.987607 0.398747 0.551290 0.013963
C97   C     C_R   0.410929 0.011940 0.948639 0.013927
C98   C     C_R   0.102769 0.544087 0.322430 0.546117
C99   C     C_R   0.601094 0.589036 0.551345 0.013963
C100  C     C_R   0.398836 0.987782 0.448692 0.013981
C101  C     C_R   0.011852 0.410889 0.051370 0.013936
C102  C     C_R   0.589089 0.601047 0.448646 0.013986
C103  C     C_R   0.398810 0.987731 0.051302 0.013976
C104  C     C_R   0.011811 0.410868 0.448626 0.013943
C105  C     C_R   0.589079 0.601053 0.051354 0.013978
C106  C     C_R   0.004968 0.311632 0.025612 -0.124251
C107  C     C_R   0.306512 0.994750 0.474437 -0.124243
C108  C     C_R   0.688329 0.693452 0.025597 -0.124201
Cr1   Cr    Cr6+3 0.487630 0.241180 0.750000 1.008719
Cr2   Cr    Cr6+3 0.753550 0.512370 0.750000 1.008729
Cr3   Cr    Cr6+3 0.758820 0.246450 0.750000 1.008743
Cr4   Cr    Cr6+3 0.241180 0.487630 0.250000 1.008718
Cr5   Cr    Cr6+3 0.512370 0.753550 0.250000 1.008726
Cr6   Cr    Cr6+3 0.246450 0.758820 0.250000 1.008741
H1    H     H_    0.056158 0.698296 0.122283 0.118456
H2    H     H_    0.698245 0.056061 0.877710 0.118433
H3    H     H_    0.943505 0.641956 0.622217 0.118468
H4    H     H_    0.357869 0.301669 0.877739 0.118421
H5    H     H_    0.016723 0.777333 0.044868 0.093818
H6    H     H_    0.760096 0.982276 0.455243 0.093826
H7    H     H_    0.222476 0.239544 0.044823 0.093832
H8    H     H_    0.016836 0.777391 0.455143 0.093827
H9    H     H_    0.760156 0.982394 0.044769 0.093825
H10   H     H_    0.222423 0.239600 0.455186 0.093837
H11   H     H_    0.777183 0.016431 0.544893 0.093804
H12   H     H_    0.641833 0.943262 0.377804 0.118516
H13   H     H_    0.982573 0.760246 0.955217 0.093818
H14   H     H_    0.239405 0.222612 0.544848 0.093815
H15   H     H_    0.777243 0.016548 0.955119 0.093811
H16   H     H_    0.982689 0.760305 0.544794 0.093817
H17   H     H_    0.239460 0.222561 0.955161 0.093823
H18   H     H_    0.035229 0.346945 0.120956 0.129007
H19   H     H_    0.311714 0.964850 0.379079 0.128918
H20   H     H_    0.653228 0.688237 0.120963 0.128905
H21   H     H_    0.035149 0.346903 0.379036 0.128994
H22   H     H_    0.311672 0.964767 0.120912 0.128930
H23   H     H_    0.301619 0.357915 0.122251 0.118442
H24   H     H_    0.653256 0.688220 0.379034 0.128891
H25   H     H_    0.347048 0.035450 0.620933 0.129036
H26   H     H_    0.964637 0.311601 0.879101 0.128947
H27   H     H_    0.688319 0.653139 0.620946 0.128936
H28   H     H_    0.347005 0.035363 0.879058 0.129024
H29   H     H_    0.964564 0.311566 0.620892 0.128960
H30   H     H_    0.688298 0.653171 0.879051 0.128922
H31   H     H_    0.009479 0.238989 0.044955 0.092925
H32   H     H_    0.229417 0.990372 0.455082 0.092897
H33   H     H_    0.761019 0.770597 0.044954 0.092801
H34   H     H_    0.056220 0.698327 0.377724 0.118470
H35   H     H_    0.009379 0.238937 0.455035 0.092920
H36   H     H_    0.229355 0.990250 0.044906 0.092901
H37   H     H_    0.761052 0.770570 0.455044 0.092794
H38   H     H_    0.239146 0.009798 0.544923 0.092934
H39   H     H_    0.990063 0.229260 0.955112 0.092905
H40   H     H_    0.770709 0.760904 0.544931 0.092816
H41   H     H_    0.239088 0.009682 0.955064 0.092930
H42   H     H_    0.989955 0.229205 0.544878 0.092910
H43   H     H_    0.770681 0.760937 0.955066 0.092809
H44   H     H_    0.641870 0.943334 0.122202 0.118503
H45   H     H_    0.301591 0.357947 0.377754 0.118455
H46   H     H_    0.698211 0.055995 0.622297 0.118420
H47   H     H_    0.943434 0.641920 0.877789 0.118482
H48   H     H_    0.357840 0.301694 0.622266 0.118409
O1    O     O_R   0.460870 0.120930 0.805240 -0.522779
O2    O     O_R   0.120930 0.460870 0.194760 -0.522777
O3    O     O_R   0.539130 0.660060 0.305240 -0.522760
O4    O     O_R   0.339940 0.879070 0.194760 -0.522718
O5    O     O_R   0.498910 0.350470 0.801870 -0.500429
O6    O     O_R   0.851560 0.501090 0.698130 -0.500407
O7    O     O_R   0.649530 0.148440 0.801870 -0.500403
O8    O     O_R   0.498910 0.350470 0.698130 -0.500431
O9    O     O_R   0.851560 0.501090 0.801870 -0.500409
O10   O     O_R   0.649530 0.148440 0.698130 -0.500400
O11   O     O_R   0.350470 0.498910 0.301870 -0.500431
O12   O     O_R   0.660060 0.539130 0.694760 -0.522768
O13   O     O_R   0.501090 0.851560 0.198130 -0.500412
O14   O     O_R   0.148440 0.649530 0.301870 -0.500408
O15   O     O_R   0.350470 0.498910 0.198130 -0.500431
O16   O     O_R   0.501090 0.851560 0.301870 -0.500416
O17   O     O_R   0.148440 0.649530 0.198130 -0.500405
O18   O     O_3   0.666667 0.333333 0.750000 -0.230050
O19   O     O_3   0.333333 0.666667 0.250000 -0.230041
O20   O     O_R   0.879070 0.339940 0.805240 -0.522720
O21   O     O_R   0.460870 0.120930 0.694760 -0.522784
O22   O     O_R   0.660060 0.539130 0.805240 -0.522763
O23   O     O_R   0.879070 0.339940 0.694760 -0.522723
O24   O     O_R   0.120930 0.460870 0.305240 -0.522773
O25   O     O_R   0.539130 0.660060 0.194760 -0.522762
O26   O     O_R   0.339940 0.879070 0.305240 -0.522714

loop_
_geom_bond_atom_site_label_1
_geom_bond_atom_site_label_2
_ccdc_geom_bond_type
C3    C104  A    
C12   O16   A    
C32   O7    A    
C4    C103  A    
C35   C74   A    
C89   C102  A    
C45   C71   A    
C35   H5    S    
C45   H2    S    
C91   C104  A    
C58   C87   S    
C15   C94   A    
C88   C101  A    
Cr3   O20   S    
C64   C83   A    
Cr1   O8    S    
C44   C64   A    
C106  H31   S    
C46   C62   A    
C18   C24   A    
C84   C97   A    
C44   H3    S    
C76   O11   A    
C28   C68   A    
C8    C99   A    
Cr4   O24   S    
C43   O12   A    
C87   O4    A    
C1    O5    A    
C61   C80   A    
Cr5   O25   S    
C32   O1    A    
C101  C106  A    
C33   C36   A    
Cr6   O26   S    
C30   C38   A    
Cr3   O10   S    
C59   C89   A    
C87   O13   A    
C2    O25   A    
C21   C64   S    
Cr1   O5    S    
C33   C72   A    
C30   C70   A    
C37   H9    S    
C27   H13   S    
C1    O22   A    
Cr5   O19   S    
C6    C94   A    
C40   C67   A    
C7    H39   S    
C6    C107  A    
C49   C75   A    
C44   C70   A    
C51   C57   A    
C18   C97   A    
C10   C96   A    
C52   C79   A    
C8    H40   S    
C14   C93   A    
C46   C72   A    
Cr5   O13   S    
C108  H33   S    
C6    H38   S    
Cr2   O9    S    
Cr1   O21   S    
C31   C71   A    
Cr4   O11   S    
Cr2   O22   S    
C17   C70   A    
C34   H6    S    
C19   C72   A    
C48   C53   A    
Cr2   O6    S    
C7    C93   A    
C26   C105  A    
C62   C85   A    
C43   O8    A    
Cr6   O4    S    
C41   C68   A    
C29   C69   A    
Cr2   O12   S    
C16   C26   A    
C15   C20   A    
Cr4   O2    S    
C105  C108  A    
Cr3   O23   S    
C3    H35   S    
C65   O10   A    
C25   C78   A    
C50   C58   A    
C48   C74   A    
C42   C66   A    
C47   C73   A    
C82   H30   S    
Cr1   O1    S    
C10   H42   S    
C107  H32   S    
C19   C99   A    
C42   H4    S    
C38   C78   A    
C27   C35   A    
C30   H16   S    
C37   C77   A    
C45   C63   A    
C33   H14   S    
C50   H44   S    
C40   C61   A    
C31   C37   A    
Cr3   O7    S    
C39   C79   A    
C52   H23   S    
C19   C23   A    
C13   C53   S    
C85   C99   A    
C36   C75   A    
C66   C82   A    
C41   H46   S    
C98   O14   A    
C60   C81   A    
C24   C77   A    
C86   H19   S    
C20   C100  A    
Cr2   O18   S    
C14   C67   A    
C29   C39   A    
C54   O20   A    
C1    C66   S    
C7    C106  A    
C76   O3    A    
C17   C96   A    
C58   C90   A    
C38   H8    S    
C90   H22   S    
C48   H1    S    
C2    O15   A    
C60   C65   S    
C89   H24   S    
C22   C101  A    
Cr3   O18   S    
C84   H28   S    
C22   C74   A    
C85   H27   S    
C47   H12   S    
C50   C77   A    
C86   C100  A    
C28   H11   S    
C11   H43   S    
C13   O2    A    
C47   C55   A    
C65   O21   A    
C11   C95   A    
C18   C71   A    
C81   H25   S    
C5    C102  A    
C100  C107  A    
C9    C97   A    
C82   C95   A    
C57   C91   A    
C36   H10   S    
C21   O6    A    
C54   O9    A    
C92   H20   S    
C16   C69   A    
C41   C60   A    
C23   C75   A    
C5    H37   S    
C5    C8    A    
C25   C104  A    
C21   O23   A    
Cr4   O19   S    
C54   C61   S    
C32   C63   S    
Cr6   O19   S    
C4    H36   S    
C15   C68   A    
C26   C79   A    
C49   C59   A    
C63   C84   A    
C24   C103  A    
C17   C25   A    
C14   C22   A    
C55   C86   A    
C80   C93   A    
C51   C78   A    
C40   H47   S    
C31   H15   S    
C3    C10   A    
C80   H26   S    
Cr5   O3    S    
C81   C94   A    
C16   C95   A    
Cr1   O18   S    
C29   H17   S    
C51   H34   S    
C83   C96   A    
C13   O17   A    
C20   C73   A    
Cr5   O16   S    
C53   C88   A    
C42   C69   A    
C57   C98   S    
C90   C103  A    
C12   C55   S    
C27   C67   A    
C34   C73   A    
C28   C34   A    
C23   C102  A    
C92   C105  A    
C56   C92   A    
C91   H21   S    
C9    H41   S    
C98   O24   A    
Cr6   O17   S    
C46   H48   S    
C11   C108  A    
Cr6   O14   S    
C88   H18   S    
C39   H7    S    
C49   H45   S    
C83   H29   S    
C2    C56   S    
C4    C9    A    
C59   C76   S    
C52   C56   A    
C43   C62   S    
Cr4   O15   S    
C12   O26   A    
