data_mof_unit_18798.cif
_audit_creation_date              2012-12-10T20:28:43-0500
_audit_creation_method            fapswitch 2.2
_symmetry_space_group_name_H-M    P1
_symmetry_Int_Tables_number       1
_space_group_crystal_system       triclinic
_cell_length_a                    10.739589
_cell_length_b                    10.57766
_cell_length_c                    9.860497
_cell_angle_alpha                 89.599514
_cell_angle_beta                  90.52066
_cell_angle_gamma                 90.205326
_cell_volume                      1120.06915564

loop_
_atom_site_label
_atom_site_type_symbol
_atom_type_description
_atom_site_fract_x
_atom_site_fract_y
_atom_site_fract_z
_atom_type_partial_charge
C1    C     C_R   0.499595 0.260483 0.500282 0.855195
C2    C     C_R   0.388089 0.934260 0.469208 -0.164596
C3    C     C_R   0.499966 0.871382 0.495866 -0.034473
C4    C     C_R   0.259906 0.509942 0.499518 0.916761
C5    C     C_R   0.612402 0.936300 0.501983 0.002495
C6    C     C_3   0.716439 0.926759 0.603377 -0.550263
C7    C     C_3   0.715592 0.070670 0.606618 0.362275
C8    C     C_R   0.429775 0.414065 0.071257 0.042848
C9    C     C_R   0.561054 0.591142 0.071885 -0.062149
C10   C     C_R   0.561125 0.591125 0.927897 -0.054504
C11   C     C_R   0.429167 0.414484 0.928645 0.035217
C12   C     C_R   0.061407 0.530320 0.623614 -0.173565
C13   C     C_3   0.439442 0.273854 0.923896 0.374981
C14   C     C_3   0.441481 0.273500 0.077722 0.411369
C15   C     C_R   0.500731 0.739571 0.499375 0.892954
C16   C     C_R   0.739643 0.488944 0.501452 0.891184
C17   C     C_R   0.111992 0.584786 0.743138 0.502814
C18   C     C_R   0.055618 0.563617 0.868928 0.369665
C19   C     C_R   0.950440 0.484939 0.878171 0.363742
C20   C     C_R   0.891314 0.447766 0.756034 -0.336627
C21   C     C_R   0.940450 0.483141 0.628734 -0.013734
C22   C     C_3   0.124732 0.356717 0.213336 -0.174238
C23   C     C_R   0.125944 0.518713 0.499099 -0.177261
C24   C     C_3   0.846830 0.142242 0.427592 -0.263724
C25   C     C_3   0.050236 0.723717 0.019928 -0.140848
C26   C     C_3   0.826629 0.351119 0.012476 -0.219094
C27   C     C_R   0.060760 0.490647 0.377868 0.498282
C28   C     C_R   0.933596 0.480445 0.381570 -0.333045
C29   C     C_R   0.872789 0.476636 0.505328 -0.099256
C30   C     C_R   0.611803 0.065645 0.502653 0.018266
C31   C     C_R   0.498893 0.128798 0.498783 -0.052818
C32   C     C_R   0.387571 0.065087 0.470574 -0.191960
F1    F     F_    0.551215 0.234577 0.869982 -0.647071
F2    F     F_    0.555243 0.235411 0.131009 -0.623334
F3    F     F_    0.209012 0.667466 0.737670 -0.636175
H1    H     H_    0.801780 0.885806 0.558533 0.219276
H2    H     H_    0.301813 0.882617 0.453714 0.150603
H3    H     H_    0.686957 0.882180 0.700460 0.184023
H4    H     H_    0.186166 0.301374 0.282944 0.111166
H5    H     H_    0.164529 0.352962 0.110111 0.173326
H6    H     H_    0.031197 0.311705 0.207828 0.133635
H7    H     H_    0.780868 0.214407 0.387443 0.177109
H8    H     H_    0.836039 0.051457 0.372521 0.170747
H9    H     H_    0.942457 0.177779 0.408797 0.166590
H10   H     H_    0.950911 0.706030 0.045420 0.155428
H11   H     H_    0.057314 0.795910 0.937588 0.142980
H12   H     H_    0.683990 0.107825 0.705519 0.179004
H13   H     H_    0.096366 0.763092 0.111551 0.179877
H14   H     H_    0.813431 0.323170 0.119950 0.191853
H15   H     H_    0.868439 0.268802 0.960140 0.161582
H16   H     H_    0.733043 0.374060 0.970870 0.232520
H17   H     H_    0.612913 0.662883 0.126180 0.139293
H18   H     H_    0.613175 0.662744 0.873566 0.131217
H19   H     H_    0.356118 0.227518 0.878385 0.024796
H20   H     H_    0.360227 0.225451 0.124406 -0.004133
H21   H     H_    0.809118 0.389125 0.759405 0.223868
H22   H     H_    0.883148 0.474318 0.286371 0.220506
H23   H     H_    0.301006 0.115909 0.455506 0.125028
N1    N     N_R   0.499160 0.499140 0.142800 -0.071182
N2    N     N_R   0.499160 0.499180 0.857150 -0.066550
O1    O     O_R   0.500020 0.316790 0.614690 -0.586180
O2    O     O_3   0.832132 0.125344 0.568835 -0.596469
O3    O     O_3   0.111301 0.611028 0.984766 -0.527189
O4    O     O_3   0.904937 0.458458 0.007586 -0.607350
O5    O     O_R   0.500000 0.316760 0.385350 -0.578280
O6    O     O_R   0.316770 0.500020 0.614690 -0.576289
O7    O     O_R   0.316760 0.499980 0.385350 -0.585249
O8    O     O_R   0.500000 0.683240 0.614650 -0.592158
O9    O     O_R   0.499980 0.683210 0.385310 -0.629026
O10   O     O_R   0.683240 0.500020 0.614650 -0.629182
O11   O     O_R   0.683230 0.499980 0.385310 -0.627088
O12   O     O_3   0.118945 0.484457 0.253427 -0.532103
Zn1   Zn    Zn3+2 0.500010 0.500020 0.653130 1.018568
Zn2   Zn    Zn3+2 0.499990 0.499980 0.346870 1.006119

loop_
_geom_bond_atom_site_label_1
_geom_bond_atom_site_label_2
_ccdc_geom_bond_type
C12   C17   A    
C14   F2    S    
O11   Zn2   S    
C10   N2    A    
C6    H3    S    
C7    O2    S    
C13   F1    S    
C6    C7    S    
C23   C27   A    
C4    O7    A    
C24   H7    S    
C9    C10   A    
C1    O5    A    
C19   C20   A    
C12   C23   A    
C32   H23   S    
C19   O4    S    
C20   H21   S    
C22   H5    S    
C3    C5    A    
O10   Zn1   S    
C2    C3    A    
C16   C29   S    
C16   O10   A    
O9    Zn2   S    
C7    C30   S    
C16   O11   A    
C26   H16   S    
C4    O6    A    
C11   C13   S    
C2    H2    S    
C30   C31   A    
C9    H17   S    
C8    C11   A    
C15   O9    A    
C22   H4    S    
C12   C21   A    
C22   O12   S    
C28   C29   A    
O5    Zn2   S    
C6    H1    S    
C17   C18   A    
C25   H13   S    
C26   H15   S    
C8    N1    A    
C25   O3    S    
C5    C6    S    
C24   H9    S    
C18   O3    S    
C22   H6    S    
C15   O8    A    
N1    Zn2   S    
C11   N2    A    
C25   H10   S    
N2    Zn1   S    
C1    C31   S    
C14   H20   S    
C3    C15   S    
C20   C21   A    
C10   H18   S    
C2    C32   A    
C13   H19   S    
C5    C30   A    
C26   H14   S    
C27   C28   A    
O7    Zn2   S    
C24   H8    S    
C26   O4    S    
C24   O2    S    
C18   C19   A    
C8    C14   S    
C17   F3    S    
O1    Zn1   S    
O8    Zn1   S    
C13   C14   S    
O6    Zn1   S    
C21   C29   A    
C25   H11   S    
C4    C23   S    
C27   O12   S    
C31   C32   A    
C7    H12   S    
C9    N1    A    
C28   H22   S    
C1    O1    A    
