data_mof_unit_5582.cif
_audit_creation_date              2012-12-11T18:13:22-0500
_audit_creation_method            fapswitch 2.2
_symmetry_space_group_name_H-M    P1
_symmetry_Int_Tables_number       1
_space_group_crystal_system       triclinic
_cell_length_a                    8.188023
_cell_length_b                    12.786577
_cell_length_c                    18.712261
_cell_angle_alpha                 100.053191
_cell_angle_beta                  91.047637
_cell_angle_gamma                 99.123136
_cell_volume                      1902.50138278

loop_
_atom_site_label
_atom_site_type_symbol
_atom_type_description
_atom_site_fract_x
_atom_site_fract_y
_atom_site_fract_z
_atom_type_partial_charge
Ba1   Ba    Ba6+2 0.852780 0.548340 0.465070 1.667274
Ba2   Ba    Ba6+2 0.337060 0.451750 0.534940 1.656860
C1    C     C_3   0.569449 0.889429 0.249497 -0.426184
C2    C     C_3   0.628058 0.815463 0.296447 0.333619
C3    C     C_3   0.440832 0.247603 0.312611 0.334299
C4    C     C_3   0.403250 0.188545 0.234366 -0.151498
C5    C     C_3   0.028211 0.167265 0.737616 0.908353
C6    C     C_3   0.090645 0.132748 0.806082 0.547181
C7    C     C_3   0.543342 0.186691 0.709863 0.362216
C8    C     C_3   0.549093 0.097433 0.753586 -0.272999
C9    C     C_R   0.985995 0.456572 0.048430 -0.013289
C10   C     C_R   0.883773 0.400645 0.094105 0.033506
C11   C     C_R   0.715356 0.364757 0.072287 -0.085604
C12   C     C_3   0.132151 0.752982 0.264495 0.360711
C13   C     C_R   0.653450 0.376014 0.004691 -0.093795
C14   C     C_R   0.757929 0.422796 0.956608 0.031261
C15   C     C_R   0.924142 0.464902 0.978586 0.028487
C16   C     C_R   0.698464 0.426147 0.886611 -0.103539
C17   C     C_R   0.804295 0.467269 0.836008 -0.028989
C18   C     C_R   0.969707 0.514861 0.858641 0.015776
C19   C     C_R   0.028564 0.513820 0.930393 0.007595
C20   C     C_R   0.751489 0.458865 0.762724 -0.013321
C21   C     C_R   0.861950 0.496669 0.713322 -0.296516
C22   C     C_R   0.021954 0.550038 0.735047 0.044722
C23   C     C_3   0.112656 0.775702 0.187919 -0.379250
C24   C     C_R   0.077063 0.561418 0.809370 -0.039426
C25   C     C_R   0.151021 0.500780 0.071246 -0.008965
C26   C     C_R   0.211131 0.496786 0.142345 -0.032624
C27   C     C_R   0.107437 0.442373 0.189636 -0.027048
C28   C     C_R   0.952217 0.381574 0.160084 0.170516
C29   C     C_R   0.236593 0.614773 0.835934 -0.045634
C30   C     C_R   0.296849 0.610164 0.906064 0.035279
C31   C     C_R   0.193179 0.558581 0.953292 0.018347
C32   C     C_R   0.254277 0.552422 0.023645 0.026916
C33   C     C_R   0.461131 0.654491 0.929248 -0.086459
C34   C     C_3   0.225220 0.783760 0.615851 0.401382
C35   C     C_R   0.521922 0.647819 0.998365 -0.093814
C36   C     C_R   0.419241 0.597589 0.046063 0.030829
C37   C     C_R   0.376217 0.545914 0.165339 -0.043433
C38   C     C_R   0.479219 0.593092 0.115896 -0.111099
C39   C     C_R   0.432877 0.547524 0.237412 -0.003951
C40   C     C_R   0.325752 0.503125 0.285528 -0.296719
C41   C     C_R   0.165602 0.449759 0.263742 0.065271
C42   C     C_R   0.760513 0.183935 0.537486 -0.309435
C43   C     C_R   0.431563 0.807372 0.468710 -0.284722
C44   C     C_R   0.402173 0.984282 0.447959 -0.101107
C45   C     C_3   0.226656 0.904217 0.629588 0.492890
C46   C     C_R   0.339812 0.875409 0.441110 -0.025379
C47   C     C_R   0.579842 0.848381 0.509319 0.062903
C48   C     C_R   0.642829 0.960938 0.519348 -0.103059
C49   C     C_R   0.552763 0.029117 0.487255 -0.062597
C50   C     C_R   0.614506 0.140691 0.495999 0.041581
C51   C     C_R   0.854874 0.117736 0.565773 0.044447
C52   C     C_R   0.794588 0.007309 0.558293 -0.029378
C53   C     C_3   0.955827 0.217477 0.384989 0.369395
C54   C     C_3   0.899735 0.096208 0.365821 -0.141914
C55   C     C_3   0.733924 0.712868 0.683550 0.362467
C56   C     C_3   0.756412 0.754103 0.765054 -0.368959
H1    H     H_    0.717461 0.863720 0.339687 0.068074
H2    H     H_    0.337298 0.944909 0.663760 -0.036716
H3    H     H_    0.229653 0.934533 0.577690 -0.026006
H4    H     H_    0.857082 0.256588 0.412224 -0.038180
H5    H     H_    0.066747 0.234102 0.422145 0.052375
H6    H     H_    0.768402 0.079927 0.345434 0.103667
H7    H     H_    0.908931 0.058645 0.414609 0.059541
H8    H     H_    0.851947 0.691172 0.662891 0.010485
H9    H     H_    0.634939 0.641086 0.673474 0.034465
H10   H     H_    0.503583 0.948758 0.282910 0.099134
H11   H     H_    0.859812 0.823229 0.776606 0.161083
H12   H     H_    0.784798 0.689860 0.793738 0.034440
H13   H     H_    0.640944 0.780747 0.786078 0.106783
H14   H     H_    0.519016 0.779959 0.323634 -0.041523
H15   H     H_    0.483833 0.841168 0.204868 0.117780
H16   H     H_    0.322653 0.264933 0.336345 0.030487
H17   H     H_    0.527333 0.324217 0.313229 0.031507
H18   H     H_    0.319236 0.111174 0.234516 0.126127
H19   H     H_    0.519891 0.169954 0.209353 0.099812
H20   H     H_    0.676069 0.933127 0.225175 0.128499
H21   H     H_    0.153710 0.711616 0.148029 0.073737
H22   H     H_    0.991243 0.130171 0.845685 -0.023111
H23   H     H_    0.123995 0.051032 0.792474 0.061335
H24   H     H_    0.670480 0.214166 0.694094 -0.009827
H25   H     H_    0.463959 0.154415 0.659624 0.057892
H26   H     H_    0.635852 0.127349 0.801778 0.135961
H27   H     H_    0.591038 0.027384 0.719620 0.128991
H28   H     H_    0.046853 0.678002 0.268707 0.095894
H29   H     H_    0.424551 0.070663 0.772593 0.142204
H30   H     H_    0.628248 0.330084 0.107644 0.065608
H31   H     H_    0.523751 0.346364 0.989585 0.108871
H32   H     H_    0.820939 0.486805 0.656897 0.062314
H33   H     H_    0.569844 0.393844 0.871864 0.141307
H34   H     H_    0.317896 0.657358 0.801914 0.095125
H35   H     H_    0.543403 0.693465 0.893630 0.062473
H36   H     H_    0.649543 0.682340 0.014617 0.071158
H37   H     H_    0.606952 0.627394 0.131015 0.107792
H38   H     H_    0.261259 0.741317 0.274065 -0.067592
H39   H     H_    0.369710 0.507871 0.341078 0.066921
H40   H     H_    0.327922 0.033105 0.424356 0.101228
H41   H     H_    0.870141 0.958860 0.581153 0.186372
H42   H     H_    0.808140 0.268937 0.542458 0.060803
H43   H     H_    0.381665 0.722527 0.462549 0.071571
H44   H     H_    0.980972 0.778825 0.174751 0.148356
H45   H     H_    0.188693 0.854094 0.183409 0.113887
H46   H     H_    0.346820 0.766218 0.597892 -0.164293
H47   H     H_    0.128963 0.747658 0.572436 0.042724
O1    O     O_2   0.873090 0.425890 0.325140 -0.433930
O2    O     O_3   0.690285 0.795040 0.650577 -0.602682
O3    O     O_3   0.093411 0.840466 0.313823 -0.612481
O4    O     O_2   0.316610 0.574140 0.674900 -0.461993
O5    O     O_3   0.067290 0.565720 0.585630 -0.506864
O6    O     O_3   0.530210 0.372990 0.631200 -0.483035
O7    O     O_3   0.193995 0.745959 0.680847 -0.628135
O8    O     O_3   0.611340 0.366290 0.463630 -0.470695
O9    O     O_3   0.108550 0.314140 0.595200 -0.484041
O10   O     O_2   0.187117 0.123659 0.545954 -0.491821
O11   O     O_3   0.147887 0.159493 0.684412 -0.568702
O12   O     O_3   0.122420 0.434370 0.414380 -0.510268
O13   O     O_3   0.578370 0.633800 0.536380 -0.490801
O14   O     O_2   0.341510 0.231850 0.465510 -0.475962
O15   O     O_3   0.514867 0.180351 0.350226 -0.674807
O16   O     O_2   0.411959 0.460032 0.754599 -0.476244
O17   O     O_3   0.475428 0.268941 0.752762 -0.535355
O18   O     O_3   0.659500 0.627100 0.368810 -0.473739
O19   O     O_2   0.775527 0.544814 0.243488 -0.493236
O20   O     O_3   0.992394 0.254972 0.320497 -0.601526
O21   O     O_3   0.707649 0.739104 0.252846 -0.599842
O22   O     O_2   0.848200 0.768190 0.534530 -0.469727
O23   O     O_3   0.081160 0.685950 0.404810 -0.491905
O24   O     O_2   0.999882 0.877696 0.447071 -0.489773
P1    P     P_3+3 0.041040 0.394770 0.336330 1.008616
P2    P     P_3+3 0.672880 0.754030 0.556100 1.009916
P3    P     P_3+3 0.129452 0.821953 0.402643 0.937978
P4    P     P_3+3 0.148670 0.605320 0.663680 0.983274
P5    P     P_3+3 0.070170 0.176430 0.599401 1.024003
P6    P     P_3+3 0.643248 0.611614 0.274509 0.953687
P7    P     P_3+3 0.524675 0.229396 0.443787 0.930146
P8    P     P_3+3 0.543589 0.391855 0.725646 0.979698
F1    F     F_    0.086372 0.927110 0.664844 -0.701524
N1    N     N_3   0.001101 0.050281 0.309129 -0.458983
H48   H     H_    0.940414 0.973667 0.285828 0.223699
H49   H     H_    0.114279 0.043483 0.333140 0.198388
N2    N     N_3   0.323590 0.252985 0.191773 -0.537741
H50   H     H_    0.293410 0.207175 0.139903 0.186095
H51   H     H_    0.410799 0.319178 0.185128 0.164542
N3    N     N_3   0.995410 0.277578 0.756881 -0.506790
H52   H     H_    0.934597 0.296849 0.712804 0.110776
H53   H     H_    0.108493 0.330062 0.765669 0.211305
F2    F     F_    0.883949 0.097449 0.713554 -0.793574
F3    F     F_    0.227162 0.204200 0.838657 -0.721092
N4    N     N_3   0.879687 0.290427 0.190919 -0.446995
H54   H     H_    0.967581 0.238911 0.187358 0.196739
H55   H     H_    0.779191 0.243526 0.159669 0.142488

loop_
_geom_bond_atom_site_label_1
_geom_bond_atom_site_label_2
_ccdc_geom_bond_type
C22   P4    S    
C53   C54   S    
C8    H27   S    
N1    H49   S    
C39   C40   A    
C42   C51   A    
C1    H10   S    
Ba1   O23   S    
C39   P6    S    
C55   H8    S    
N3    H52   S    
Ba2   O13   S    
C5    C6    S    
Ba2   O4    S    
C51   C52   A    
C47   P2    S    
C20   P8    S    
C48   C52   A    
C16   H33   S    
C26   C27   A    
C33   C35   A    
C35   C36   A    
C22   C24   A    
C16   C17   A    
C3    C4    S    
Ba2   O8    S    
C23   H44   S    
C28   N4    S    
O11   P5    S    
C54   H7    S    
C53   H4    S    
C2    H1    S    
C34   C45   S    
Ba1   Ba2   S    
C20   C21   A    
O16   P8    D    
C3    H16   S    
O13   P2    S    
C45   H2    S    
O20   P1    S    
Ba2   O5    S    
C53   O20   S    
C14   C15   A    
O8    P7    S    
C53   H5    S    
C34   O7    S    
C21   C22   A    
C54   H6    S    
C43   C47   A    
C4    N2    S    
C11   H30   S    
C7    C8    S    
O7    P4    S    
C7    H24   S    
O24   P3    D    
C42   C50   A    
C12   O3    S    
C44   H40   S    
C24   C29   A    
C32   C36   A    
C27   C41   A    
Ba1   O8    S    
C55   H9    S    
O23   P3    S    
C12   H38   S    
N3    H53   S    
Ba2   O12   S    
C31   C32   A    
C33   H35   S    
C25   C32   A    
C8    H29   S    
C44   C46   A    
Ba2   O6    S    
Ba2   P4    S    
N2    H50   S    
C3    O15   S    
O4    P4    D    
C49   C50   A    
C30   C33   A    
Ba2   O9    S    
C17   C20   A    
C12   H28   S    
O2    P2    S    
Ba1   P1    S    
C40   H39   S    
C37   C38   A    
C54   N1    S    
C23   H45   S    
C4    H19   S    
C26   C37   A    
C48   C49   A    
C44   C49   A    
C15   C19   A    
C6    H23   S    
O18   P6    S    
O15   P7    S    
C5    O11   S    
C3    H17   S    
Ba1   O18   S    
C27   C28   A    
Ba1   O5    S    
C13   H31   S    
C29   C30   A    
C9    C25   A    
Ba2   O14   S    
C7    O17   S    
O9    P5    S    
C21   H32   S    
Ba1   O12   S    
C10   C11   A    
O12   P1    S    
C43   H43   S    
C7    H25   S    
C55   O2    S    
O21   P6    S    
C47   C48   A    
C11   C13   A    
C50   P7    S    
N4    H55   S    
C52   H41   S    
C40   C41   A    
C38   H37   S    
C1    C2    S    
C2    H14   S    
O6    P8    S    
C5    F2    S    
C43   C46   A    
O1    P1    D    
C9    C15   A    
O19   P6    D    
C10   C28   A    
C34   H47   S    
C23   H21   S    
C41   P1    S    
C56   H12   S    
C51   P5    S    
Ba1   O22   S    
O17   P8    S    
Ba1   P2    S    
C45   H3    S    
N1    H48   S    
C56   H11   S    
C4    H18   S    
O10   P5    D    
Ba1   O1    S    
O14   P7    D    
C2    O21   S    
C34   H46   S    
C30   C31   A    
C17   C18   A    
C6    F3    S    
C36   C38   A    
C42   H42   S    
C55   C56   S    
C18   C24   A    
C45   F1    S    
C8    H26   S    
C35   H36   S    
N2    H51   S    
Ba1   O13   S    
C12   C23   S    
C1    H15   S    
O22   P2    D    
O3    P3    S    
C56   H13   S    
C19   C31   A    
C18   C19   A    
C37   C39   A    
C14   C16   A    
C29   H34   S    
C25   C26   A    
C6    H22   S    
N4    H54   S    
C46   P3    S    
O5    P4    S    
C1    H20   S    
C13   C14   A    
C9    C10   A    
C5    N3    S    
