data_mof_unit_35259.cif
_audit_creation_date              2012-12-10T17:20:25-0500
_audit_creation_method            fapswitch 2.2
_symmetry_space_group_name_H-M    P1
_symmetry_Int_Tables_number       1
_space_group_crystal_system       triclinic
_cell_length_a                    11.704654
_cell_length_b                    10.82511
_cell_length_c                    9.608953
_cell_angle_alpha                 90.164518
_cell_angle_beta                  89.938478
_cell_angle_gamma                 93.598393
_cell_volume                      1215.08858669

loop_
_atom_site_label
_atom_site_type_symbol
_atom_type_description
_atom_site_fract_x
_atom_site_fract_y
_atom_site_fract_z
_atom_type_partial_charge
C1    C     C_R   0.492547 0.262188 0.499817 0.777776
C2    C     C_R   0.179143 0.020631 0.591839 -0.086005
C3    C     C_R   0.188904 0.894436 0.601046 -0.210755
C4    C     C_R   0.292803 0.845389 0.572843 -0.149996
C5    C     C_R   0.390355 0.922215 0.536412 0.081166
C6    C     C_R   0.383594 0.052873 0.531672 0.010634
C7    C     C_R   0.486231 0.127122 0.498560 -0.136742
C8    C     C_R   0.588274 0.070628 0.464286 0.155023
C9    C     C_R   0.590307 0.943128 0.464053 -0.192368
C10   C     C_R   0.493721 0.869778 0.501259 -0.116871
C11   C     C_R   0.652757 0.666481 0.144320 -0.131215
C12   C     C_R   0.284378 0.503479 0.499991 0.793311
C13   C     C_R   0.727003 0.748416 0.072247 -0.199952
C14   C     C_R   0.726898 0.748532 0.928736 -0.201103
C15   C     C_R   0.652534 0.666721 0.856322 -0.130689
C16   C     C_R   0.574903 0.582016 0.925386 0.208169
C17   C     C_R   0.574949 0.581925 0.074921 0.208680
C18   C     C_R   0.428668 0.421888 0.073709 -0.050283
C19   C     C_R   0.428699 0.421920 0.925882 -0.049073
C20   C     C_R   0.502104 0.737182 0.500225 0.761964
C21   C     C_R   0.715875 0.500612 0.499945 0.793845
C22   C     C_1   0.162640 0.504405 0.500040 -0.159702
C23   C     C_1   0.060136 0.504232 0.500024 0.009514
C24   C     C_1   0.940246 0.503182 0.499926 0.001016
C25   C     C_1   0.837677 0.501961 0.499865 -0.182237
C26   C     C_R   0.273434 0.100144 0.557070 0.137187
Cu1   Cu    Cu3+1 0.499990 0.499990 0.640660 0.930497
Cu2   Cu    Cu3+1 0.500010 0.500010 0.359340 0.933570
H1    H     H_    0.785145 0.812320 0.872775 0.150910
H2    H     H_    0.370247 0.357844 0.870654 0.133382
H3    H     H_    0.096662 0.057562 0.611222 0.152953
H4    H     H_    0.115060 0.833960 0.628090 0.148751
H5    H     H_    0.295302 0.746243 0.579065 0.145979
H6    H     H_    0.668915 0.900703 0.436926 0.138172
H7    H     H_    0.370202 0.357807 0.128683 0.137757
H8    H     H_    0.660365 0.673437 0.254183 0.189974
H9    H     H_    0.785311 0.812129 0.128486 0.153918
N1    N     N_R   0.501070 0.501210 0.147910 -0.198856
N2    N     N_R   0.501110 0.501290 0.852040 -0.198253
O1    O     O_R   0.499990 0.319640 0.618810 -0.575430
O2    O     O_R   0.500000 0.319660 0.381240 -0.579080
O3    O     O_R   0.337190 0.500000 0.618790 -0.582646
O4    O     O_R   0.337200 0.500030 0.381210 -0.568867
O5    O     O_R   0.500000 0.680340 0.618760 -0.595275
O6    O     O_R   0.500010 0.680360 0.381190 -0.587022
O7    O     O_R   0.662800 0.499970 0.618790 -0.585925
O8    O     O_R   0.662810 0.500000 0.381210 -0.589221
N3    N     N_3   0.692430 0.141459 0.430886 -0.592024
H10   H     H_    0.678922 0.194367 0.342303 0.241032
H11   H     H_    0.713933 0.201037 0.513940 0.218055
H12   H     H_    0.659863 0.673841 0.746461 0.192273
N4    N     N_3   0.250663 0.226956 0.544519 -0.613885
H13   H     H_    0.276336 0.258150 0.445967 0.218394
H14   H     H_    0.292793 0.275259 0.625112 0.239577

loop_
_geom_bond_atom_site_label_1
_geom_bond_atom_site_label_2
_ccdc_geom_bond_type
C23   C24   S    
C8    N3    S    
Cu2   O8    S    
C6    C7    A    
C15   H12   S    
C18   H7    S    
Cu2   O4    S    
C13   H9    S    
C20   O6    A    
C14   C15   A    
Cu2   N1    S    
Cu1   O1    S    
N3    H11   S    
C2    C3    A    
C18   N1    A    
C7    C8    A    
C2    C26   A    
C13   C14   A    
C24   C25   T    
C11   C13   A    
Cu1   O3    S    
C6    C26   A    
C19   N2    A    
C5    C6    A    
Cu1   O7    S    
C1    O2    A    
N3    H10   S    
C20   O5    A    
N4    H14   S    
C9    H6    S    
C18   C19   A    
C12   O4    A    
C26   N4    S    
C17   N1    A    
C2    H3    S    
C3    H4    S    
Cu2   O6    S    
C16   C17   A    
C14   H1    S    
C15   C16   A    
C12   C22   S    
Cu2   O2    S    
C5    C10   A    
N4    H13   S    
C21   O7    A    
C9    C10   A    
C10   C20   S    
Cu1   Cu2   S    
C21   C25   S    
C4    H5    S    
C4    C5    A    
C12   O3    A    
C16   N2    A    
C1    O1    A    
C1    C7    S    
C19   H2    S    
Cu1   O5    S    
C22   C23   T    
C11   C17   A    
C3    C4    A    
Cu1   N2    S    
C8    C9    A    
C21   O8    A    
C11   H8    S    
