data_mof_unit_64052.cif
_audit_creation_date              2012-12-11T19:34:28-0500
_audit_creation_method            fapswitch 2.2
_symmetry_space_group_name_H-M    P1
_symmetry_Int_Tables_number       1
_space_group_crystal_system       triclinic
_cell_length_a                    8.185681
_cell_length_b                    15.084172
_cell_length_c                    18.752495
_cell_angle_alpha                 98.771387
_cell_angle_beta                  92.883363
_cell_angle_gamma                 98.768812
_cell_volume                      2255.2011175

loop_
_atom_site_label
_atom_site_type_symbol
_atom_type_description
_atom_site_fract_x
_atom_site_fract_y
_atom_site_fract_z
_atom_type_partial_charge
Ba1   Ba    Ba6+2 0.852320 0.543020 0.467270 1.656385
Ba2   Ba    Ba6+2 0.337520 0.457050 0.532740 1.652367
C1    C     C_3   0.658794 0.864230 0.288712 -0.383159
C2    C     C_3   0.444986 0.509942 0.244995 -0.011185
C3    C     C_2   0.383590 0.516536 0.168255 -0.117162
C4    C     C_3   0.170348 0.735058 0.280438 0.298617
C5    C     C_2   0.218982 0.496230 0.146807 -0.079677
C6    C     C_2   0.100392 0.472412 0.202660 -0.130463
C7    C     C_1   0.155986 0.475549 0.271199 0.065310
C8    C     C_R   0.046055 0.493938 0.928963 0.463051
C9    C     C_R   0.157485 0.496450 0.069775 0.459433
C10   C     C_R   0.088390 0.527890 0.801371 -0.122261
C11   C     C_R   0.031779 0.520605 0.727868 0.067011
C12   C     C_3   0.661277 0.772574 0.312670 0.346511
C13   C     C_R   0.766982 0.440322 0.753093 -0.007281
C14   C     C_R   0.821578 0.448260 0.826273 -0.135634
C15   C     C_R   0.985157 0.489954 0.851329 -0.062802
C16   C     C_3   0.166075 0.756888 0.203963 -0.341829
C17   C     C_R   0.874669 0.472622 0.704098 -0.266452
C18   C     C_R   0.856819 0.169886 0.552154 -0.023310
C19   C     C_R   0.789335 0.076569 0.546004 -0.041208
C20   C     C_R   0.649196 0.889414 0.532041 -0.024403
C21   C     C_R   0.802928 0.924292 0.571277 -0.033229
C22   C     C_R   0.872873 0.015628 0.577010 -0.105170
C23   C     C_3   0.439651 0.310315 0.309788 0.307118
C24   C     C_R   0.579185 0.795912 0.522643 0.026203
C25   C     C_R   0.421864 0.766309 0.487268 -0.274753
C26   C     C_R   0.612635 0.196026 0.484020 0.022071
C27   C     C_R   0.544644 0.103354 0.476005 -0.030449
C28   C     C_3   0.336162 0.742577 0.695236 0.283239
C29   C     C_R   0.631621 0.043555 0.508233 0.014563
C30   C     C_R   0.391840 0.068875 0.436578 -0.045685
C31   C     C_R   0.321093 0.978755 0.432052 -0.101368
C32   C     C_R   0.403405 0.918257 0.464049 -0.027560
C33   C     C_R   0.561735 0.950261 0.501287 0.025175
C34   C     C_3   0.396745 0.274394 0.229675 -0.381399
C35   C     C_R   0.332326 0.826386 0.459177 0.014572
C36   C     C_R   0.763750 0.228566 0.523951 -0.285991
C37   C     C_3   0.376621 0.752079 0.776842 -0.388773
C38   C     C_3   0.948846 0.264344 0.375757 0.307833
C39   C     C_3   0.918227 0.161299 0.354831 -0.390801
C40   C     C_3   0.747480 0.661869 0.685373 0.297715
C41   C     C_3   0.811451 0.693012 0.764330 -0.403424
C42   C     C_1   0.930984 0.234408 0.847549 0.192016
C43   C     C_1   0.104055 0.126310 0.806002 0.313316
C44   C     C_1   0.348132 0.833270 0.674750 0.254413
C45   C     C_3   0.004613 0.219902 0.721156 0.284784
C46   C     C_3   0.062180 0.216192 0.799443 -0.195437
C47   C     C_3   0.544099 0.218295 0.684402 0.388105
C48   C     C_3   0.523426 0.125346 0.707712 -0.335058
C49   C     C_2   0.307060 0.515724 0.295212 -0.268362
H1    H     H_    0.788493 0.770920 0.334837 0.117943
H2    H     H_    0.633698 0.610750 0.682616 0.045041
H3    H     H_    0.746442 0.873373 0.246100 0.136350
H4    H     H_    0.936414 0.734803 0.767859 0.140109
H5    H     H_    0.818331 0.633909 0.792080 0.061321
H6    H     H_    0.727052 0.734355 0.793207 0.127038
H7    H     H_    0.573994 0.766183 0.355690 -0.024560
H8    H     H_    0.696412 0.919511 0.335622 0.080171
H9    H     H_    0.325478 0.327957 0.333901 0.027177
H10   H     H_    0.535898 0.371968 0.315901 0.033619
H11   H     H_    0.306198 0.210326 0.222797 0.133372
H12   H     H_    0.398707 0.686030 0.791132 0.098250
H13   H     H_    0.340466 0.324576 0.203270 0.066321
H14   H     H_    0.510477 0.260965 0.202893 0.127149
H15   H     H_    0.531986 0.868599 0.267127 0.116290
H16   H     H_    0.223380 0.706507 0.168143 0.091419
H17   H     H_    0.971858 0.288499 0.718765 -0.003555
H18   H     H_    0.173569 0.268593 0.816845 0.113503
H19   H     H_    0.676445 0.238636 0.675237 -0.120561
H20   H     H_    0.467662 0.212737 0.632807 0.090686
H21   H     H_    0.568773 0.076040 0.666305 0.081853
H22   H     H_    0.390617 0.101230 0.713709 0.163628
H23   H     H_    0.490229 0.802758 0.794453 0.093090
H24   H     H_    0.098064 0.666137 0.278661 0.080189
H25   H     H_    0.595741 0.129074 0.760088 0.124305
H26   H     H_    0.969060 0.452199 0.186844 0.117373
H27   H     H_    0.211723 0.563425 0.819565 0.094236
H28   H     H_    0.736766 0.421329 0.863093 0.120725
H29   H     H_    0.331023 0.553861 0.349726 0.062436
H30   H     H_    0.832033 0.465555 0.647668 0.062593
H31   H     H_    0.872005 0.882022 0.598300 0.120542
H32   H     H_    0.992077 0.038024 0.606997 0.103617
H33   H     H_    0.201207 0.957654 0.402630 0.108610
H34   H     H_    0.272492 0.774508 0.806823 0.120035
H35   H     H_    0.301272 0.735385 0.299186 -0.022033
H36   H     H_    0.322235 0.110885 0.409479 0.102669
H37   H     H_    0.367292 0.695457 0.482425 0.077119
H38   H     H_    0.814555 0.299965 0.528854 0.063062
H39   H     H_    0.035766 0.754106 0.182936 0.133539
H40   H     H_    0.236066 0.825914 0.203612 0.117781
H41   H     H_    0.424740 0.707514 0.664496 0.039715
H42   H     H_    0.890974 0.128476 0.402797 0.062726
H43   H     H_    0.893980 0.166705 0.704147 -0.032307
H44   H     H_    0.474488 0.531963 0.129847 0.110145
H45   H     H_    0.835105 0.287394 0.394945 0.006609
H46   H     H_    0.048957 0.283498 0.419836 0.076780
H47   H     H_    0.811382 0.139747 0.313739 0.133275
H48   H     H_    0.030169 0.138125 0.332155 0.118180
H49   H     H_    0.842902 0.630816 0.655580 0.044232
N1    N     N_R   0.208358 0.523262 0.951979 -0.240979
N2    N     N_R   0.262658 0.524412 0.020616 -0.241143
N3    N     N_R   0.995108 0.467588 0.046857 -0.235515
N4    N     N_R   0.940909 0.466212 0.978189 -0.228377
N5    N     N_1   0.827446 0.248511 0.885496 -0.257533
N6    N     N_1   0.136928 0.055463 0.811084 -0.285260
N7    N     N_1   0.356796 0.904674 0.658417 -0.322000
O1    O     O_2   0.865600 0.448450 0.327030 -0.470020
O2    O     O_2   0.196916 0.177626 0.541145 -0.489295
O3    O     O_3   0.132378 0.203763 0.676076 -0.580459
O4    O     O_3   0.118270 0.449980 0.414460 -0.494364
O5    O     O_3   0.581870 0.610700 0.539390 -0.491550
O6    O     O_2   0.335870 0.275730 0.458590 -0.472034
O7    O     O_3   0.500176 0.242699 0.341986 -0.645364
O8    O     O_2   0.425901 0.446674 0.751862 -0.470498
O9    O     O_3   0.491517 0.280956 0.738223 -0.573719
O10   O     O_3   0.656870 0.615610 0.375490 -0.491042
O11   O     O_2   0.791765 0.573087 0.251981 -0.490204
O12   O     O_3   0.712543 0.737567 0.656491 -0.647289
O13   O     O_3   0.992319 0.302742 0.314729 -0.634208
O14   O     O_3   0.613737 0.702588 0.253365 -0.608949
O15   O     O_2   0.853830 0.724300 0.541460 -0.440268
O16   O     O_3   0.080790 0.663040 0.412350 -0.479791
O17   O     O_2   0.986632 0.822359 0.453977 -0.491422
O18   O     O_3   0.100029 0.799952 0.325606 -0.618623
O19   O     O_2   0.324110 0.551580 0.673010 -0.487217
O20   O     O_3   0.071440 0.550090 0.585550 -0.461668
O21   O     O_3   0.532840 0.384460 0.624520 -0.482064
O22   O     O_3   0.173822 0.697866 0.676062 -0.639031
O23   O     O_3   0.607840 0.389380 0.460620 -0.475272
O24   O     O_3   0.108920 0.337040 0.587660 -0.464949
P1    P     P_3+3 0.033440 0.421460 0.337070 0.981286
P2    P     P_3+3 0.679060 0.710980 0.562120 0.978951
P3    P     P_3+3 0.124427 0.779574 0.414677 0.947437
P4    P     P_3+3 0.156270 0.578610 0.662940 0.987488
P5    P     P_3+3 0.071459 0.219984 0.588920 0.960214
P6    P     P_3+3 0.628045 0.597816 0.281095 0.960335
P7    P     P_3+3 0.517680 0.275137 0.436014 0.937856
P8    P     P_3+3 0.553738 0.390114 0.718397 0.989209

loop_
_geom_bond_atom_site_label_1
_geom_bond_atom_site_label_2
_ccdc_geom_bond_type
O18   P3    S    
N1    N2    A    
C21   H31   S    
C32   C35   A    
O3    P5    S    
C7    C49   D    
O5    P2    S    
Ba1   P1    S    
C45   O3    S    
C4    H24   S    
O6    P7    D    
C42   N5    T    
C5    C9    S    
C20   C33   A    
C19   C29   A    
C36   H38   S    
Ba2   O5    S    
C24   C25   A    
O12   P2    S    
C16   H40   S    
C26   C27   A    
C22   H32   S    
O20   P4    S    
C32   C33   A    
C27   C30   A    
C40   H49   S    
Ba1   O5    S    
C1    H3    S    
Ba1   P2    S    
C40   O12   S    
C43   C46   S    
C8    C15   S    
C13   C14   A    
C35   P3    S    
Ba1   Ba2   S    
C37   H23   S    
O14   P6    S    
C48   H21   S    
C49   H29   S    
C2    P6    S    
O22   P4    S    
C12   H1    S    
C12   H7    S    
C14   C15   A    
C10   H27   S    
C10   C15   A    
C21   C22   A    
C39   H48   S    
C23   H9    S    
O11   P6    D    
C46   H18   S    
O9    P8    S    
Ba2   O20   S    
C12   O14   S    
O13   P1    S    
O2    P5    D    
C11   P4    S    
C38   H45   S    
C34   H11   S    
C3    H44   S    
C28   C44   S    
Ba2   O24   S    
C13   P8    S    
C4    C16   S    
C39   H42   S    
Ba2   O4    S    
C11   C17   A    
O16   P3    S    
C16   H39   S    
C5    C6    S    
C26   P7    S    
C28   H41   S    
O24   P5    S    
C48   H22   S    
C38   H46   S    
C3    C5    D    
C34   H14   S    
C6    C7    D    
Ba1   O10   S    
C2    C49   S    
C16   H16   S    
C30   H36   S    
C13   C17   A    
Ba1   O16   S    
O15   P2    D    
C48   H25   S    
C18   C36   A    
C41   H5    S    
C45   C46   S    
C26   C36   A    
C44   N7    T    
C31   C32   A    
C23   H10   S    
C18   P5    S    
C1    C12   S    
Ba2   O19   S    
C41   H4    S    
C38   C39   S    
C38   O13   S    
O8    P8    D    
O19   P4    D    
Ba1   O23   S    
C47   H19   S    
C47   H20   S    
C6    H26   S    
C29   C33   A    
C1    H15   S    
C40   C41   S    
C37   H34   S    
O23   P7    S    
C45   H17   S    
C43   N6    T    
C7    P1    S    
Ba2   O6    S    
C23   C34   S    
C20   C21   A    
O21   P8    S    
C8    N1    A    
O10   P6    S    
Ba1   O20   S    
C4    O18   S    
C2    C3    S    
C28   O22   S    
C37   H12   S    
Ba2   P4    S    
C4    H35   S    
O17   P3    D    
C14   H28   S    
C30   C31   A    
C8    N4    A    
C40   H2    S    
C24   P2    S    
C17   H30   S    
C23   O7    S    
Ba1   O4    S    
C25   C35   A    
Ba2   O23   S    
C45   H43   S    
C28   C37   S    
C9    N2    A    
O7    P7    S    
C25   H37   S    
C31   H33   S    
O1    P1    D    
C41   H6    S    
Ba1   O1    S    
O4    P1    S    
C47   O9    S    
C18   C19   A    
C27   C29   A    
C47   C48   S    
C20   C24   A    
C19   C22   A    
N3    N4    A    
C39   H47   S    
C9    N3    A    
Ba1   O15   S    
C10   C11   A    
C34   H13   S    
C42   C46   S    
C1    H8    S    
Ba2   O21   S    
