data_mof_unit_60767.cif
_audit_creation_date              2012-12-10T19:56:01-0500
_audit_creation_method            fapswitch 2.2
_symmetry_space_group_name_H-M    P1
_symmetry_Int_Tables_number       1
_space_group_crystal_system       triclinic
_cell_length_a                    18.283595
_cell_length_b                    18.283691
_cell_length_c                    35.581647
_cell_angle_alpha                 90.005025
_cell_angle_beta                  90.030505
_cell_angle_gamma                 90.007472
_cell_volume                      11894.6439215

loop_
_atom_site_label
_atom_site_type_symbol
_atom_type_description
_atom_site_fract_x
_atom_site_fract_y
_atom_site_fract_z
_atom_type_partial_charge
C1    C     C_R   0.500004 0.141135 0.499999 0.912155
C2    C     C_1   0.717777 0.499990 0.500039 -0.184305
C3    C     C_3   0.061710 0.623307 0.196167 -0.889685
C4    C     C_3   0.376610 0.938505 0.803814 -0.889526
C5    C     C_3   0.951010 0.628525 0.803737 -0.877972
C6    C     C_3   0.623473 0.061454 0.803904 -0.889364
C7    C     C_3   0.045330 0.369424 0.803893 -0.878277
C8    C     C_3   0.863568 0.536316 0.693933 -0.891377
C9    C     C_3   0.438391 0.876646 0.696117 -0.889842
C10   C     C_3   0.133095 0.461078 0.694876 -0.882067
C11   C     C_3   0.561772 0.123292 0.696165 -0.889505
C12   C     C_3   0.876544 0.438605 0.303819 -0.889609
C13   C     C_1   0.499991 0.717775 0.500004 -0.184035
C14   C     C_3   0.438066 0.123189 0.303851 -0.889840
C15   C     C_3   0.123513 0.561349 0.303901 -0.889605
C16   C     C_3   0.561747 0.876754 0.303869 -0.889787
C17   C     C_3   0.369724 0.051182 0.112823 -0.861452
C18   C     C_3   0.948813 0.369734 0.112844 -0.861522
C19   C     C_3   0.630258 0.948843 0.112908 -0.861506
C20   C     C_3   0.051322 0.630222 0.112892 -0.861606
C21   C     C_3   0.369718 0.948860 0.887089 -0.861504
C22   C     C_3   0.959243 0.633648 0.887130 -0.863746
C23   C     C_3   0.630311 0.051121 0.887182 -0.861412
C24   C     C_1   0.282225 0.500013 0.499975 -0.183787
C25   C     C_3   0.040553 0.365894 0.887367 -0.864397
C26   C     C_3   0.866233 0.534558 0.610424 -0.868025
C27   C     C_3   0.448777 0.869748 0.612846 -0.861821
C28   C     C_3   0.135455 0.465226 0.613341 -0.855827
C29   C     C_3   0.551359 0.130214 0.612889 -0.861649
C30   C     C_3   0.869680 0.448947 0.387095 -0.861722
C31   C     C_3   0.448541 0.130155 0.387123 -0.861591
C32   C     C_3   0.130337 0.551043 0.387180 -0.861507
C33   C     C_3   0.551323 0.869808 0.387137 -0.861568
C34   C     C_1   0.000012 0.782225 1.000000 -0.183663
C35   C     C_1   0.217775 0.999991 0.000022 -0.183862
C36   C     C_1   0.999988 0.217775 0.000007 -0.183698
C37   C     C_1   0.782225 0.000009 0.999978 -0.183860
C38   C     C_1   0.500011 0.217511 0.499997 -0.190214
C39   C     C_1   0.782491 0.499990 0.500065 -0.192448
C40   C     C_1   0.499989 0.782489 0.500003 -0.190262
C41   C     C_R   0.858866 0.499998 0.500083 0.919107
C42   C     C_1   0.217511 0.500014 0.499970 -0.190344
C43   C     C_1   0.000013 0.717512 0.000011 -0.189949
C44   C     C_1   0.282489 0.999989 0.000017 -0.190112
C45   C     C_1   0.999987 0.282488 0.000017 -0.189856
C46   C     C_1   0.717511 0.000010 0.999982 -0.190113
C47   C     C_R   0.499982 0.999999 0.426854 0.906748
C48   C     C_R   0.000000 0.499997 0.426855 0.906971
C49   C     C_R   0.500018 0.000000 0.573146 0.906786
C50   C     C_R   0.000017 0.500011 0.573120 0.916451
C51   C     C_R   0.999969 0.499951 0.926862 0.907520
C52   C     C_R   0.499996 0.858865 0.500000 0.912143
C53   C     C_R   0.500001 0.999997 0.926855 0.906717
C54   C     C_R   0.000018 0.500000 0.073146 0.906496
C55   C     C_R   0.499999 0.000003 0.073145 0.906701
C56   C     C_R   0.439240 0.029089 0.173477 0.180859
C57   C     C_R   0.970941 0.439256 0.173486 0.180825
C58   C     C_R   0.560703 0.970924 0.173516 0.180862
C59   C     C_R   0.029194 0.560684 0.173511 0.180839
C60   C     C_R   0.439279 0.970933 0.826481 0.180874
C61   C     C_R   0.976114 0.562666 0.826470 0.177242
C62   C     C_R   0.560789 0.029032 0.826525 0.180807
C63   C     C_R   0.141135 0.500004 0.499971 0.912048
C64   C     C_R   0.021186 0.435729 0.826554 0.177403
C65   C     C_R   0.933513 0.517026 0.673072 0.187717
C66   C     C_R   0.470926 0.939267 0.673486 0.180948
C67   C     C_R   0.063621 0.481096 0.673642 0.176429
C68   C     C_R   0.529226 0.060679 0.673509 0.180810
C69   C     C_R   0.939244 0.470979 0.326484 0.180851
C70   C     C_R   0.470700 0.060636 0.326497 0.180848
C71   C     C_R   0.060802 0.528983 0.326524 0.180841
C72   C     C_R   0.529137 0.939318 0.326506 0.180835
C73   C     C_R   0.437963 0.026829 0.133793 0.127302
C74   C     C_R   0.000004 0.641136 0.000025 0.911548
C75   C     C_R   0.973202 0.437969 0.133803 0.127337
C76   C     C_R   0.562006 0.973191 0.133833 0.127315
C77   C     C_R   0.026927 0.561984 0.133826 0.127332
C78   C     C_R   0.437981 0.973193 0.866165 0.127359
C79   C     C_R   0.978316 0.563762 0.866168 0.126759
C80   C     C_R   0.562060 0.026783 0.866210 0.127346
C81   C     C_R   0.020578 0.435379 0.866272 0.126740
C82   C     C_R   0.934396 0.517166 0.633331 0.118637
C83   C     C_R   0.473186 0.937978 0.633803 0.127508
C84   C     C_R   0.064614 0.482231 0.633989 0.118878
C85   C     C_R   0.358865 0.999996 0.000004 0.912061
C86   C     C_R   0.526951 0.061980 0.633825 0.127379
C87   C     C_R   0.937955 0.473237 0.366168 0.127341
C88   C     C_R   0.472991 0.061946 0.366181 0.127325
C89   C     C_R   0.062073 0.526740 0.366209 0.127308
C90   C     C_R   0.526868 0.938016 0.366188 0.127344
C91   C     C_R   0.499990 0.000010 0.114231 -0.129662
C92   C     C_R   0.000056 0.499982 0.114233 -0.129583
C93   C     C_R   0.500014 0.999991 0.885768 -0.129593
C94   C     C_R   0.999802 0.499747 0.885784 -0.125827
C95   C     C_R   0.999930 0.500002 0.614198 -0.130947
C96   C     C_R   0.999995 0.358864 0.000029 0.911420
C97   C     C_R   0.500057 0.999985 0.614232 -0.129724
C98   C     C_R   0.000009 0.499991 0.385769 -0.129642
C99   C     C_R   0.499942 0.999986 0.385767 -0.129720
C100  C     C_R   0.358619 0.500005 0.499991 0.932789
C101  C     C_R   0.500003 0.358619 0.499999 0.932792
C102  C     C_R   0.641382 0.499995 0.500010 0.933004
C103  C     C_R   0.499997 0.641381 0.500001 0.932759
C104  C     C_R   0.858619 0.000003 0.999992 0.932802
C105  C     C_R   0.000004 0.858619 0.999999 0.932759
C106  C     C_R   0.141381 0.999997 0.000008 0.932802
C107  C     C_R   0.641135 0.000004 0.999996 0.912058
C108  C     C_R   0.999996 0.141381 0.000002 0.932751
C109  C     C_R   0.499964 0.000003 0.192811 0.011153
C110  C     C_R   0.000064 0.499969 0.192813 0.011175
C111  C     C_R   0.500041 0.999980 0.807188 0.011177
C112  C     C_R   0.998280 0.499024 0.807201 0.013656
C113  C     C_R   0.998234 0.498824 0.692851 0.027049
C114  C     C_R   0.500075 0.999973 0.692813 0.011133
C115  C     C_R   0.000028 0.499977 0.307189 0.011116
C116  C     C_R   0.499922 0.999980 0.307187 0.011222
C117  C     C_1   0.499948 0.999995 0.233184 -0.002175
C118  C     C_1   0.500009 0.282225 0.499996 -0.183968
C119  C     C_1   0.000051 0.499970 0.233186 -0.002183
C120  C     C_1   0.500055 0.999976 0.766816 -0.002159
C121  C     C_1   0.997850 0.498792 0.766819 -0.015998
C122  C     C_1   0.997815 0.498728 0.733168 -0.005739
C123  C     C_1   0.500066 0.999974 0.733185 -0.002128
C124  C     C_1   0.000039 0.499971 0.266817 -0.002182
C125  C     C_1   0.499934 0.999988 0.266814 -0.002186
C126  C     C_3   0.376586 0.061552 0.196100 -0.889678
C127  C     C_3   0.938431 0.376623 0.196115 -0.889675
C128  C     C_3   0.623343 0.938458 0.196180 -0.889681
H1    H     H_    0.332077 0.085453 0.179026 0.247715
H2    H     H_    0.085648 0.667805 0.179117 0.247719
H3    H     H_    0.018796 0.647824 0.214295 0.239832
H4    H     H_    0.106417 0.602056 0.214250 0.238361
H5    H     H_    0.332059 0.914653 0.820857 0.247709
H6    H     H_    0.352173 0.981451 0.785661 0.239836
H7    H     H_    0.397798 0.893751 0.785757 0.238356
H8    H     H_    0.932411 0.675597 0.820720 0.245864
H9    H     H_    0.996564 0.647893 0.785662 0.241747
H10   H     H_    0.904282 0.612549 0.785556 0.236074
H11   H     H_    0.668011 0.085315 0.820980 0.247716
H12   H     H_    0.352087 0.018615 0.214227 0.239813
H13   H     H_    0.647925 0.018502 0.785770 0.239861
H14   H     H_    0.602296 0.106201 0.785830 0.238370
H15   H     H_    0.064159 0.322485 0.820908 0.245908
H16   H     H_    0.999171 0.350013 0.786213 0.241751
H17   H     H_    0.091605 0.384913 0.785330 0.235729
H18   H     H_    0.820155 0.496165 0.686822 0.243188
H19   H     H_    0.868805 0.536065 0.724915 0.238015
H20   H     H_    0.845649 0.592215 0.685936 0.243859
H21   H     H_    0.414441 0.832154 0.679048 0.247556
H22   H     H_    0.481300 0.852115 0.714265 0.239889
H23   H     H_    0.397805 0.106279 0.214182 0.238384
H24   H     H_    0.393686 0.897907 0.714177 0.238369
H25   H     H_    0.151299 0.405467 0.686591 0.242737
H26   H     H_    0.176919 0.501085 0.688334 0.242419
H27   H     H_    0.127004 0.460526 0.725811 0.236882
H28   H     H_    0.585728 0.167783 0.679113 0.247686
H29   H     H_    0.518868 0.147828 0.714294 0.239829
H30   H     H_    0.606475 0.102023 0.714246 0.238398
H31   H     H_    0.831974 0.414789 0.320863 0.247696
H32   H     H_    0.852139 0.481575 0.285668 0.239819
H33   H     H_    0.897692 0.393835 0.285759 0.238348
H34   H     H_    0.914500 0.332126 0.179045 0.247717
H35   H     H_    0.414029 0.167614 0.320909 0.247756
H36   H     H_    0.480931 0.147812 0.285732 0.239848
H37   H     H_    0.393412 0.101846 0.285760 0.238395
H38   H     H_    0.168078 0.585168 0.320974 0.247692
H39   H     H_    0.147923 0.518374 0.285765 0.239823
H40   H     H_    0.102373 0.606116 0.285828 0.238348
H41   H     H_    0.585748 0.832300 0.320934 0.247731
H42   H     H_    0.518873 0.852165 0.285716 0.239838
H43   H     H_    0.606424 0.898082 0.285813 0.238388
H44   H     H_    0.321450 0.020857 0.123578 0.239547
H45   H     H_    0.981347 0.352109 0.214263 0.239834
H46   H     H_    0.361452 0.110850 0.116743 0.245292
H47   H     H_    0.371138 0.040484 0.082241 0.231677
H48   H     H_    0.979098 0.321454 0.123627 0.239549
H49   H     H_    0.889140 0.361490 0.116739 0.245302
H50   H     H_    0.959532 0.371131 0.082267 0.231639
H51   H     H_    0.678524 0.979167 0.123701 0.239550
H52   H     H_    0.638529 0.889175 0.116826 0.245297
H53   H     H_    0.628862 0.959547 0.082326 0.231667
H54   H     H_    0.021039 0.678501 0.123666 0.239564
H55   H     H_    0.110995 0.638462 0.116823 0.245302
H56   H     H_    0.893720 0.397864 0.214176 0.238360
H57   H     H_    0.040609 0.628834 0.082308 0.231654
H58   H     H_    0.321472 0.979219 0.876310 0.239583
H59   H     H_    0.361399 0.889200 0.883151 0.245295
H60   H     H_    0.371133 0.959531 0.917675 0.231660
H61   H     H_    0.994680 0.678990 0.877162 0.240393
H62   H     H_    0.900909 0.647615 0.882271 0.245083
H63   H     H_    0.967469 0.630622 0.917882 0.229792
H64   H     H_    0.678564 0.020761 0.876436 0.239582
H65   H     H_    0.638630 0.110780 0.883254 0.245298
H66   H     H_    0.628877 0.040453 0.917766 0.231661
H67   H     H_    0.667867 0.914567 0.179134 0.247713
H68   H     H_    0.004550 0.320422 0.878092 0.240373
H69   H     H_    0.098605 0.351708 0.881853 0.245085
H70   H     H_    0.033934 0.369561 0.918196 0.230549
H71   H     H_    0.816452 0.544651 0.627241 0.246877
H72   H     H_    0.875851 0.584308 0.593247 0.248041
H73   H     H_    0.853656 0.488053 0.591405 0.227948
H74   H     H_    0.479047 0.821457 0.623632 0.239533
H75   H     H_    0.389098 0.861522 0.616740 0.245147
H76   H     H_    0.459501 0.871139 0.582268 0.231729
H77   H     H_    0.178845 0.503974 0.622250 0.239581
H78   H     H_    0.647825 0.981390 0.214333 0.239815
H79   H     H_    0.153041 0.408465 0.619689 0.244692
H80   H     H_    0.131532 0.469931 0.582417 0.228063
H81   H     H_    0.521096 0.178504 0.623669 0.239566
H82   H     H_    0.611040 0.138434 0.616814 0.245251
H83   H     H_    0.540630 0.128831 0.582306 0.231702
H84   H     H_    0.821451 0.479345 0.376323 0.239569
H85   H     H_    0.861316 0.389293 0.383152 0.245284
H86   H     H_    0.871113 0.459605 0.417682 0.231604
H87   H     H_    0.478722 0.178477 0.376325 0.239566
H88   H     H_    0.388850 0.138285 0.383228 0.245304
H89   H     H_    0.602114 0.893723 0.214237 0.238380
H90   H     H_    0.459334 0.128813 0.417699 0.231719
H91   H     H_    0.178571 0.520639 0.376443 0.239550
H92   H     H_    0.138701 0.610695 0.383240 0.245269
H93   H     H_    0.128888 0.540404 0.417766 0.231685
H94   H     H_    0.521113 0.821490 0.376332 0.239549
H95   H     H_    0.611009 0.861659 0.383256 0.245285
H96   H     H_    0.540565 0.871168 0.417711 0.231720
O1    O     O_R   0.560470 0.107230 0.500140 -0.618484
O2    O     O_R   0.392770 0.060470 0.000140 -0.618364
O3    O     O_R   0.939530 0.392770 0.000140 -0.618515
O4    O     O_R   0.607230 0.939530 0.000140 -0.618347
O5    O     O_R   0.060470 0.392770 0.999860 -0.617975
O6    O     O_R   0.392770 0.939530 0.999860 -0.618409
O7    O     O_R   0.939530 0.607230 0.999860 -0.617708
O8    O     O_R   0.607230 0.060470 0.999860 -0.618426
O9    O     O_R   0.560470 0.999900 0.444700 -0.613869
O10   O     O_R   0.000100 0.560470 0.444700 -0.613971
O11   O     O_R   0.439530 0.000100 0.444700 -0.613879
O12   O     O_R   0.892770 0.560470 0.500140 -0.617089
O13   O     O_R   0.999900 0.439530 0.444700 -0.613792
O14   O     O_R   0.560470 0.000100 0.555300 -0.613873
O15   O     O_R   0.000100 0.439530 0.555300 -0.615552
O16   O     O_R   0.439530 0.999900 0.555300 -0.613866
O17   O     O_R   0.999900 0.560470 0.555300 -0.618434
O18   O     O_R   0.060470 0.499900 0.944700 -0.614017
O19   O     O_R   0.500100 0.060470 0.944700 -0.613826
O20   O     O_R   0.939530 0.500100 0.944700 -0.613578
O21   O     O_R   0.499900 0.939530 0.944700 -0.613832
O22   O     O_R   0.060470 0.500100 0.055300 -0.613961
O23   O     O_R   0.439530 0.892770 0.500140 -0.618472
O24   O     O_R   0.500100 0.939530 0.055300 -0.613861
O25   O     O_R   0.939530 0.499900 0.055300 -0.613962
O26   O     O_R   0.499900 0.060470 0.055300 -0.613871
O27   O     O_R   0.392480 0.499860 0.468850 -0.621511
O28   O     O_R   0.500140 0.392480 0.468850 -0.621506
O29   O     O_R   0.607520 0.500140 0.468850 -0.621494
O30   O     O_R   0.499860 0.607520 0.468850 -0.621480
O31   O     O_R   0.392480 0.500140 0.531150 -0.621551
O32   O     O_R   0.500140 0.607520 0.531150 -0.621664
O33   O     O_R   0.607520 0.499860 0.531150 -0.621548
O34   O     O_R   0.107230 0.439530 0.500140 -0.617533
O35   O     O_R   0.499860 0.392480 0.531150 -0.621502
O36   O     O_R   0.892480 0.999860 0.968850 -0.621520
O37   O     O_R   0.000140 0.892480 0.968850 -0.621454
O38   O     O_R   0.107520 0.000140 0.968850 -0.621492
O39   O     O_R   0.999860 0.107520 0.968850 -0.621480
O40   O     O_R   0.892480 0.000140 0.031150 -0.621501
O41   O     O_R   0.000140 0.107520 0.031150 -0.621538
O42   O     O_R   0.107520 0.999860 0.031150 -0.621531
O43   O     O_R   0.999860 0.892480 0.031150 -0.621540
O44   O     O_R   0.560470 0.892770 0.499860 -0.618415
O45   O     O_R   0.892770 0.439530 0.499860 -0.620772
O46   O     O_R   0.439530 0.107230 0.499860 -0.618372
O47   O     O_R   0.107230 0.560470 0.499860 -0.618617
O48   O     O_R   0.060470 0.607230 0.000140 -0.618586
Zn1   Zn    Zn3+2 0.580800 1.000000 0.500000 0.968739
Zn2   Zn    Zn3+2 0.500000 0.500000 0.541650 0.965558
Zn3   Zn    Zn3+2 0.000000 1.000000 0.958350 0.965989
Zn4   Zn    Zn3+2 0.000000 1.000000 0.041650 0.965944
Zn5   Zn    Zn3+2 0.000000 0.580800 0.500000 0.965647
Zn6   Zn    Zn3+2 0.419200 1.000000 0.500000 0.968792
Zn7   Zn    Zn3+2 0.000000 0.419200 0.500000 0.967960
Zn8   Zn    Zn3+2 0.080800 0.500000 0.000000 0.969499
Zn9   Zn    Zn3+2 0.500000 0.080800 0.000000 0.969064
Zn10  Zn    Zn3+2 0.919200 0.500000 0.000000 0.969674
Zn11  Zn    Zn3+2 0.500000 0.919200 0.000000 0.969062
Zn12  Zn    Zn3+2 0.500000 0.500000 0.458350 0.965900

loop_
_geom_bond_atom_site_label_1
_geom_bond_atom_site_label_2
_ccdc_geom_bond_type
C127  H45   S    
C5    H8    S    
C25   C81   S    
C12   C69   S    
O3    Zn10  S    
C9    H24   S    
C58   C128  S    
C18   C75   S    
C28   H77   S    
C19   H51   S    
C28   C84   S    
C3    H2    S    
C68   C86   A    
C90   C99   A    
O7    Zn10  S    
C51   O20   A    
C16   C72   S    
C128  H67   S    
O18   Zn8   S    
C21   H58   S    
C100  O27   A    
C70   C88   A    
C59   C77   A    
C7    H15   S    
C48   O13   A    
C17   H44   S    
C109  C117  S    
C29   H82   S    
C39   C41   S    
C10   C67   S    
C11   C68   S    
C5    H10   S    
O38   Zn3   S    
C6    C62   S    
C60   C78   A    
O33   Zn2   S    
O40   Zn4   S    
C20   C77   S    
O35   Zn2   S    
C27   H75   S    
C101  C118  S    
C62   C80   A    
C19   C76   S    
O13   Zn7   S    
C22   C79   S    
O28   Zn12  S    
C30   H84   S    
C6    H14   S    
O1    Zn1   S    
C50   C95   S    
C64   C112  A    
C31   H87   S    
C2    C102  S    
C78   C93   A    
C27   H74   S    
C106  O38   A    
C59   C110  A    
C47   C99   S    
O45   Zn7   S    
C108  O39   A    
C104  O36   A    
C6    H11   S    
C86   C97   A    
C63   O47   A    
C9    C66   S    
C7    H16   S    
C13   C40   T    
C55   C91   S    
C25   H70   S    
C66   C83   A    
O36   Zn3   S    
C16   H41   S    
C69   C115  A    
C62   C111  A    
C32   C89   S    
C18   H49   S    
O42   Zn4   S    
O15   Zn7   S    
C21   C78   S    
O21   Zn11  S    
C15   H38   S    
C29   H83   S    
C115  C124  S    
C56   C126  S    
C23   C80   S    
C22   H62   S    
O14   Zn1   S    
C26   H72   S    
C69   C87   A    
C120  C123  T    
C58   C109  A    
C33   H94   S    
C50   O17   A    
C43   C74   S    
C54   O22   A    
C12   H33   S    
C67   C84   A    
O48   Zn8   S    
O10   Zn5   S    
C119  C124  T    
C107  O8    A    
C107  O4    A    
C17   C73   S    
C127  H56   S    
C34   C105  S    
C15   H39   S    
C8    H20   S    
C128  H78   S    
C29   H81   S    
C30   C87   S    
C49   O16   A    
C2    C39   T    
C10   H25   S    
C6    H13   S    
C23   H64   S    
C21   H59   S    
C4    H6    S    
C47   O11   A    
O43   Zn4   S    
C81   C94   A    
C9    H22   S    
C106  O42   A    
C53   O21   A    
O25   Zn10  S    
C113  C122  S    
O31   Zn2   S    
C53   C93   S    
O12   Zn5   S    
C88   C99   A    
C96   O3    A    
O17   Zn5   S    
C20   H57   S    
C26   H73   S    
C73   C91   A    
C79   C94   A    
C45   C96   S    
C63   O34   A    
C74   O48   A    
C74   O7    A    
C53   O19   A    
C31   H88   S    
C76   C91   A    
C126  H1    S    
C70   C116  A    
C40   C52   S    
C49   C97   S    
O6    Zn11  S    
C18   H48   S    
C27   H76   S    
C111  C120  S    
C22   H61   S    
C84   C95   A    
C38   C118  T    
O44   Zn1   S    
C22   H63   S    
C54   C92   S    
C26   H71   S    
C16   H42   S    
C64   C81   A    
C30   H86   S    
C72   C90   A    
C126  H23   S    
O41   Zn4   S    
C57   C110  A    
C71   C89   A    
O47   Zn5   S    
O9    Zn1   S    
C46   C107  S    
C4    C60   S    
C19   H52   S    
C121  C122  T    
C55   O26   A    
C71   C115  A    
C36   C45   T    
C96   O5    A    
C12   H32   S    
C77   C92   A    
O22   Zn8   S    
C35   C44   T    
C31   H90   S    
C29   C86   S    
C32   H92   S    
C25   H68   S    
C1    C38   S    
C20   H55   S    
C114  C123  S    
C33   H95   S    
O4    Zn11  S    
C105  O37   A    
C52   O44   A    
C127  H34   S    
O39   Zn3   S    
C55   O24   A    
C4    H7    S    
O8    Zn9   S    
O26   Zn9   S    
C3    H3    S    
C15   H40   S    
C8    H19   S    
C13   C103  S    
C24   C100  S    
C23   H65   S    
C100  O31   A    
C52   O23   A    
C75   C92   A    
C56   C109  A    
C15   C71   S    
C17   H46   S    
C11   H29   S    
C21   H60   S    
C20   H54   S    
C1    O1    A    
C1    O46   A    
C28   H79   S    
C50   O15   A    
C56   C73   A    
C66   C114  A    
C58   C76   A    
O11   Zn6   S    
C65   C113  A    
C51   O18   A    
C87   C98   A    
C8    H18   S    
C85   O6    A    
C126  H12   S    
C49   O14   A    
C10   H27   S    
C110  C119  S    
C57   C127  S    
C37   C104  S    
C17   H47   S    
C3    H4    S    
O29   Zn12  S    
C5    H9    S    
O37   Zn3   S    
C41   O12   A    
C31   C88   S    
C82   C95   A    
O32   Zn2   S    
C48   C98   S    
C72   C116  A    
O5    Zn8   S    
O20   Zn10  S    
C102  O33   A    
C89   C98   A    
C116  C125  S    
C102  O29   A    
O46   Zn6   S    
O23   Zn6   S    
C27   C83   S    
C67   C113  A    
O2    Zn9   S    
C112  C121  S    
C60   C111  A    
C32   H93   S    
C33   C90   S    
O19   Zn9   S    
C30   H85   S    
C10   H26   S    
C85   O2    A    
C16   H43   S    
C57   C75   A    
C65   C82   A    
C117  C125  T    
C61   C79   A    
C5    C61   S    
C28   H80   S    
C101  O35   A    
C23   H66   S    
C37   C46   T    
C54   O25   A    
O16   Zn6   S    
O27   Zn12  S    
C105  O43   A    
C12   H31   S    
C14   H36   S    
C108  O41   A    
C14   C70   S    
C19   H53   S    
C14   H35   S    
C7    C64   S    
C128  H89   S    
C32   H91   S    
C25   H69   S    
C24   C42   T    
C51   C94   S    
C14   H37   S    
C101  O28   A    
C33   H96   S    
C11   H28   S    
C8    C65   S    
C36   C108  S    
C18   H50   S    
C26   C82   S    
C83   C97   A    
C68   C114  A    
O34   Zn7   S    
C35   C106  S    
C103  O30   A    
C9    H21   S    
C41   O45   A    
C104  O40   A    
C7    H17   S    
C80   C93   A    
C34   C43   T    
C61   C112  A    
C103  O32   A    
C42   C63   S    
O24   Zn11  S    
C48   O10   A    
C44   C85   S    
C11   H30   S    
C3    C59   S    
C4    H5    S    
C47   O9    A    
O30   Zn12  S    
