data_mof_unit_32083.cif
_audit_creation_date              2012-12-11T16:24:08-0500
_audit_creation_method            fapswitch 2.2
_symmetry_space_group_name_H-M    P1
_symmetry_Int_Tables_number       1
_space_group_crystal_system       triclinic
_cell_length_a                    14.747733
_cell_length_b                    14.770793
_cell_length_c                    33.280679
_cell_angle_alpha                 96.033943
_cell_angle_beta                  96.208136
_cell_angle_gamma                 61.230741
_cell_volume                      6305.85713179

loop_
_atom_site_label
_atom_site_type_symbol
_atom_type_description
_atom_site_fract_x
_atom_site_fract_y
_atom_site_fract_z
_atom_type_partial_charge
C1    C     C_R   0.390901 0.699761 0.446173 0.547124
C2    C     C_R   0.321112 0.348113 0.309667 0.038904
C3    C     C_R   0.406828 0.266777 0.328404 -0.106981
C4    C     C_R   0.430246 0.275548 0.369887 -0.126877
C5    C     C_R   0.379650 0.236732 0.168652 0.281156
C6    C     C_R   0.372746 0.218166 0.126755 -0.102840
C7    C     C_R   0.216807 0.383391 0.120949 -0.144119
C8    C     C_R   0.222668 0.401757 0.162952 -0.159697
C9    C     C_R   0.302062 0.327213 0.186843 0.040315
C10   C     C_1   0.302220 0.340008 0.230099 0.017239
C11   C     C_1   0.307664 0.345298 0.266437 -0.007736
C12   C     C_R   0.405637 0.386373 0.434056 0.543720
C13   C     C_R   0.290350 0.290079 0.102600 -0.024197
C14   C     C_R   0.759847 0.372072 0.411095 0.023590
C15   C     C_R   0.795358 0.433000 0.395355 -0.128620
C16   C     C_R   0.829473 0.410443 0.356398 -0.118812
C17   C     C_R   0.829134 0.326331 0.332594 0.035821
C18   C     C_R   0.803042 0.259680 0.349696 -0.122647
C19   C     C_R   0.768411 0.282517 0.388690 -0.130903
C20   C     C_R   0.854540 0.304259 0.207734 0.343218
C21   C     C_R   0.844432 0.315583 0.289082 0.347990
C22   C     C_R   0.845519 0.385325 0.144397 -0.119159
C23   C     C_R   0.701127 0.409894 0.447673 0.548824
C24   C     C_R   0.869816 0.376135 0.104400 -0.128414
C25   C     C_R   0.921761 0.193079 0.101297 -0.130782
C26   C     C_R   0.898017 0.202179 0.141407 -0.128523
C27   C     C_R   0.863723 0.297542 0.163791 0.031107
C28   C     C_R   0.912464 0.279062 0.083108 0.023021
C29   C     C_R   0.370281 0.755979 0.409471 0.021951
C30   C     C_R   0.275602 0.786973 0.386529 -0.129163
C31   C     C_R   0.264481 0.817062 0.347284 -0.118968
C32   C     C_R   0.347753 0.816888 0.330347 0.035005
C33   C     C_R   0.438954 0.795438 0.354630 -0.119690
C34   C     C_R   0.393485 0.701328 0.561249 0.542394
C35   C     C_R   0.450169 0.765139 0.393922 -0.130988
C36   C     C_R   0.339701 0.836100 0.205453 0.348614
C37   C     C_R   0.342816 0.828831 0.286689 0.348124
C38   C     C_R   0.255917 0.836930 0.136283 -0.122191
C39   C     C_R   0.237361 0.865312 0.096452 -0.132236
C40   C     C_R   0.379891 0.905195 0.105507 -0.129091
C41   C     C_R   0.398510 0.876695 0.145395 -0.113431
C42   C     C_R   0.333509 0.846987 0.161648 0.034178
C43   C     C_R   0.295976 0.904408 0.081341 0.021220
C44   C     C_R   0.369166 0.368107 0.584087 0.023504
C45   C     C_R   0.407069 0.388715 0.548839 0.542340
C46   C     C_R   0.284941 0.448663 0.603686 -0.130579
C47   C     C_R   0.263411 0.436843 0.641932 -0.120779
C48   C     C_R   0.325670 0.344249 0.661137 0.037545
C49   C     C_R   0.403672 0.260530 0.639884 -0.122572
C50   C     C_R   0.425174 0.272384 0.601648 -0.138474
C51   C     C_R   0.314319 0.333755 0.785440 0.369286
C52   C     C_R   0.316771 0.338453 0.704326 0.341913
C53   C     C_R   0.217933 0.393171 0.847986 -0.171594
C54   C     C_R   0.206932 0.378238 0.887440 -0.150948
C55   C     C_R   0.385678 0.243841 0.892112 -0.114844
C56   C     C_R   0.701588 0.413517 0.562681 0.565130
C57   C     C_R   0.396437 0.255018 0.851888 0.270653
C58   C     C_R   0.310852 0.329027 0.829249 0.044814
C59   C     C_R   0.289399 0.300077 0.909084 -0.021794
C60   C     C_R   0.752874 0.382194 0.603395 0.035003
C61   C     C_R   0.756735 0.458378 0.631698 -0.173466
C62   C     C_R   0.782613 0.439161 0.672534 -0.130197
C63   C     C_R   0.806718 0.343112 0.685738 -0.001948
C64   C     C_R   0.810506 0.264113 0.657796 -0.095812
C65   C     C_R   0.782062 0.283096 0.616535 0.264839
C66   C     C_R   0.882547 0.213823 0.823307 -0.107052
C67   C     C_R   0.368218 0.366255 0.392940 0.020261
C68   C     C_R   0.911352 0.202177 0.864596 -0.125250
C69   C     C_R   0.870380 0.382700 0.873772 -0.125466
C70   C     C_R   0.841455 0.394133 0.832554 -0.110241
C71   C     C_R   0.850498 0.309024 0.807121 0.043216
C72   C     C_1   0.834620 0.318040 0.764166 -0.019485
C73   C     C_1   0.822713 0.327818 0.728275 -0.019331
C74   C     C_R   0.909071 0.285671 0.889966 0.020696
C75   C     C_R   0.376248 0.755176 0.601900 0.020530
C76   C     C_R   0.280604 0.791216 0.618884 -0.123927
C77   C     C_R   0.270785 0.821183 0.660042 -0.109396
C78   C     C_R   0.278099 0.444550 0.374246 -0.124496
C79   C     C_R   0.356153 0.815768 0.684630 0.042040
C80   C     C_R   0.449806 0.786092 0.667603 -0.112881
C81   C     C_R   0.459806 0.756307 0.626387 -0.129547
C82   C     C_R   0.394887 0.888705 0.832306 -0.118578
C83   C     C_R   0.375451 0.915426 0.873167 -0.131611
C84   C     C_R   0.228655 0.881893 0.862673 -0.126337
C85   C     C_R   0.248425 0.855048 0.821857 -0.109659
C86   C     C_R   0.329803 0.861064 0.806451 0.042943
C87   C     C_1   0.342042 0.845164 0.763704 -0.025126
C88   C     C_1   0.349448 0.832747 0.727676 -0.024633
C89   C     C_R   0.254984 0.435598 0.332728 -0.111781
C90   C     C_R   0.290102 0.915365 0.888510 0.021754
C91   C     C_R   0.964132 0.263865 0.045724 0.546068
C92   C     C_R   0.272457 0.258698 0.060238 0.547763
C93   C     C_R   0.259104 0.959908 0.043860 0.546240
C94   C     C_R   0.962437 0.267678 0.930788 0.542407
C95   C     C_R   0.270896 0.263844 0.945317 0.547588
C96   C     C_R   0.256022 0.965343 0.928882 0.543043
Cr1   Cr    Cr6+3 0.576280 0.580550 0.506370 1.010744
Cr2   Cr    Cr6+3 0.346780 0.572400 0.496520 1.012463
Cr3   Cr    Cr6+3 0.576960 0.347070 0.497150 1.027369
Cr4   Cr    Cr6+3 0.087320 0.083240 0.984860 1.011713
Cr5   Cr    Cr6+3 0.087720 0.316210 0.996740 1.014372
Cr6   Cr    Cr6+3 0.317350 0.090340 0.995890 1.008597
H1    H     H_    0.428694 0.144401 0.113575 0.135424
H2    H     H_    0.742308 0.233664 0.400201 0.129445
H3    H     H_    0.860977 0.443875 0.090983 0.129501
H4    H     H_    0.851159 0.461985 0.344232 0.134076
H5    H     H_    0.802887 0.193758 0.332109 0.129611
H6    H     H_    0.817233 0.460353 0.160651 0.136634
H7    H     H_    0.954548 0.117148 0.085625 0.131842
H8    H     H_    0.912364 0.133265 0.155471 0.132255
H9    H     H_    0.212173 0.781947 0.397901 0.131474
H10   H     H_    0.523808 0.742530 0.411056 0.130057
H11   H     H_    0.192398 0.835289 0.329563 0.136690
H12   H     H_    0.504010 0.795922 0.342558 0.136390
H13   H     H_    0.205876 0.812213 0.147737 0.132728
H14   H     H_    0.426777 0.934536 0.094607 0.129595
H15   H     H_    0.459718 0.884048 0.164098 0.146556
H16   H     H_    0.239699 0.523142 0.590703 0.130439
H17   H     H_    0.489256 0.208383 0.586872 0.114357
H18   H     H_    0.201766 0.502261 0.657289 0.132812
H19   H     H_    0.451912 0.187479 0.653581 0.129411
H20   H     H_    0.151249 0.450515 0.831272 0.139604
H21   H     H_    0.451206 0.186055 0.909124 0.130213
H22   H     H_    0.941252 0.126356 0.876081 0.126688
H23   H     H_    0.889572 0.147572 0.803777 0.110060
H24   H     H_    0.832777 0.188793 0.668234 0.109147
H25   H     H_    0.733854 0.535273 0.622749 0.134701
H26   H     H_    0.816369 0.468225 0.820235 0.109708
H27   H     H_    0.500085 0.214002 0.383359 0.129088
H28   H     H_    0.780395 0.500530 0.694027 0.122196
H29   H     H_    0.423924 0.941394 0.892160 0.121825
H30   H     H_    0.458144 0.893381 0.820576 0.100630
H31   H     H_    0.516288 0.781742 0.686462 0.107113
H32   H     H_    0.534639 0.728449 0.614307 0.123717
H33   H     H_    0.214884 0.791232 0.600871 0.128417
H34   H     H_    0.197810 0.833430 0.801998 0.113174
H35   H     H_    0.162249 0.881341 0.873474 0.126573
H36   H     H_    0.197891 0.844314 0.673008 0.110348
H37   H     H_    0.228740 0.515370 0.391161 0.128483
H38   H     H_    0.163112 0.472060 0.176891 0.124431
H39   H     H_    0.152013 0.439679 0.103117 0.136244
H40   H     H_    0.188449 0.498846 0.318365 0.115297
H41   H     H_    0.791025 0.501743 0.412138 0.131369
N1    N     N_R   0.840589 0.391279 0.230399 -0.228613
N2    N     N_R   0.247130 0.421538 0.726059 -0.237119
N3    N     N_R   0.384494 0.252858 0.723903 -0.243091
N4    N     N_R   0.382862 0.250440 0.763585 -0.185790
N5    N     N_R   0.835396 0.396905 0.270245 -0.228750
N6    N     N_R   0.858930 0.228206 0.266492 -0.238033
N7    N     N_R   0.864745 0.222392 0.226604 -0.247296
N8    N     N_R   0.262941 0.830188 0.222149 -0.231760
N9    N     N_R   0.264652 0.826270 0.261927 -0.230856
N10   N     N_R   0.419767 0.834705 0.270037 -0.226675
N11   N     N_R   0.417871 0.838981 0.230192 -0.222819
N12   N     N_R   0.245473 0.419015 0.765816 -0.245165
O1    O     O_R   0.679450 0.499830 0.463150 -0.519761
O2    O     O_R   0.356040 0.477400 0.534170 -0.501733
O3    O     O_R   0.495910 0.323070 0.537100 -0.535455
O4    O     O_R   0.663920 0.359620 0.542290 -0.459801
O5    O     O_3   0.500010 0.500010 0.500010 -0.242050
O6    O     O_R   0.170070 0.978950 0.027680 -0.520048
O7    O     O_R   0.001760 0.175230 0.026640 -0.502510
O8    O     O_R   0.984760 0.333570 0.037150 -0.517132
O9    O     O_R   0.183410 0.309240 0.041890 -0.495887
O10   O     O_R   0.340240 0.172500 0.045430 -0.523848
O11   O     O_R   0.309670 0.000990 0.032050 -0.502659
O12   O     O_R   0.480650 0.664000 0.464630 -0.501270
O13   O     O_R   0.168330 0.982130 0.939200 -0.520376
O14   O     O_R   0.000140 0.178170 0.944610 -0.502208
O15   O     O_R   0.983010 0.336750 0.948660 -0.520657
O16   O     O_R   0.181800 0.312190 0.959860 -0.498706
O17   O     O_R   0.338500 0.175680 0.956950 -0.523234
O18   O     O_R   0.308050 0.003930 0.950020 -0.502189
O19   O     O_3   0.164130 0.163270 0.992500 -0.236516
O20   O     O_R   0.323930 0.675950 0.455370 -0.518812
O21   O     O_R   0.354700 0.475360 0.451930 -0.501790
O22   O     O_R   0.494470 0.320860 0.448390 -0.520023
O23   O     O_R   0.662580 0.357570 0.460050 -0.499486
O24   O     O_R   0.680900 0.502040 0.551870 -0.532353
O25   O     O_R   0.481990 0.666040 0.546870 -0.504240
O26   O     O_R   0.325370 0.678160 0.544080 -0.518890
H42   H     H_    0.172900 0.862753 0.078376 0.128436
O27   O     O_3   0.455480 0.160333 0.192074 -0.567886
C97   C     C_3   0.542521 0.177366 0.199717 0.008877
H43   H     H_    0.575552 0.153997 0.230859 0.157408
H44   H     H_    0.523293 0.260288 0.199172 0.124089
C98   C     C_3   0.624837 0.109980 0.169807 -0.278711
H45   H     H_    0.643998 0.027719 0.171078 0.177857
H46   H     H_    0.594354 0.133997 0.138557 0.153214
C99   C     C_3   0.723287 0.119670 0.179510 -0.460205
H47   H     H_    0.706088 0.200930 0.177140 0.169151
H48   H     H_    0.781542 0.069119 0.157569 0.142759
H49   H     H_    0.756376 0.095371 0.210543 0.176736
H50   H     H_    0.131851 0.423280 0.899912 0.141229
H51   H     H_    0.458372 0.198736 0.310627 0.124187
O28   O     O_3   0.491517 0.197006 0.835125 -0.550797
C100  C     C_3   0.521516 0.089855 0.832841 0.017030
H52   H     H_    0.527316 0.062068 0.800396 0.169240
H53   H     H_    0.465533 0.070442 0.844924 0.109575
C101  C     C_3   0.628129 0.031237 0.854986 -0.263946
H54   H     H_    0.685278 0.044981 0.841050 0.178913
H55   H     H_    0.624614 0.060366 0.887250 0.161808
C102  C     C_3   0.664478 0.915184 0.852910 -0.491116
H56   H     H_    0.610492 0.899441 0.868093 0.142760
H57   H     H_    0.742796 0.874794 0.868544 0.149778
H58   H     H_    0.668605 0.884137 0.820890 0.146197
O29   O     O_3   0.787994 0.204111 0.588607 -0.561606
C103  C     C_3   0.718889 0.167905 0.596670 0.018920
H59   H     H_    0.667121 0.175752 0.568979 0.179282
H60   H     H_    0.667462 0.212444 0.621819 0.117573
C104  C     C_3   0.779760 0.053166 0.605199 -0.274016
H61   H     H_    0.825530 0.008668 0.578861 0.176107
H62   H     H_    0.834532 0.042169 0.632172 0.159408
C105  C     C_3   0.707343 0.010786 0.612741 -0.489741
H63   H     H_    0.661781 0.053241 0.639335 0.150027
H64   H     H_    0.753663 0.927607 0.618891 0.150936
H65   H     H_    0.653391 0.018503 0.585726 0.144660
H66   H     H_    0.867635 0.448441 0.892486 0.126664

loop_
_geom_bond_atom_site_label_1
_geom_bond_atom_site_label_2
_ccdc_geom_bond_type
C8    C9    A    
C7    C13   A    
C66   C68   A    
C102  H56   S    
C99   H47   S    
C54   H50   S    
Cr3   O4    S    
C100  C101  S    
C41   C42   A    
C74   C94   S    
C34   O25   A    
N1    N5    A    
C40   H14   S    
C78   H37   S    
C68   H22   S    
C36   N11   A    
C7    C8    A    
C31   C32   A    
C85   C86   A    
C25   C28   A    
C83   H29   S    
C102  H57   S    
C51   N12   A    
C33   H12   S    
C103  H59   S    
C59   C95   S    
Cr3   O22   S    
C56   O4    A    
C55   C59   A    
C53   H20   S    
C103  C104  S    
C94   O14   A    
C5    C6    A    
C80   C81   A    
C98   H46   S    
C105  H64   S    
Cr1   O24   S    
C1    O12   A    
C68   C74   A    
C89   H40   S    
C97   H43   S    
C46   H16   S    
C34   O26   A    
C18   C19   A    
Cr1   O1    S    
C100  H53   S    
C62   H28   S    
C18   H5    S    
C23   O23   A    
C99   H49   S    
C43   C93   S    
C36   C42   S    
C92   O10   A    
C40   C43   A    
C1    O20   A    
C104  H61   S    
C53   C54   A    
C97   H44   S    
C101  H54   S    
C98   C99   S    
C52   N3    A    
N8    N9    A    
C96   O13   A    
C91   O7    A    
C70   C71   A    
C93   O6    A    
C29   C30   A    
C95   O17   A    
C26   H8    S    
C61   C62   A    
C25   H7    S    
C34   C75   S    
C12   O21   A    
C92   O9    A    
C12   O22   A    
Cr6   O11   S    
C23   O1    A    
C72   C73   T    
C91   O8    A    
Cr5   O19   S    
C69   C70   A    
C67   C78   A    
C84   C90   A    
C2    C11   S    
C79   C88   S    
C102  H58   S    
C76   H33   S    
C44   C46   A    
C54   C59   A    
C77   C79   A    
C78   C89   A    
Cr6   O17   S    
C12   C67   S    
C55   H21   S    
C32   C37   S    
C96   O18   A    
C57   O28   S    
C69   H66   S    
Cr1   O5    S    
C37   N10   A    
Cr5   O8    S    
C84   C85   A    
C45   O2    A    
C77   H36   S    
Cr3   O23   S    
C52   N2    A    
C105  H63   S    
C16   C17   A    
Cr1   O25   S    
C39   C43   A    
C63   C73   S    
C25   C26   A    
Cr1   O12   S    
C3    H51   S    
C80   H31   S    
O29   C103  S    
C60   C61   A    
Cr6   O18   S    
C14   C23   S    
C2    C89   A    
C75   C76   A    
C21   N5    A    
O27   C97   S    
C5    C9    A    
C62   C63   A    
Cr2   O21   S    
C19   H2    S    
C47   C48   A    
C14   C15   A    
Cr2   O2    S    
C51   N4    A    
C30   C31   A    
C53   C58   A    
C49   H19   S    
C1    C29   S    
C17   C18   A    
C26   C27   A    
Cr5   O15   S    
C61   H25   S    
C51   C58   S    
C6    H1    S    
C76   C77   A    
C90   C96   S    
Cr4   O6    S    
C66   C71   A    
C15   H41   S    
C101  H55   S    
C40   C41   A    
C104  H62   S    
Cr2   O5    S    
C84   H35   S    
C49   C50   A    
Cr6   O10   S    
C21   N6    A    
C22   C27   A    
C55   C57   A    
C13   C92   S    
Cr4   O19   S    
C22   C24   A    
C79   C80   A    
C37   N9    A    
C82   H30   S    
C3    C4    A    
C7    H39   S    
C44   C45   S    
N3    N4    A    
C9    C10   S    
C44   C50   A    
C83   C90   A    
C46   C47   A    
C48   C49   A    
C99   H48   S    
Cr4   O14   S    
C86   C87   S    
C14   C19   A    
Cr5   O9    S    
C75   C81   A    
C45   O3    A    
C24   C28   A    
O28   C100  S    
C105  H65   S    
C93   O11   A    
C4    C67   A    
C20   N1    A    
C97   C98   S    
C36   N8    A    
C38   C42   A    
C4    H27   S    
C65   O29   S    
C20   C27   S    
C16   H4    S    
Cr6   O19   S    
C60   C65   A    
C29   C35   A    
C64   H24   S    
C66   H23   S    
C8    H38   S    
C30   H9    S    
Cr4   O13   S    
C64   C65   A    
Cr2   O26   S    
C2    C3    A    
C98   H45   S    
C82   C86   A    
N6    N7    A    
C32   C33   A    
C6    C13   A    
C38   H13   S    
C57   C58   A    
C38   C39   A    
C101  C102  S    
C22   H6    S    
C63   C64   A    
C33   C35   A    
C20   N7    A    
Cr5   O16   S    
C28   C91   S    
C100  H52   S    
C17   C21   S    
C5    O27   S    
C70   H26   S    
C39   H42   S    
C10   C11   T    
C85   H34   S    
C50   H17   S    
N2    N12   A    
C56   C60   S    
C48   C52   S    
C104  C105  S    
C71   C72   S    
C87   C88   T    
C103  H60   S    
C82   C83   A    
Cr3   O3    S    
C47   H18   S    
C69   C74   A    
Cr4   O7    S    
C24   H3    S    
C41   H15   S    
N10   N11   A    
Cr3   O5    S    
C95   O16   A    
C31   H11   S    
C94   O15   A    
C35   H10   S    
C15   C16   A    
Cr2   O20   S    
C56   O24   A    
C81   H32   S    
