data_mof_unit_61318.cif
_audit_creation_date              2012-12-10T19:17:25-0500
_audit_creation_method            fapswitch 2.2
_symmetry_space_group_name_H-M    P1
_symmetry_Int_Tables_number       1
_space_group_crystal_system       triclinic
_cell_length_a                    16.015058
_cell_length_b                    14.772254
_cell_length_c                    15.923576
_cell_angle_alpha                 90.000818
_cell_angle_beta                  89.93839
_cell_angle_gamma                 90.000563
_cell_volume                      3767.17361949

loop_
_atom_site_label
_atom_site_type_symbol
_atom_type_description
_atom_site_fract_x
_atom_site_fract_y
_atom_site_fract_z
_atom_type_partial_charge
C1    C     C_R   0.340912 0.500000 0.500046 0.811437
C2    C     C_3   0.591747 0.505323 0.952404 0.487068
C3    C     C_3   0.589681 0.505220 0.050103 -0.470036
C4    C     C_1   0.499797 0.500003 0.824736 0.148365
C5    C     C_1   0.499035 0.499965 0.175264 0.142810
C6    C     C_1   0.499640 0.499993 0.250570 -0.061545
C7    C     C_R   0.956208 0.582623 0.499512 0.319855
C8    C     C_R   0.956204 0.417380 0.500809 0.320088
C9    C     C_R   0.912639 0.500003 0.500157 -0.197090
C10   C     C_R   0.043780 0.417379 0.500789 0.319714
C11   C     C_R   0.043785 0.582622 0.499492 0.320029
C12   C     C_R   0.087349 0.499998 0.500123 -0.196369
C13   C     C_1   0.822969 0.500003 0.500118 0.194141
C14   C     C_R   0.500032 0.499999 0.339906 0.812458
C15   C     C_1   0.177020 0.499998 0.500089 0.194212
C16   C     C_1   0.251959 0.499998 0.500065 -0.066806
C17   C     C_1   0.748030 0.500002 0.500072 -0.066041
C18   C     C_R   0.509481 0.951792 0.578407 0.362654
C19   C     C_R   0.509483 0.048211 0.578406 0.362458
C20   C     C_R   0.500217 0.902861 0.502593 -0.121897
C21   C     C_R   0.500216 0.097139 0.502594 -0.121890
C22   C     C_R   0.491015 0.952245 0.427655 -0.156073
C23   C     C_R   0.491012 0.047752 0.427655 -0.155687
C24   C     C_1   0.500053 0.802661 0.500911 0.313968
C25   C     C_1   0.500052 0.197339 0.500911 0.314116
C26   C     C_R   0.659076 0.500000 0.500019 0.811001
C27   C     C_R   0.499977 0.500001 0.660132 0.817967
C28   C     C_3   0.451101 0.586921 0.048844 0.396312
C29   C     C_3   0.459919 0.407968 0.048833 0.395764
C30   C     C_3   0.454341 0.412880 0.950557 0.013097
C31   C     C_3   0.446061 0.581407 0.950564 0.012557
C32   C     C_1   0.499873 0.500001 0.749435 -0.040650
C33   C     C_3   0.498032 0.499908 0.083139 -0.134575
C34   C     C_3   0.499808 0.500008 0.916837 -0.156946
Cu1   Cu    Cu3+1 0.500000 0.589220 0.500020 1.082092
Cu2   Cu    Cu3+1 0.500000 0.410780 0.500020 1.082167
H1    H     H_    0.380012 0.566832 0.933920 0.158636
H2    H     H_    0.387233 0.419777 0.933938 0.158970
H3    H     H_    0.483775 0.916736 0.368570 0.194208
H4    H     H_    0.483768 0.083258 0.368571 0.194400
H5    H     H_    0.622033 0.565697 0.075408 0.240421
H6    H     H_    0.627804 0.448842 0.075418 0.240365
N1    N     N_1   0.499980 0.276710 0.500030 -0.132895
N2    N     N_1   0.499980 0.723290 0.500030 -0.132923
O1    O     O_R   0.380310 0.575320 0.500040 -0.558756
O2    O     O_R   0.380310 0.424680 0.500040 -0.559098
O3    O     O_R   0.500000 0.575380 0.379460 -0.566316
O4    O     O_R   0.500000 0.424620 0.379460 -0.565390
O5    O     O_R   0.619690 0.575360 0.500000 -0.557634
O6    O     O_R   0.619690 0.424640 0.500000 -0.557268
O7    O     O_R   0.500000 0.575310 0.620580 -0.549178
O8    O     O_R   0.500000 0.424690 0.620580 -0.550023
Br1   Br    Br    0.338452 0.602044 0.094648 -0.312482
Br2   Br    Br    0.349415 0.379894 0.094660 -0.311760
Br3   Br    Br    0.526435 0.304049 0.088229 -0.283251
Br4   Br    Br    0.507004 0.697934 0.088288 -0.283150
Br5   Br    Br    0.478739 0.299752 0.890081 -0.205730
Br6   Br    Br    0.459281 0.696708 0.890119 -0.209631
Br7   Br    Br    0.652069 0.612517 0.913268 -0.262484
Br8   Br    Br    0.662222 0.405665 0.913281 -0.267679
Cl1   Cl    Cl    0.098914 0.686357 0.498664 -0.409745
Cl2   Cl    Cl    0.098903 0.313641 0.501590 -0.410191
Cl3   Cl    Cl    0.901086 0.686362 0.498730 -0.407623
Cl4   Cl    Cl    0.901074 0.313645 0.501653 -0.406740
Cl5   Cl    Cl    0.521082 0.107721 0.673895 -0.388404
Cl6   Cl    Cl    0.521067 0.892285 0.673897 -0.387374

loop_
_geom_bond_atom_site_label_1
_geom_bond_atom_site_label_2
_ccdc_geom_bond_type
Cu1   O5    S    
C11   C12   A    
C3    H6    S    
Cu2   O2    S    
C29   C30   S    
C6    C14   S    
C20   C22   A    
C19   Cl5   S    
Cu1   Cu2   S    
Cu2   O8    S    
C12   C15   S    
C13   C17   T    
C28   Br1   S    
Cu1   O3    S    
C2    C34   S    
C26   O6    A    
C2    C3    S    
C28   Br4   S    
C31   C34   S    
C1    C16   S    
C10   Cl2   S    
C7    C11   A    
Cu1   N2    S    
C1    O1    A    
C21   C25   S    
C4    C32   T    
C2    Br8   S    
C10   C12   A    
C8    Cl4   S    
C22   H3    S    
C17   C26   S    
C31   Br6   S    
C25   N1    T    
C19   C21   A    
C27   O7    A    
C28   C33   S    
Cu2   O4    S    
C18   C20   A    
C21   C23   A    
Cu1   O7    S    
C5    C6    T    
C24   N2    T    
C9    C13   S    
C4    C34   S    
C1    O2    A    
C18   Cl6   S    
C29   Br2   S    
C3    C33   S    
C15   C16   T    
Cu1   O1    S    
C30   Br5   S    
C29   C33   S    
Cu2   O6    S    
C27   O8    A    
C30   H2    S    
C8    C10   A    
C18   C19   A    
C7    Cl3   S    
C26   O5    A    
C7    C9    A    
C30   C34   S    
C2    Br7   S    
C3    H5    S    
Cu2   N1    S    
C14   O4    A    
C29   Br3   S    
C27   C32   S    
C22   C23   A    
C14   O3    A    
C20   C24   S    
C28   C31   S    
C23   H4    S    
C31   H1    S    
C8    C9    A    
C11   Cl1   S    
C5    C33   S    
