data_mof_unit_34536.cif
_audit_creation_date              2012-12-10T21:06:53-0500
_audit_creation_method            fapswitch 2.2
_symmetry_space_group_name_H-M    P1
_symmetry_Int_Tables_number       1
_space_group_crystal_system       triclinic
_cell_length_a                    10.70436
_cell_length_b                    15.842828
_cell_length_c                    15.102871
_cell_angle_alpha                 89.703717
_cell_angle_beta                  90.648098
_cell_angle_gamma                 88.923115
_cell_volume                      2560.60230256

loop_
_atom_site_label
_atom_site_type_symbol
_atom_type_description
_atom_site_fract_x
_atom_site_fract_y
_atom_site_fract_z
_atom_type_partial_charge
C1    C     C_R   0.499449 0.338943 0.500138 0.876211
C2    C     C_R   0.500551 0.661057 0.499862 0.876211
C3    C     C_R   0.872398 0.500941 0.502466 -0.182861
C4    C     C_R   0.127601 0.499059 0.497534 -0.182861
C5    C     C_R   0.938783 0.438086 0.550924 -0.035628
C6    C     C_R   0.061217 0.561914 0.449076 -0.035628
C7    C     C_R   0.444867 0.955092 0.568867 -0.265764
C8    C     C_R   0.555137 0.044907 0.431134 -0.265767
C9    C     C_R   0.507134 0.912996 0.500946 -0.047344
C10   C     C_R   0.492870 0.087003 0.499055 -0.047345
C11   C     C_R   0.561803 0.957203 0.431277 0.497888
C12   C     C_R   0.438200 0.042797 0.568724 0.497888
C13   C     C_1   0.507524 0.824082 0.500548 0.061601
C14   C     C_1   0.492478 0.175918 0.499452 0.061597
C15   C     C_1   0.495279 0.250681 0.500140 -0.164713
C16   C     C_1   0.504722 0.749319 0.499860 -0.164712
C17   C     C_R   0.453281 0.429755 0.952903 0.010085
C18   C     C_R   0.546719 0.570244 0.047097 0.010086
C19   C     C_R   0.502209 0.498999 0.905066 -0.023553
C20   C     C_R   0.497791 0.501001 0.094934 -0.023553
C21   C     C_R   0.547832 0.569398 0.952380 -0.077879
C22   C     C_R   0.452168 0.430602 0.047620 -0.077880
C23   C     C_R   0.259887 0.501182 0.499300 0.842894
C24   C     C_R   0.740113 0.498818 0.500700 0.842894
C25   C     C_1   0.500715 0.499769 0.806891 0.174598
C26   C     C_1   0.499285 0.500231 0.193109 0.174598
C27   C     C_R   0.191633 0.776321 0.382323 0.032244
C28   C     C_R   0.808368 0.223679 0.617679 0.032244
C29   C     C_R   0.138877 0.711783 0.435382 -0.022106
C30   C     C_R   0.861124 0.288217 0.564619 -0.022105
C31   C     C_R   0.127394 0.629583 0.400054 -0.004144
C32   C     C_R   0.872606 0.370417 0.599946 -0.004144
C33   C     C_R   0.165027 0.612919 0.313192 0.003109
C34   C     C_R   0.834973 0.387082 0.686808 0.003108
C35   C     C_R   0.215400 0.676455 0.260625 0.057659
C36   C     C_R   0.784600 0.323546 0.739376 0.057660
C37   C     C_R   0.228854 0.757323 0.295655 -0.323418
C38   C     C_R   0.771147 0.242678 0.704346 -0.323420
C39   C     C_R   0.931268 0.563381 0.452086 -0.076054
C40   C     C_R   0.068732 0.436619 0.547914 -0.076055
H1    H     H_    0.268096 0.806262 0.254567 0.119215
H2    H     H_    0.731906 0.193739 0.745435 0.119214
H3    H     H_    0.152165 0.550383 0.286165 0.166705
H4    H     H_    0.847835 0.449618 0.713835 0.166705
H5    H     H_    0.400357 0.920022 0.621261 0.204275
H6    H     H_    0.599646 0.079978 0.378740 0.204273
N1    N     N_1   0.499960 0.500020 0.270550 -0.080971
N2    N     N_1   0.500040 0.499980 0.729450 -0.080971
O1    O     O_R   0.500000 0.378020 0.573650 -0.593220
O2    O     O_R   0.500000 0.621980 0.426350 -0.593220
O3    O     O_R   0.500060 0.378020 0.426320 -0.612370
O4    O     O_R   0.499940 0.621980 0.573680 -0.612369
O5    O     O_R   0.316730 0.500010 0.573660 -0.613015
O6    O     O_R   0.683270 0.499990 0.426340 -0.613015
O7    O     O_R   0.316790 0.500010 0.426330 -0.620094
O8    O     O_R   0.683210 0.499990 0.573670 -0.620095
Zn1   Zn    Zn3+2 0.499960 0.500000 0.598370 1.003232
Zn2   Zn    Zn3+2 0.500040 0.500000 0.401630 1.003231
C41   C     C_2   0.396213 0.358125 0.904294 0.451764
H7    H     H_    0.317331 0.325557 0.931996 0.114515
O9    O     O_2   0.437424 0.333873 0.833629 -0.606242
C42   C     C_2   0.603787 0.641875 0.095706 0.451764
H8    H     H_    0.682668 0.674443 0.068004 0.114514
O10   O     O_2   0.562575 0.666128 0.166371 -0.606244
C43   C     C_2   0.211876 0.864117 0.412977 0.463472
H9    H     H_    0.237582 0.912301 0.365506 0.041413
O11   O     O_2   0.204452 0.883821 0.490691 -0.515430
C44   C     C_2   0.788126 0.135883 0.587025 0.463470
H10   H     H_    0.762419 0.087699 0.634496 0.041412
O12   O     O_2   0.795551 0.116178 0.509311 -0.515428
C45   C     C_2   0.089774 0.728123 0.525274 0.465000
H11   H     H_    0.109684 0.683278 0.578376 0.044556
O13   O     O_2   0.019692 0.788143 0.539196 -0.485873
C46   C     C_2   0.910226 0.271877 0.474727 0.464999
H12   H     H_    0.890315 0.316722 0.421625 0.044556
O14   O     O_2   0.980309 0.211857 0.460805 -0.485873
C47   C     C_2   0.251840 0.659977 0.168079 0.443417
H13   H     H_    0.295513 0.709069 0.129472 0.097045
O15   O     O_2   0.232682 0.591861 0.133498 -0.590004
C48   C     C_2   0.748160 0.340025 0.831922 0.443415
H14   H     H_    0.704487 0.290933 0.870529 0.097044
O16   O     O_2   0.767319 0.408141 0.866502 -0.590005
C49   C     C_2   0.855750 0.631805 0.406795 0.503437
H15   H     H_    0.770332 0.655415 0.436604 0.061438
O17   O     O_2   0.885773 0.660581 0.335145 -0.547866
C50   C     C_2   0.144250 0.368195 0.593205 0.503438
H16   H     H_    0.229668 0.344585 0.563396 0.061438
O18   O     O_2   0.114227 0.339419 0.664855 -0.547864
O19   O     O_3   0.370544 0.084639 0.632944 -0.568478
C51   C     C_3   0.449394 0.097740 0.706868 0.047666
H17   H     H_    0.526362 0.140800 0.689245 0.135863
H18   H     H_    0.489812 0.036990 0.732765 0.139443
C52   C     C_3   0.373576 0.138617 0.780131 -0.645078
H19   H     H_    0.435320 0.151939 0.837772 0.214987
H20   H     H_    0.330064 0.198699 0.755841 0.294819
H21   H     H_    0.298799 0.095602 0.801509 0.246946
O20   O     O_3   0.629461 0.915361 0.367058 -0.568478
C53   C     C_3   0.550613 0.902264 0.293131 0.047668
H22   H     H_    0.510205 0.963016 0.267232 0.139447
H23   H     H_    0.473638 0.859209 0.310752 0.135856
C54   C     C_3   0.626431 0.861381 0.219871 -0.645075
H24   H     H_    0.701216 0.904391 0.198495 0.246947
H25   H     H_    0.669933 0.801296 0.244164 0.294819
H26   H     H_    0.564688 0.848062 0.162229 0.214986
C55   C     C_2   0.406956 0.356893 0.099176 0.365506
H27   H     H_    0.360402 0.366650 0.161859 0.092477
O21   O     O_2   0.426063 0.284600 0.074415 -0.571368
C56   C     C_2   0.593044 0.643107 0.900824 0.365505
H28   H     H_    0.639598 0.633350 0.838140 0.092478
O22   O     O_2   0.573937 0.715399 0.925585 -0.571367

loop_
_geom_bond_atom_site_label_1
_geom_bond_atom_site_label_2
_ccdc_geom_bond_type
C52   H19   S    
C27   C29   A    
C18   C21   A    
O20   C53   S    
N2    Zn1   S    
C47   H13   S    
C56   H28   S    
C55   O21   D    
C54   H24   S    
C46   O14   D    
C7    H5    S    
C19   C21   A    
C38   H2    S    
C30   C46   S    
C50   O18   D    
C24   O6    A    
O1    Zn1   S    
O8    Zn1   S    
C40   C50   S    
C9    C13   S    
C42   O10   D    
C2    O2    A    
C33   C35   A    
C4    C40   A    
C28   C44   S    
C44   H10   S    
C43   O11   D    
C31   C33   A    
C1    C15   S    
C2    C16   S    
C18   C20   A    
C5    C32   S    
C6    C31   S    
C3    C39   A    
C41   H7    S    
C54   H25   S    
C3    C24   S    
C23   O5    A    
C47   O15   D    
C7    C12   A    
C41   O9    D    
C46   H12   S    
C33   H3    S    
C12   O19   S    
C34   H4    S    
C4    C6    A    
C10   C14   S    
C45   O13   D    
C4    C23   S    
O5    Zn1   S    
C50   H16   S    
C18   C42   S    
C35   C47   S    
O2    Zn2   S    
C42   H8    S    
C27   C43   S    
C9    C11   A    
C51   H18   S    
C49   H15   S    
C28   C38   A    
O3    Zn2   S    
C1    O3    A    
C25   N2    T    
C10   C12   A    
C26   N1    T    
C17   C41   S    
C48   O16   D    
C49   O17   D    
C20   C22   A    
C53   H22   S    
C52   H21   S    
C53   H23   S    
C36   C48   S    
C13   C16   T    
C22   C55   S    
C51   C52   S    
O6    Zn2   S    
C7    C9    A    
C35   C37   A    
C6    C39   A    
C8    C10   A    
C48   H14   S    
C3    C5    A    
C23   O7    A    
C24   O8    A    
C53   C54   S    
C55   H27   S    
C17   C22   A    
C2    O4    A    
C11   O20   S    
C36   C38   A    
C39   C49   S    
C45   H11   S    
C29   C31   A    
N1    Zn2   S    
C30   C32   A    
C51   H17   S    
C52   H20   S    
C20   C26   S    
C27   C37   A    
C8    C11   A    
C28   C30   A    
C17   C19   A    
C56   O22   D    
C34   C36   A    
C37   H1    S    
C19   C25   S    
C8    H6    S    
C21   C56   S    
O4    Zn1   S    
C44   O12   D    
C43   H9    S    
O7    Zn2   S    
C14   C15   T    
C54   H26   S    
O19   C51   S    
C5    C40   A    
C1    O1    A    
C32   C34   A    
C29   C45   S    
