data_mof_unit_63177.cif
_audit_creation_date              2012-12-10T17:03:37-0500
_audit_creation_method            fapswitch 2.2
_symmetry_space_group_name_H-M    P1
_symmetry_Int_Tables_number       1
_space_group_crystal_system       triclinic
_cell_length_a                    38.919537
_cell_length_b                    21.846676
_cell_length_c                    21.882219
_cell_angle_alpha                 89.999266
_cell_angle_beta                  124.743549
_cell_angle_gamma                 90.001057
_cell_volume                      15288.4533239

loop_
_atom_site_label
_atom_site_type_symbol
_atom_type_description
_atom_site_fract_x
_atom_site_fract_y
_atom_site_fract_z
_atom_type_partial_charge
C1    C     C_R   0.998877 0.999722 0.117083 0.772494
C2    C     C_3   0.774510 0.969838 0.834814 -0.384113
C3    C     C_R   0.000119 0.002144 0.619505 0.831698
C4    C     C_R   0.499881 0.502145 0.380495 0.831705
C5    C     C_R   0.500117 0.502249 0.619467 0.831992
C6    C     C_R   0.999957 0.119203 0.500262 0.826381
C7    C     C_R   0.500043 0.619202 0.499741 0.826400
C8    C     C_R   0.435600 0.814363 0.371995 -0.119897
C9    C     C_R   0.564591 0.814604 0.627553 -0.132381
C10   C     C_R   0.935401 0.314604 0.372461 -0.132402
C11   C     C_R   0.064417 0.314368 0.627984 -0.119637
C12   C     C_R   0.407682 0.783121 0.306191 -0.118704
C13   C     C_3   0.725490 0.469831 0.165190 -0.384107
C14   C     C_R   0.592739 0.783444 0.693264 -0.132562
C15   C     C_R   0.907248 0.283444 0.306752 -0.132568
C16   C     C_R   0.092348 0.283127 0.693782 -0.118009
C17   C     C_R   0.911654 0.220935 0.302318 -0.127081
C18   C     C_R   0.087618 0.220701 0.698262 -0.124981
C19   C     C_R   0.412413 0.720694 0.301720 -0.125054
C20   C     C_R   0.588333 0.720934 0.697694 -0.127062
C21   C     C_R   0.942838 0.188869 0.364711 -0.106544
C22   C     C_R   0.056347 0.188763 0.635824 -0.108122
C23   C     C_R   0.443674 0.688758 0.364171 -0.108103
C24   C     C_3   0.274273 0.534418 0.832876 -0.377161
C25   C     C_R   0.557154 0.688867 0.635296 -0.106535
C26   C     C_R   0.970363 0.218894 0.433838 0.095085
C27   C     C_R   0.029100 0.218857 0.566688 0.093404
C28   C     C_R   0.470910 0.718854 0.433308 0.093376
C29   C     C_R   0.529634 0.718893 0.566168 0.095078
C30   C     C_3   0.226378 0.029019 0.281937 -0.339541
C31   C     C_3   0.774244 0.066028 0.771477 -0.348863
C32   C     C_3   0.725758 0.566031 0.228511 -0.348862
C33   C     C_3   0.273622 0.528041 0.717623 -0.339801
C34   C     C_R   0.468853 0.783257 0.435316 0.076890
C35   C     C_1   0.337609 0.998236 0.335339 -0.059965
C36   C     C_R   0.531412 0.783343 0.564276 0.078812
C37   C     C_R   0.968584 0.283343 0.435731 0.078809
C38   C     C_R   0.031156 0.283260 0.564677 0.076753
C39   C     C_R   0.999781 0.186528 0.500279 -0.148431
C40   C     C_R   0.500221 0.686527 0.499723 -0.148468
C41   C     C_R   0.500024 0.815137 0.499883 -0.164119
C42   C     C_R   0.999977 0.315138 0.500118 -0.164102
C43   C     C_R   0.575575 0.185070 0.555660 -0.131809
C44   C     C_R   0.424453 0.185054 0.444367 -0.134934
C45   C     C_R   0.075546 0.685057 0.555639 -0.134982
C46   C     C_1   0.662466 0.999902 0.663536 -0.064054
C47   C     C_R   0.924423 0.685067 0.444335 -0.131804
C48   C     C_R   0.610303 0.215777 0.568059 -0.150158
C49   C     C_R   0.389717 0.215755 0.431932 -0.156727
C50   C     C_R   0.110284 0.715761 0.568080 -0.156806
C51   C     C_R   0.889696 0.715772 0.431936 -0.150144
C52   C     C_R   0.105734 0.774951 0.541325 -0.125337
C53   C     C_R   0.894265 0.774957 0.458727 -0.125431
C54   C     C_R   0.605733 0.274962 0.541268 -0.125435
C55   C     C_R   0.394268 0.274946 0.458687 -0.125380
C56   C     C_R   0.067431 0.805349 0.508107 0.181268
C57   C     C_1   0.837533 0.499903 0.336464 -0.064061
C58   C     C_R   0.932572 0.805349 0.491923 0.180988
C59   C     C_R   0.567426 0.305353 0.508073 0.180991
C60   C     C_R   0.432571 0.305346 0.491900 0.181265
C61   C     C_R   0.034725 0.779366 0.510536 0.035409
C62   C     C_R   0.965258 0.779369 0.489434 0.035359
C63   C     C_R   0.534741 0.279371 0.510562 0.035352
C64   C     C_R   0.465275 0.279364 0.489465 0.035420
C65   C     C_R   0.536968 0.215880 0.523532 0.049535
C66   C     C_R   0.463057 0.215873 0.476506 0.051178
C67   C     C_R   0.036942 0.715874 0.523495 0.051198
C68   C     C_1   0.162389 0.498222 0.664690 -0.059801
C69   C     C_R   0.963030 0.715879 0.476463 0.049532
C70   C     C_R   0.999993 0.812686 0.499986 -0.183899
C71   C     C_R   0.500006 0.312686 0.500012 -0.183899
C72   C     C_3   0.274799 0.028485 0.330779 -0.355685
C73   C     C_3   0.725734 0.066209 0.723543 -0.362989
C74   C     C_3   0.774268 0.566212 0.276438 -0.362984
C75   C     C_3   0.225201 0.527322 0.668695 -0.355679
C76   C     C_R   0.500014 0.184272 0.500019 -0.130868
C77   C     C_R   0.999985 0.684272 0.499978 -0.130877
C78   C     C_1   0.375310 0.999045 0.374017 -0.135817
C79   C     C_1   0.162608 0.999104 0.160073 -0.063573
C80   C     C_1   0.624742 0.999976 0.625623 -0.137362
C81   C     C_1   0.875257 0.499976 0.374377 -0.137371
C82   C     C_1   0.124689 0.499038 0.625992 -0.135828
C83   C     C_3   0.208789 0.998291 0.205756 0.246288
C84   C     C_3   0.791307 0.999687 0.792439 0.255871
C85   C     C_3   0.708693 0.499690 0.207560 0.255863
C86   C     C_3   0.291209 0.498296 0.794309 0.246275
C87   C     C_3   0.274064 0.930944 0.267219 0.023270
C88   C     C_3   0.725501 0.962680 0.670783 0.027942
C89   C     C_3   0.774498 0.462698 0.329225 0.027951
C90   C     C_1   0.837453 0.999805 0.838592 -0.063413
C91   C     C_3   0.225945 0.431021 0.734122 0.023058
C92   C     C_3   0.291497 0.997478 0.288881 0.243987
C93   C     C_3   0.708604 0.999827 0.709221 0.247727
C94   C     C_3   0.791396 0.499830 0.290779 0.247720
C95   C     C_3   0.208501 0.497458 0.711174 0.243999
C96   C     C_1   0.662547 0.499809 0.161407 -0.063412
C97   C     C_R   0.001102 0.999724 0.882922 0.773328
C98   C     C_1   0.337391 0.499110 0.839981 -0.063529
C99   C     C_1   0.124857 0.999715 0.123301 -0.136877
C100  C     C_1   0.875192 0.999929 0.875945 -0.138193
C101  C     C_1   0.624808 0.499932 0.124054 -0.138189
C102  C     C_1   0.375143 0.499717 0.876731 -0.136874
C103  C     C_R   0.070860 0.040030 0.255225 -0.163398
C104  C     C_R   0.927822 0.034348 0.743265 -0.165944
C105  C     C_R   0.572178 0.534351 0.256732 -0.165941
C106  C     C_R   0.429127 0.539983 0.744742 -0.163410
C107  C     C_R   0.103317 0.069862 0.317930 0.178412
C108  C     C_R   0.498897 0.499723 0.117078 0.773306
C109  C     C_R   0.894333 0.061529 0.679392 0.181873
C110  C     C_R   0.605667 0.561534 0.320603 0.181869
C111  C     C_R   0.396662 0.569781 0.682010 0.178422
C112  C     C_R   0.098317 0.087593 0.373099 -0.141478
C113  C     C_R   0.899195 0.081001 0.624492 -0.143944
C114  C     C_R   0.600807 0.581003 0.375505 -0.143944
C115  C     C_R   0.401668 0.587527 0.626853 -0.141503
C116  C     C_R   0.061654 0.073207 0.367348 0.140026
C117  C     C_R   0.936514 0.069762 0.631105 0.142949
C118  C     C_R   0.563488 0.569762 0.368895 0.142947
C119  C     C_R   0.501119 0.499723 0.882913 0.772504
C120  C     C_R   0.438343 0.573178 0.632634 0.140044
C121  C     C_R   0.031593 0.032880 0.311012 0.035641
C122  C     C_R   0.967635 0.031030 0.688326 0.037546
C123  C     C_R   0.532366 0.531030 0.311674 0.037540
C124  C     C_R   0.468408 0.532866 0.688983 0.035645
C125  C     C_R   0.079913 0.999968 0.079554 0.790285
C126  C     C_R   0.920105 0.999991 0.920309 0.790615
C127  C     C_R   0.579895 0.499992 0.079691 0.790606
C128  C     C_R   0.420086 0.499968 0.920453 0.790269
C129  C     C_R   0.034064 0.023236 0.249873 0.020480
C130  C     C_3   0.274303 0.033750 0.215847 -0.419842
C131  C     C_R   0.965308 0.020857 0.749521 0.020005
C132  C     C_R   0.534693 0.520857 0.250478 0.020012
C133  C     C_R   0.465933 0.523219 0.750117 0.020487
C134  C     C_R   0.999660 0.002001 0.312691 -0.152285
C135  C     C_R   0.000344 0.001894 0.687397 -0.153215
C136  C     C_R   0.499657 0.501893 0.312603 -0.153220
C137  C     C_R   0.500345 0.501999 0.687313 -0.152296
C138  C     C_R   0.969215 0.966193 0.250214 0.048049
C139  C     C_R   0.031597 0.967589 0.750784 0.047636
C140  C     C_R   0.468404 0.467586 0.249218 0.047640
C141  C     C_3   0.725927 0.969814 0.785905 -0.420121
C142  C     C_R   0.530797 0.466207 0.749801 0.048050
C143  C     C_R   0.966801 0.969850 0.183413 0.072146
C144  C     C_R   0.033952 0.971578 0.817513 0.071230
C145  C     C_R   0.466049 0.471573 0.182490 0.071220
C146  C     C_R   0.533208 0.469868 0.816600 0.072151
C147  C     C_R   0.999495 0.998398 0.184046 -0.127243
C148  C     C_R   0.000562 0.998344 0.816082 -0.125767
C149  C     C_R   0.499438 0.498342 0.183918 -0.125759
C150  C     C_R   0.500505 0.498400 0.815954 -0.127240
C151  C     C_R   0.941591 0.925341 0.252518 -0.151826
C152  C     C_3   0.774073 0.469802 0.214103 -0.420119
C153  C     C_R   0.060056 0.927806 0.749549 -0.152182
C154  C     C_R   0.439946 0.427800 0.250457 -0.152206
C155  C     C_R   0.558432 0.425368 0.747514 -0.151837
C156  C     C_R   0.909186 0.896357 0.188401 0.200895
C157  C     C_R   0.093132 0.900593 0.814453 0.200060
C158  C     C_R   0.406871 0.400582 0.185555 0.200044
C159  C     C_R   0.590842 0.396402 0.811640 0.200892
C160  C     C_R   0.903888 0.906461 0.120845 -0.156106
C161  C     C_R   0.098235 0.911258 0.881752 -0.154954
C162  C     C_R   0.401768 0.411246 0.118255 -0.154909
C163  C     C_3   0.225683 0.534794 0.783499 -0.419898
C164  C     C_R   0.596135 0.406512 0.879192 -0.156103
C165  C     C_R   0.932553 0.942347 0.118168 -0.191216
C166  C     C_R   0.068765 0.945831 0.883470 -0.190462
C167  C     C_R   0.431237 0.445822 0.116535 -0.190469
C168  C     C_R   0.567460 0.442383 0.881854 -0.191201
C169  C     C_R   0.499943 0.881797 0.499923 0.774990
C170  C     C_R   0.000057 0.381797 0.500077 0.775023
C171  C     C_3   0.225389 0.931653 0.219958 -0.382344
C172  C     C_3   0.774130 0.963092 0.719769 -0.371112
C173  C     C_3   0.725869 0.463104 0.280236 -0.371110
C174  C     C_3   0.225713 0.033464 0.166564 -0.377195
C175  C     C_3   0.274617 0.431706 0.781242 -0.382252
C176  C     C_R   0.420156 0.999861 0.419850 0.791242
C177  C     C_R   0.579861 0.000049 0.580118 0.788256
C178  C     C_R   0.920139 0.500049 0.419882 0.788273
C179  C     C_R   0.079844 0.499860 0.580151 0.791293
C180  C     C_R   0.500013 0.118254 0.500013 0.778387
C181  C     C_R   0.999986 0.618255 0.499985 0.778409
C182  C     C_R   0.999999 0.880462 0.499996 0.846423
C183  C     C_R   0.500001 0.380462 0.500003 0.846445
C184  C     C_R   0.999884 0.002255 0.380534 0.831955
Cu1   Cu    Cu3+1 1.000000 0.938180 0.000000 0.989224
Cu2   Cu    Cu3+1 0.041320 0.000030 0.541300 1.020662
Cu3   Cu    Cu3+1 0.458680 0.500030 0.458700 1.020525
Cu4   Cu    Cu3+1 0.541320 0.500030 0.541300 1.018413
Cu5   Cu    Cu3+1 0.500000 0.438180 0.000000 0.989282
Cu6   Cu    Cu3+1 0.000000 0.061820 0.000000 1.002530
Cu7   Cu    Cu3+1 0.500000 0.561820 0.000000 1.002562
Cu8   Cu    Cu3+1 0.500000 0.000200 0.561810 0.995183
Cu9   Cu    Cu3+1 0.500000 0.000200 0.438190 1.000208
Cu10  Cu    Cu3+1 0.000000 0.500200 0.561810 1.000204
Cu11  Cu    Cu3+1 0.000000 0.500200 0.438190 0.994990
Cu12  Cu    Cu3+1 0.958680 0.000030 0.458700 1.018412
H1    H     H_    0.212843 0.908148 0.166003 0.157437
H2    H     H_    0.714474 0.995111 0.815156 0.185907
H3    H     H_    0.785529 0.495085 0.184849 0.185901
H4    H     H_    0.214272 0.582869 0.769431 0.186269
H5    H     H_    0.121193 0.117981 0.416572 0.189764
H6    H     H_    0.875331 0.109717 0.580041 0.186075
H7    H     H_    0.624671 0.609720 0.419955 0.186077
H8    H     H_    0.378784 0.617897 0.583364 0.189744
H9    H     H_    0.945268 0.913283 0.303703 0.179496
H10   H     H_    0.056538 0.915060 0.698690 0.180262
H11   H     H_    0.443465 0.415056 0.301317 0.180264
H12   H     H_    0.785859 0.915154 0.733429 0.159361
H13   H     H_    0.554759 0.413305 0.696334 0.179508
H14   H     H_    0.213829 0.905904 0.248684 0.202954
H15   H     H_    0.786067 0.983369 0.688739 0.222234
H16   H     H_    0.713929 0.483385 0.311259 0.222234
H17   H     H_    0.286129 0.405314 0.752854 0.202970
H18   H     H_    0.617551 0.808132 0.741332 0.138743
H19   H     H_    0.382793 0.807687 0.258094 0.141998
H20   H     H_    0.117244 0.307694 0.741869 0.142248
H21   H     H_    0.882433 0.308132 0.258688 0.138740
H22   H     H_    0.890673 0.197041 0.250418 0.142214
H23   H     H_    0.714141 0.415165 0.266584 0.159362
H24   H     H_    0.108435 0.196771 0.750205 0.143670
H25   H     H_    0.391605 0.696763 0.249774 0.143603
H26   H     H_    0.609311 0.697039 0.749595 0.142216
H27   H     H_    0.360326 0.191802 0.407717 0.148076
H28   H     H_    0.639697 0.191828 0.592266 0.153236
H29   H     H_    0.860302 0.691822 0.407729 0.153238
H30   H     H_    0.139676 0.691810 0.592300 0.148099
H31   H     H_    0.579069 0.137187 0.570776 0.125930
H32   H     H_    0.420966 0.137168 0.429260 0.123667
H33   H     H_    0.079033 0.637172 0.570746 0.123655
H34   H     H_    0.287215 0.408874 0.835590 0.157399
H35   H     H_    0.920929 0.637185 0.429218 0.125931
H36   H     H_    0.130960 0.795144 0.540770 0.165571
H37   H     H_    0.869055 0.795146 0.459332 0.167037
H38   H     H_    0.630944 0.295153 0.540664 0.167036
H39   H     H_    0.369043 0.295136 0.459247 0.165533
H40   H     H_    0.215264 0.077193 0.273207 0.201313
H41   H     H_    0.786356 0.093457 0.822790 0.171608
H42   H     H_    0.713643 0.593455 0.177193 0.171607
H43   H     H_    0.284628 0.576223 0.725584 0.201813
H44   H     H_    0.214832 0.004528 0.311507 0.204145
H45   H     H_    0.284105 0.910485 0.233178 0.132772
H46   H     H_    0.785307 0.088425 0.740030 0.209955
H47   H     H_    0.714697 0.588433 0.259959 0.209959
H48   H     H_    0.285270 0.503013 0.688540 0.203607
H49   H     H_    0.286586 0.076358 0.345526 0.168694
H50   H     H_    0.714734 0.092588 0.752836 0.169844
H51   H     H_    0.785266 0.592578 0.247134 0.169851
H52   H     H_    0.213331 0.575081 0.652855 0.168943
H53   H     H_    0.214136 0.011661 0.112088 0.173200
H54   H     H_    0.786159 0.921980 0.850399 0.173787
H55   H     H_    0.713837 0.421975 0.149609 0.173789
H56   H     H_    0.714646 0.914443 0.663930 0.135717
H57   H     H_    0.285795 0.513288 0.887665 0.173244
H58   H     H_    0.213980 0.081425 0.155136 0.184009
H59   H     H_    0.786260 0.995339 0.887271 0.178066
H60   H     H_    0.713743 0.495330 0.112733 0.178068
H61   H     H_    0.286049 0.582343 0.843594 0.184154
H62   H     H_    0.285968 0.013196 0.184367 0.174291
H63   H     H_    0.714351 0.921922 0.778061 0.168984
H64   H     H_    0.785646 0.421907 0.221960 0.168984
H65   H     H_    0.213963 0.515131 0.815304 0.174384
H66   H     H_    0.878341 0.884862 0.070695 0.158128
H67   H     H_    0.785354 0.414461 0.336096 0.135715
H68   H     H_    0.124238 0.890971 0.932456 0.158520
H69   H     H_    0.375766 0.390955 0.067553 0.158565
H70   H     H_    0.621685 0.384926 0.929349 0.158124
H71   H     H_    0.074830 0.030166 0.211160 0.151333
H72   H     H_    0.924026 0.023444 0.787320 0.148064
H73   H     H_    0.575973 0.523448 0.212676 0.148066
H74   H     H_    0.425153 0.530113 0.788802 0.151300
H75   H     H_    0.927946 0.947299 0.064790 0.145928
H76   H     H_    0.073143 0.951034 0.936640 0.143877
H77   H     H_    0.426859 0.451023 0.063364 0.143886
H78   H     H_    0.215959 0.411451 0.768645 0.132906
H79   H     H_    0.572063 0.447339 0.935229 0.145913
H80   H     H_    0.430616 0.862985 0.372401 0.142199
H81   H     H_    0.569351 0.863300 0.627202 0.139550
H82   H     H_    0.930642 0.363300 0.372814 0.139539
H83   H     H_    0.069398 0.362991 0.627571 0.142287
H84   H     H_    0.945369 0.140779 0.356773 0.158563
H85   H     H_    0.053547 0.140692 0.643537 0.156767
H86   H     H_    0.446475 0.640686 0.356465 0.156744
H87   H     H_    0.554624 0.640775 0.643229 0.158561
H88   H     H_    0.286449 0.004204 0.383866 0.208093
H89   H     H_    0.285758 0.081844 0.228979 0.186322
H90   H     H_    0.713584 0.090209 0.670098 0.198912
H91   H     H_    0.786420 0.590224 0.329877 0.198907
H92   H     H_    0.213639 0.502145 0.616183 0.208144
I1    I     I_    0.298924 0.870560 0.361683 -0.363428
I2    I     I_    0.950440 0.140188 0.583403 -0.378401
I3    I     I_    0.549569 0.640183 0.416609 -0.378351
I4    I     I_    0.454151 0.642764 0.587257 -0.366959
I5    I     I_    0.868382 0.836955 0.194246 -0.367847
I6    I     I_    0.135201 0.842869 0.810199 -0.364218
I7    I     I_    0.364805 0.342854 0.189815 -0.364169
I8    I     I_    0.631661 0.337020 0.805820 -0.367838
I9    I     I_    0.055595 0.866044 0.422964 -0.352313
I10   I     I_    0.944481 0.865997 0.577160 -0.348502
I11   I     I_    0.555517 0.366001 0.422835 -0.348491
I12   I     I_    0.701363 0.994062 0.559529 -0.329724
I13   I     I_    0.444411 0.366039 0.577046 -0.352390
I14   I     I_    0.798630 0.494110 0.440465 -0.329746
I15   I     I_    0.201013 0.369249 0.640873 -0.364498
I16   I     I_    0.156469 0.098850 0.323242 -0.402436
I17   I     I_    0.838997 0.082372 0.671242 -0.381202
I18   I     I_    0.661001 0.582383 0.328747 -0.381180
I19   I     I_    0.343474 0.598681 0.676617 -0.402564
I20   I     I_    0.045845 0.142769 0.412748 -0.366891
O1    O     O_R   0.000000 0.947790 0.090180 -0.577376
O2    O     O_R   0.965110 0.000000 0.555270 -0.540357
O3    O     O_R   0.534890 0.500000 0.444730 -0.540350
O4    O     O_R   0.465110 0.500000 0.555270 -0.540732
O5    O     O_R   0.965120 0.090230 0.465150 -0.576637
O6    O     O_R   0.034880 0.090230 0.534850 -0.574259
O7    O     O_R   0.465120 0.590230 0.465150 -0.574303
O8    O     O_R   0.534880 0.590230 0.534850 -0.576622
O9    O     O_R   0.000000 0.052210 0.090190 -0.574400
O10   O     O_R   0.000000 0.052210 0.909810 -0.574225
O11   O     O_R   0.500000 0.552210 0.090190 -0.574229
O12   O     O_R   0.000000 0.947790 0.909820 -0.577035
O13   O     O_R   0.500000 0.552210 0.909810 -0.574380
O14   O     O_R   0.060280 0.947790 0.060280 -0.580300
O15   O     O_R   0.939720 0.947790 0.939720 -0.581840
O16   O     O_R   0.560280 0.447790 0.060280 -0.581831
O17   O     O_R   0.439720 0.447790 0.939720 -0.580280
O18   O     O_R   0.060280 0.052210 0.060300 -0.569386
O19   O     O_R   0.939720 0.052210 0.939700 -0.569788
O20   O     O_R   0.560280 0.552210 0.060300 -0.569786
O21   O     O_R   0.439720 0.552210 0.939700 -0.569383
O22   O     O_R   0.500000 0.910000 0.552220 -0.575867
O23   O     O_R   0.500000 0.447790 0.090180 -0.577029
O24   O     O_R   0.500000 0.910000 0.447780 -0.580008
O25   O     O_R   0.000000 0.410000 0.552220 -0.580025
O26   O     O_R   0.000000 0.410000 0.447780 -0.575886
O27   O     O_R   0.439720 0.000200 0.491920 -0.564232
O28   O     O_R   0.560280 0.000200 0.508080 -0.557994
O29   O     O_R   0.939720 0.500200 0.491920 -0.557997
O30   O     O_R   0.060280 0.500200 0.508080 -0.564426
O31   O     O_R   0.439720 0.000170 0.387540 -0.588178
O32   O     O_R   0.560280 0.000170 0.612460 -0.589349
O33   O     O_R   0.939720 0.500170 0.387540 -0.589343
O34   O     O_R   0.500000 0.447790 0.909820 -0.577369
O35   O     O_R   0.060280 0.500170 0.612460 -0.588110
O36   O     O_R   0.500000 0.090400 0.552190 -0.575566
O37   O     O_R   0.500000 0.090400 0.447810 -0.573619
O38   O     O_R   0.000000 0.590400 0.552190 -0.573621
O39   O     O_R   1.000000 0.590400 0.447810 -0.575577
O40   O     O_R   0.965090 0.909820 0.465090 -0.568699
O41   O     O_R   0.034910 0.909820 0.534910 -0.568640
O42   O     O_R   0.465090 0.409820 0.465090 -0.568647
O43   O     O_R   0.534910 0.409820 0.534910 -0.568699
O44   O     O_R   0.965110 0.000030 0.374950 -0.605698
O45   O     O_R   0.034890 0.000030 0.625050 -0.606170
O46   O     O_R   0.465110 0.500030 0.374950 -0.606186
O47   O     O_R   0.534890 0.500030 0.625050 -0.605704
O48   O     O_R   0.034890 0.000000 0.444730 -0.540705

loop_
_geom_bond_atom_site_label_1
_geom_bond_atom_site_label_2
_ccdc_geom_bond_type
C21   C26   A    
C63   C65   A    
C53   H37   S    
C117  I2    S    
C107  C112  A    
C3    O45   A    
C73   C93   S    
C105  C110  A    
C167  H77   S    
C75   C95   S    
Cu1   Cu6   S    
Cu6   O10   S    
C130  C174  S    
C135  C139  A    
C124  C133  A    
C79   C99   T    
C81   C178  S    
C154  C158  A    
C138  C143  A    
C85   C96   S    
C87   H45   S    
C28   C40   A    
C94   C152  S    
Cu4   O43   S    
C62   C70   A    
Cu11  O30   S    
C37   C42   A    
C142  C146  A    
C1    O1    A    
C42   C170  S    
C168  H79   S    
C58   I10   S    
C146  C150  A    
C106  C133  A    
C83   C171  S    
C75   H92   S    
C77   C181  S    
C72   H88   S    
C103  H71   S    
C136  C140  A    
C88   H56   S    
Cu9   O37   S    
C25   C29   A    
C68   C95   S    
C116  C121  A    
C71   C183  S    
C124  C137  A    
C164  C168  A    
C30   H44   S    
Cu8   O32   S    
C169  O22   A    
C98   C102  T    
C41   C169  S    
C17   C21   A    
C64   C66   A    
C157  I6    S    
C181  O39   A    
C19   C23   A    
C95   C163  S    
C5    O4    A    
C87   C171  S    
C163  H65   S    
C8    H80   S    
C63   C71   A    
Cu12  O5    S    
C128  O21   A    
C118  I3    S    
C50   H30   S    
C173  H16   S    
C180  O36   A    
Cu2   O48   S    
C23   H86   S    
C162  H69   S    
C5    O47   A    
C134  C184  S    
C140  C145  A    
C53   C58   A    
C5    C137  S    
C138  C151  A    
C35   C78   T    
C59   C63   A    
C60   C64   A    
C127  O20   A    
Cu4   O3    S    
C80   C177  S    
C6    O5    A    
C45   C50   A    
Cu3   O4    S    
Cu8   O27   S    
C129  C147  A    
C20   C25   A    
C13   C85   S    
Cu10  O25   S    
C92   C130  S    
C103  C107  A    
C75   H52   S    
C137  C142  A    
C123  C132  A    
Cu2   O6    S    
C31   H46   S    
C69   C77   A    
C67   C77   A    
C177  O28   A    
C18   H24   S    
C169  O24   A    
C111  I19   S    
Cu12  O2    S    
C156  I5    S    
C100  C126  S    
Cu2   Cu12  S    
Cu12  O40   S    
C158  I7    S    
C102  C128  S    
C4    O3    A    
C32   C74   S    
C109  I17   S    
C7    O8    A    
C89   C94   S    
Cu5   Cu7   S    
C47   C69   A    
C73   H90   S    
C33   C75   S    
C178  O29   A    
C104  C131  A    
C126  O19   A    
C9    C36   A    
C89   H67   S    
C25   H87   S    
C110  C114  A    
C154  H11   S    
Cu1   O14   S    
C91   I15   S    
C160  H66   S    
C84   C90   S    
C177  O32   A    
C130  H62   S    
C174  H58   S    
C106  C111  A    
C13   H55   S    
C155  C159  A    
C156  C160  A    
C96   C101  T    
C30   C83   S    
C182  O41   A    
C48   H28   S    
C49   C55   A    
C164  H70   S    
C31   C84   S    
C1    O9    A    
C51   C53   A    
C117  C122  A    
C4    O46   A    
C61   C67   A    
C50   C52   A    
C8    C12   A    
C6    C39   S    
C8    C34   A    
C23   C28   A    
C151  H9    S    
Cu11  O26   S    
C183  O42   A    
C113  C117  A    
C57   C94   S    
C3    O2    A    
C1    C147  S    
C15   H21   S    
C54   H38   S    
C122  C131  A    
C112  C116  A    
Cu7   O21   S    
C18   C22   A    
C91   H78   S    
C133  C150  A    
C84   C172  S    
C30   C72   S    
C174  H53   S    
C56   I9    S    
C68   C82   T    
C46   C80   T    
C74   H91   S    
C29   C40   A    
C101  C127  S    
C91   C95   S    
C83   C174  S    
C159  C164  A    
C30   H40   S    
C87   C92   S    
C24   C86   S    
Cu5   O23   S    
C17   H22   S    
C61   C70   A    
C58   C62   A    
C108  O11   A    
C74   C94   S    
C2    C84   S    
C176  O31   A    
C89   C173  S    
C172  H15   S    
C55   H39   S    
C2    H59   S    
C34   C41   A    
C65   C76   A    
C72   C92   S    
C26   C39   A    
Cu5   O34   S    
C139  C153  A    
C27   C38   A    
Cu7   O20   S    
C14   H18   S    
C170  O25   A    
C86   C175  S    
C64   C71   A    
C181  O38   A    
C16   H20   S    
Cu3   O46   S    
C143  C165  A    
C70   C182  S    
C119  O13   A    
C82   C179  S    
C45   C67   A    
Cu3   O7    S    
C88   I12   S    
C121  C134  A    
Cu6   O9    S    
C54   C59   A    
C4    C136  S    
Cu4   O47   S    
C35   C92   S    
C119  C150  S    
Cu10  Cu11  S    
C28   C34   A    
Cu10  O38   S    
C175  H34   S    
C55   C60   A    
C49   H27   S    
C132  C149  A    
C9    H81   S    
C36   C41   A    
Cu12  O44   S    
Cu9   O24   S    
C112  H5    S    
C176  O27   A    
C11   H83   S    
Cu2   O41   S    
C105  C132  A    
C116  I20   S    
C105  H73   S    
C110  I18   S    
C14   C20   A    
C159  I8    S    
C171  H14   S    
C47   C51   A    
C73   H50   S    
C178  O33   A    
C13   H60   S    
C126  O15   A    
C62   C69   A    
C144  C166  A    
C72   H49   S    
C11   C38   A    
C143  C147  A    
C9    C14   A    
Cu3   O42   S    
C11   C16   A    
C6    O6    A    
Cu5   O16   S    
C155  H13   S    
C43   C65   A    
C115  H8    S    
Cu1   O1    S    
C141  H63   S    
C151  C156  A    
C103  C129  A    
C59   I11   S    
C125  O14   A    
C24   C163  S    
C141  H2    S    
C120  I4    S    
C157  C161  A    
C93   C141  S    
C119  O34   A    
C183  O43   A    
C145  C167  A    
C15   C17   A    
C146  C168  A    
C165  H75   S    
C166  H76   S    
C13   C152  S    
C121  C129  A    
C76   C180  S    
Cu6   O19   S    
C26   C37   A    
Cu11  O39   S    
Cu3   Cu4   S    
Cu4   O8    S    
C79   C83   S    
C32   H42   S    
Cu7   O11   S    
C32   C85   S    
C24   H61   S    
C12   C19   A    
C7    O7    A    
C97   O10   A    
C87   I1    S    
C3    C135  S    
C118  C123  A    
C153  C157  A    
C24   H57   S    
C86   C98   S    
C122  C135  A    
C107  I16   S    
C152  H3    S    
Cu5   O17   S    
C184  O44   A    
C56   C61   A    
C12   H19   S    
C145  C149  A    
C44   C49   A    
C88   C172  S    
C44   C66   A    
C19   H25   S    
C144  C148  A    
C99   C125  S    
Cu10  O29   S    
C48   C54   A    
C60   I13   S    
C29   C36   A    
C10   C37   A    
C175  H17   S    
C38   C42   A    
C10   C15   A    
C2    H54   S    
C104  C109  A    
C31   C73   S    
C47   H35   S    
C162  C167  A    
Cu8   O22   S    
Cu8   O36   S    
C27   C39   A    
C51   H29   S    
C85   C173  S    
C7    C40   S    
C128  O17   A    
C142  C155  A    
C43   C48   A    
C161  C166  A    
C109  C113  A    
C31   H41   S    
C66   C76   A    
C78   C176  S    
C45   H33   S    
C130  H89   S    
C90   C100  T    
C43   H31   S    
Cu9   O31   S    
C172  H12   S    
Cu6   O18   S    
C113  H6    S    
C21   H84   S    
C158  C162  A    
C52   H36   S    
C161  H68   S    
C160  C165  A    
C97   O12   A    
C153  H10   S    
C33   C86   S    
C33   H43   S    
C44   H32   S    
C139  C144  A    
C152  H64   S    
Cu7   O13   S    
C91   C175  S    
C131  C148  A    
Cu9   O28   S    
C127  O16   A    
C10   H82   S    
C180  O37   A    
C114  C118  A    
Cu2   O45   S    
C89   I14   S    
Cu1   O15   S    
C163  H4    S    
C106  H74   S    
C32   H47   S    
C97   C148  S    
C57   C81   T    
C179  O35   A    
Cu10  O35   S    
C88   C93   S    
C104  H72   S    
C22   H85   S    
C134  C138  A    
C182  O40   A    
C123  C136  A    
C22   C27   A    
Cu8   Cu9   S    
C171  H1    S    
C74   H51   S    
C179  O30   A    
C46   C93   S    
C125  O18   A    
C170  O26   A    
C108  O23   A    
C173  H23   S    
Cu11  O33   S    
C184  O48   A    
C108  C149  S    
C52   C56   A    
Cu1   O12   S    
C16   C18   A    
C115  C120  A    
C2    C141  S    
C20   H26   S    
C114  H7    S    
C33   H48   S    
C111  C115  A    
C120  C124  A    
C140  C154  A    
