data_mof_unit_65249.cif
_audit_creation_date              2012-12-10T17:43:42-0500
_audit_creation_method            fapswitch 2.2
_symmetry_space_group_name_H-M    P1
_symmetry_Int_Tables_number       1
_space_group_crystal_system       triclinic
_cell_length_a                    44.154327
_cell_length_b                    30.395062
_cell_length_c                    30.379191
_cell_angle_alpha                 90.0
_cell_angle_beta                  133.525319
_cell_angle_gamma                 90.000049
_cell_volume                      29561.911585

loop_
_atom_site_label
_atom_site_type_symbol
_atom_type_description
_atom_site_fract_x
_atom_site_fract_y
_atom_site_fract_z
_atom_type_partial_charge
C1    C     C_R   0.499997 0.999996 0.585120 0.782992
C2    C     C_R   0.500003 0.999996 0.414880 0.782993
C3    C     C_R   0.999997 0.499996 0.585120 0.782991
C4    C     C_R   0.000003 0.499996 0.414880 0.782992
C5    C     C_3   0.225701 0.001088 0.178000 -0.372696
C6    C     C_3   0.774300 0.999683 0.822011 -0.372681
C7    C     C_3   0.725700 0.499340 0.177993 -0.372676
C8    C     C_3   0.274301 0.497246 0.821930 -0.372659
C9    C     C_3   0.274210 0.001064 0.226500 -0.375194
C10   C     C_3   0.725791 0.999659 0.773511 -0.375180
C11   C     C_3   0.774209 0.499316 0.226493 -0.375175
C12   C     C_3   0.225792 0.497222 0.773430 -0.375140
C13   C     C_1   0.162607 0.000091 0.162684 -0.112136
C14   C     C_1   0.837393 0.000091 0.837316 -0.112136
C15   C     C_1   0.662607 0.500090 0.162684 -0.112137
C16   C     C_1   0.337393 0.500090 0.837316 -0.112137
C17   C     C_1   0.337399 0.000005 0.337445 -0.112408
C18   C     C_1   0.662601 0.000005 0.662555 -0.112409
C19   C     C_1   0.837399 0.500005 0.337445 -0.112409
C20   C     C_1   0.162601 0.500005 0.662555 -0.112411
C21   C     C_1   0.375112 0.999996 0.375146 -0.173056
C22   C     C_1   0.624888 0.999996 0.624854 -0.173055
C23   C     C_1   0.875112 0.499995 0.375146 -0.173056
C24   C     C_1   0.124888 0.499996 0.624854 -0.173055
C25   C     C_R   0.512896 0.037552 0.715486 -0.168483
C26   C     C_R   0.487103 0.037551 0.284513 -0.168483
C27   C     C_R   0.012896 0.537551 0.715487 -0.168486
C28   C     C_R   0.987102 0.537551 0.284512 -0.168484
C29   C     C_R   0.512612 0.037645 0.669334 -0.185736
C30   C     C_R   0.487388 0.037644 0.330665 -0.185734
C31   C     C_R   0.012612 0.537644 0.669335 -0.185738
C32   C     C_R   0.987387 0.537644 0.330664 -0.185737
C33   C     C_R   0.499992 0.000006 0.633448 -0.026462
C34   C     C_R   0.500007 0.000006 0.366552 -0.026463
C35   C     C_R   0.999992 0.500006 0.633448 -0.026462
C36   C     C_R   0.000007 0.500006 0.366552 -0.026461
C37   C     C_R   0.487345 0.962406 0.644085 -0.185164
C38   C     C_R   0.512655 0.962406 0.355915 -0.185164
C39   C     C_R   0.987345 0.462406 0.644085 -0.185162
C40   C     C_R   0.012656 0.462407 0.355916 -0.185164
C41   C     C_R   0.486995 0.962584 0.689606 -0.171896
C42   C     C_R   0.513006 0.962584 0.310394 -0.171897
C43   C     C_R   0.986994 0.462584 0.689606 -0.171896
C44   C     C_R   0.013007 0.462585 0.310395 -0.171894
C45   C     C_R   0.420004 0.999998 0.420022 0.830043
C46   C     C_R   0.579996 0.999998 0.579978 0.830044
C47   C     C_R   0.920004 0.499998 0.420022 0.830043
C48   C     C_R   0.079996 0.499998 0.579978 0.830044
C49   C     C_R   0.499928 0.000091 0.725703 0.101253
C50   C     C_R   0.500072 0.000091 0.274297 0.101253
C51   C     C_R   0.999928 0.500091 0.725703 0.101255
C52   C     C_R   0.000072 0.500091 0.274297 0.101253
C53   C     C_R   0.464156 0.987016 0.761428 -0.166854
C54   C     C_R   0.535844 0.987016 0.238572 -0.166853
C55   C     C_R   0.964156 0.487016 0.761428 -0.166854
C56   C     C_R   0.035844 0.487017 0.238572 -0.166854
C57   C     C_R   0.464043 0.987348 0.807184 -0.176833
C58   C     C_R   0.535957 0.987349 0.192816 -0.176834
C59   C     C_R   0.964043 0.487348 0.807184 -0.176835
C60   C     C_R   0.035957 0.487349 0.192816 -0.176833
C61   C     C_R   0.499940 0.000118 0.866374 -0.029123
C62   C     C_R   0.500060 0.000118 0.133626 -0.029123
C63   C     C_R   0.999940 0.500118 0.866374 -0.029123
C64   C     C_R   0.000060 0.500118 0.133626 -0.029125
C65   C     C_R   0.535809 0.012945 0.879002 -0.181485
C66   C     C_R   0.464191 0.012944 0.120997 -0.181485
C67   C     C_R   0.035809 0.512945 0.879003 -0.181488
C68   C     C_R   0.964191 0.512944 0.120997 -0.181488
C69   C     C_R   0.535675 0.013284 0.833001 -0.168168
C70   C     C_R   0.464325 0.013284 0.166999 -0.168169
C71   C     C_R   0.035675 0.513284 0.833001 -0.168169
C72   C     C_R   0.964324 0.513283 0.166999 -0.168168
C73   C     C_R   0.499917 0.000134 0.774041 0.100880
C74   C     C_R   0.500083 0.000134 0.225959 0.100880
C75   C     C_R   0.999917 0.500134 0.774041 0.100880
C76   C     C_R   0.000083 0.500134 0.225959 0.100880
C77   C     C_R   0.000000 0.914990 0.000000 0.787777
C78   C     C_R   0.500000 0.414990 0.000000 0.787775
C79   C     C_R   0.080002 0.000124 0.080034 0.831155
C80   C     C_R   0.919998 0.000124 0.919966 0.831155
C81   C     C_R   0.580002 0.500124 0.080034 0.831154
C82   C     C_R   0.419998 0.500124 0.919966 0.831155
C83   C     C_R   1.000000 0.085262 1.000000 0.782855
C84   C     C_R   0.500000 0.585262 1.000000 0.782855
C85   C     C_3   0.274263 0.958171 0.297316 -0.372994
C86   C     C_3   0.725735 0.958865 0.701460 -0.373075
C87   C     C_3   0.774265 0.459040 0.298836 -0.373095
C88   C     C_3   0.225733 0.460154 0.699386 -0.373221
C89   C     C_R   0.500000 0.085078 0.000000 0.771310
C90   C     C_R   0.000000 0.585078 0.000000 0.771309
C91   C     C_R   0.499982 0.000035 0.914733 0.782049
C92   C     C_R   0.500018 0.000035 0.085267 0.782049
C93   C     C_R   0.999982 0.500035 0.914733 0.782049
C94   C     C_R   0.000018 0.500035 0.085267 0.782049
C95   C     C_R   0.500000 0.914710 1.000000 0.792257
C96   C     C_R   1.000000 0.414710 1.000000 0.792257
C97   C     C_R   0.004408 0.797512 0.964790 -0.164556
C98   C     C_R   0.995592 0.797512 0.035211 -0.164557
C99   C     C_R   0.504417 0.297512 0.964800 -0.164556
C100  C     C_R   0.495583 0.297512 0.035200 -0.164556
C101  C     C_R   0.004326 0.843330 0.964689 -0.190493
C102  C     C_R   0.995674 0.843330 0.035311 -0.190492
C103  C     C_R   0.504335 0.343330 0.964699 -0.190494
C104  C     C_R   0.495665 0.343330 0.035301 -0.190490
C105  C     C_R   0.000000 0.866633 0.000000 -0.030933
C106  C     C_R   0.500000 0.366633 0.000000 -0.030933
C107  C     C_R   0.000000 0.774226 0.000000 0.151805
C108  C     C_R   0.500000 0.274225 0.000000 0.151801
C109  C     C_R   0.522104 0.202562 0.054408 -0.161048
C110  C     C_R   0.477896 0.202562 0.945592 -0.161048
C111  C     C_R   0.022109 0.702562 0.054409 -0.161049
C112  C     C_R   0.977891 0.702562 0.945591 -0.161050
C113  C     C_R   0.521765 0.156737 0.055102 0.374824
C114  C     C_R   0.478235 0.156737 0.944898 0.374823
C115  C     C_R   0.021770 0.656737 0.055103 0.374821
C116  C     C_R   0.978230 0.656738 0.944897 0.374823
C117  C     C_R   0.500000 0.133250 0.000000 -0.238494
C118  C     C_R   0.000000 0.633250 0.000000 -0.238500
C119  C     C_3   0.274301 0.040868 0.299139 -0.372583
C120  C     C_3   0.725700 0.041579 0.702075 -0.372525
C121  C     C_3   0.774300 0.541747 0.297626 -0.372513
C122  C     C_3   0.225701 0.542727 0.704229 -0.372431
C123  C     C_R   0.500000 0.225730 0.000000 -0.083690
C124  C     C_R   0.000000 0.725731 0.000000 -0.083688
C125  C     C_R   0.012956 0.202673 0.975467 -0.171612
C126  C     C_R   0.987043 0.202673 0.024533 -0.171613
C127  C     C_R   0.512957 0.702673 0.975468 -0.171611
C128  C     C_R   0.487043 0.702673 0.024532 -0.171611
C129  C     C_R   0.012639 0.156829 0.975013 -0.185905
C130  C     C_R   0.987361 0.156829 0.024986 -0.185904
C131  C     C_R   0.512639 0.656829 0.975014 -0.185906
C132  C     C_R   0.487361 0.656829 0.024986 -0.185905
C133  C     C_R   1.000000 0.133567 1.000000 -0.025979
C134  C     C_R   0.500000 0.633567 1.000000 -0.025977
C135  C     C_R   1.000000 0.225834 1.000000 0.101507
C136  C     C_R   0.500000 0.725834 1.000000 0.101508
C137  C     C_R   0.464233 0.797316 0.977318 -0.170220
C138  C     C_R   0.535767 0.797316 0.022682 -0.170220
C139  C     C_R   0.964233 0.297316 0.977318 -0.170219
C140  C     C_R   0.035767 0.297316 0.022681 -0.170220
C141  C     C_R   0.464109 0.843160 0.976859 -0.185287
C142  C     C_R   0.535891 0.843160 0.023141 -0.185287
C143  C     C_R   0.964109 0.343160 0.976859 -0.185287
C144  C     C_R   0.035890 0.343160 0.023141 -0.185286
C145  C     C_R   0.500000 0.866416 1.000000 -0.030314
C146  C     C_R   1.000000 0.366416 1.000000 -0.030313
C147  C     C_R   0.500000 0.774155 1.000000 0.101588
C148  C     C_R   1.000000 0.274155 1.000000 0.101588
C149  C     C_3   0.225792 0.040893 0.250638 -0.374239
C150  C     C_3   0.774209 0.041604 0.750576 -0.374334
C151  C     C_3   0.725791 0.541772 0.249125 -0.374355
C152  C     C_3   0.274211 0.542752 0.752730 -0.374488
C153  C     C_1   0.124894 0.000107 0.124960 -0.172827
C154  C     C_1   0.875106 0.000107 0.875040 -0.172827
C155  C     C_1   0.624894 0.500107 0.124960 -0.172827
C156  C     C_1   0.375106 0.500107 0.875040 -0.172827
C157  C     C_3   0.291293 0.000025 0.291350 0.321246
C158  C     C_3   0.708707 0.000026 0.708650 0.321255
C159  C     C_3   0.791293 0.500026 0.291350 0.321257
C160  C     C_3   0.208707 0.500026 0.708650 0.321269
C161  C     C_3   0.225753 0.958195 0.248815 -0.373201
C162  C     C_3   0.774246 0.958890 0.749961 -0.373140
C163  C     C_3   0.725755 0.459064 0.250335 -0.373124
C164  C     C_3   0.274243 0.460178 0.747887 -0.373030
C165  C     C_3   0.208713 0.000067 0.208786 0.320928
C166  C     C_3   0.791287 0.000068 0.791214 0.320938
C167  C     C_3   0.708713 0.500067 0.208786 0.320940
C168  C     C_3   0.291287 0.500067 0.791214 0.320957
Cu1   Cu    Cu3+1 0.500000 0.955930 0.500000 0.943412
Cu2   Cu    Cu3+1 0.000000 0.455930 0.500000 0.943415
Cu3   Cu    Cu3+1 0.500000 0.044060 0.500000 0.944040
Cu4   Cu    Cu3+1 0.000000 0.544060 0.500000 0.944038
Cu5   Cu    Cu3+1 0.000000 0.000140 0.044060 0.943365
Cu6   Cu    Cu3+1 0.000000 0.000140 0.955940 0.943364
Cu7   Cu    Cu3+1 0.500000 0.500140 0.044060 0.943365
Cu8   Cu    Cu3+1 0.500000 0.500140 0.955940 0.943365
Cu9   Cu    Cu3+1 0.458680 0.999980 0.958690 0.953965
Cu10  Cu    Cu3+1 0.541320 0.999980 0.041310 0.953965
Cu11  Cu    Cu3+1 0.958680 0.499980 0.958690 0.953967
Cu12  Cu    Cu3+1 0.041320 0.499980 0.041310 0.953967
H1    H     H_    0.214191 0.956680 0.271762 0.163902
H2    H     H_    0.785806 0.958390 0.726984 0.163915
H3    H     H_    0.714194 0.458813 0.273315 0.163918
H4    H     H_    0.285803 0.461442 0.724928 0.163936
H5    H     H_    0.285828 0.928252 0.291637 0.163961
H6    H     H_    0.714170 0.928453 0.706250 0.163969
H7    H     H_    0.785830 0.428511 0.294265 0.163970
H8    H     H_    0.214166 0.428947 0.702601 0.163972
H9    H     H_    0.214126 0.928288 0.219948 0.163127
H10   H     H_    0.785872 0.928489 0.777938 0.163132
H11   H     H_    0.714129 0.428547 0.222576 0.163134
H12   H     H_    0.285868 0.428983 0.774289 0.163143
H13   H     H_    0.214101 0.030974 0.149104 0.162180
H14   H     H_    0.785901 0.029048 0.851779 0.162226
H15   H     H_    0.714099 0.528573 0.148014 0.162237
H16   H     H_    0.285904 0.525645 0.853177 0.162305
H17   H     H_    0.522750 0.066869 0.742765 0.132082
H18   H     H_    0.477249 0.066869 0.257234 0.132082
H19   H     H_    0.022751 0.566869 0.742766 0.132080
H20   H     H_    0.977247 0.566868 0.257232 0.132080
H21   H     H_    0.522639 0.066989 0.662127 0.149910
H22   H     H_    0.477360 0.066989 0.337872 0.149910
H23   H     H_    0.022639 0.566989 0.662128 0.149909
H24   H     H_    0.977359 0.566988 0.337870 0.149909
H25   H     H_    0.477338 0.933036 0.616855 0.149564
H26   H     H_    0.522662 0.933037 0.383146 0.149564
H27   H     H_    0.977338 0.433037 0.616854 0.149564
H28   H     H_    0.022664 0.433038 0.383148 0.149565
H29   H     H_    0.477120 0.933298 0.697176 0.129654
H30   H     H_    0.522881 0.933298 0.302825 0.129654
H31   H     H_    0.977119 0.433298 0.697176 0.129655
H32   H     H_    0.022883 0.433299 0.302827 0.129655
H33   H     H_    0.436203 0.977023 0.716019 0.130052
H34   H     H_    0.563798 0.977024 0.283982 0.130052
H35   H     H_    0.936202 0.477024 0.716018 0.130052
H36   H     H_    0.063798 0.477025 0.283982 0.130052
H37   H     H_    0.436044 0.977205 0.796404 0.150724
H38   H     H_    0.563956 0.977205 0.203596 0.150724
H39   H     H_    0.936044 0.477205 0.796404 0.150725
H40   H     H_    0.063957 0.477206 0.203596 0.150725
H41   H     H_    0.563817 0.023082 0.924270 0.150259
H42   H     H_    0.436183 0.023081 0.075730 0.150259
H43   H     H_    0.063817 0.523081 0.924270 0.150259
H44   H     H_    0.936183 0.523080 0.075729 0.150260
H45   H     H_    0.285893 0.956645 0.343451 0.162406
H46   H     H_    0.714104 0.958355 0.655295 0.162385
H47   H     H_    0.785896 0.458777 0.345003 0.162380
H48   H     H_    0.214101 0.461406 0.653240 0.162355
H49   H     H_    0.563624 0.023275 0.843537 0.129150
H50   H     H_    0.436376 0.023275 0.156463 0.129151
H51   H     H_    0.063624 0.523275 0.843537 0.129149
H52   H     H_    0.936375 0.523273 0.156462 0.129150
H53   H     H_    0.008433 0.780281 0.937905 0.131353
H54   H     H_    0.991568 0.780281 0.062096 0.131353
H55   H     H_    0.508449 0.280280 0.937923 0.131355
H56   H     H_    0.491551 0.280280 0.062077 0.131355
H57   H     H_    0.007926 0.860451 0.937261 0.154498
H58   H     H_    0.992075 0.860451 0.062740 0.154498
H59   H     H_    0.507942 0.360450 0.937279 0.154497
H60   H     H_    0.492058 0.360450 0.062721 0.154496
H61   H     H_    0.539550 0.220165 0.096850 0.164123
H62   H     H_    0.460451 0.220165 0.903150 0.164122
H63   H     H_    0.039558 0.720165 0.096852 0.164121
H64   H     H_    0.960442 0.720165 0.903149 0.164121
H65   H     H_    0.022825 0.220100 0.956030 0.129668
H66   H     H_    0.977174 0.220100 0.043969 0.129668
H67   H     H_    0.522826 0.720100 0.956031 0.129667
H68   H     H_    0.477173 0.720100 0.043969 0.129667
H69   H     H_    0.022659 0.139608 0.955673 0.149346
H70   H     H_    0.977340 0.139608 0.044327 0.149347
H71   H     H_    0.522660 0.639608 0.955674 0.149346
H72   H     H_    0.477340 0.639608 0.044326 0.149346
H73   H     H_    0.436277 0.779890 0.959315 0.129088
H74   H     H_    0.563723 0.779890 0.040684 0.129086
H75   H     H_    0.936277 0.279890 0.959316 0.129086
H76   H     H_    0.063723 0.279890 0.040684 0.129086
H77   H     H_    0.436099 0.860389 0.958950 0.149128
H78   H     H_    0.563901 0.860389 0.041050 0.149128
H79   H     H_    0.936099 0.360389 0.958951 0.149127
H80   H     H_    0.063900 0.360389 0.041049 0.149127
H81   H     H_    0.285895 0.071490 0.294795 0.163303
H82   H     H_    0.714107 0.071719 0.707315 0.163257
H83   H     H_    0.785892 0.571765 0.292170 0.163246
H84   H     H_    0.214111 0.571969 0.710988 0.163173
H85   H     H_    0.285932 0.040894 0.345307 0.162980
H86   H     H_    0.714068 0.042621 0.655922 0.163016
H87   H     H_    0.785932 0.543037 0.343770 0.163025
H88   H     H_    0.214069 0.545529 0.658174 0.163078
H89   H     H_    0.214231 0.040931 0.273619 0.163954
H90   H     H_    0.785770 0.042658 0.727611 0.163926
H91   H     H_    0.714230 0.543074 0.272081 0.163918
H92   H     H_    0.285771 0.545566 0.729863 0.163869
H93   H     H_    0.214193 0.071526 0.223106 0.161793
H94   H     H_    0.785809 0.071756 0.779004 0.161770
H95   H     H_    0.714191 0.571802 0.220480 0.161765
H96   H     H_    0.285812 0.572005 0.782678 0.161736
H97   H     H_    0.285773 0.971951 0.219490 0.162815
H98   H     H_    0.714226 0.970012 0.779654 0.162878
H99   H     H_    0.785774 0.469543 0.220563 0.162893
H100  H     H_    0.214226 0.466711 0.778036 0.162985
H101  H     H_    0.285802 0.030938 0.220791 0.161928
H102  H     H_    0.714200 0.029011 0.780092 0.161891
H103  H     H_    0.785799 0.528537 0.219701 0.161882
H104  H     H_    0.214203 0.525609 0.781489 0.161830
H105  H     H_    0.214073 0.971987 0.147803 0.163159
H106  H     H_    0.785927 0.970048 0.851341 0.163149
H107  H     H_    0.714073 0.469579 0.148876 0.163146
H108  H     H_    0.285927 0.466746 0.849723 0.163129
O1    O     O_R   0.500000 0.962790 0.564270 -0.589181
O2    O     O_R   0.500000 0.962790 0.435730 -0.589181
O3    O     O_R   0.000000 0.462790 0.564270 -0.589180
O4    O     O_R   0.000000 0.462790 0.435730 -0.589181
O5    O     O_R   0.465110 0.999980 0.900850 -0.587286
O6    O     O_R   0.534890 0.999980 0.099150 -0.587287
O7    O     O_R   0.965110 0.499980 0.900850 -0.587286
O8    O     O_R   0.034890 0.499980 0.099150 -0.587287
O9    O     O_R   0.534890 0.999980 0.970630 -0.588843
O10   O     O_R   0.465110 0.999980 0.029370 -0.588843
O11   O     O_R   0.034890 0.499980 0.970630 -0.588843
O12   O     O_R   0.965110 0.499980 0.029370 -0.588843
O13   O     O_R   0.465110 0.935690 0.965100 -0.589182
O14   O     O_R   0.534890 0.935690 0.034900 -0.589181
O15   O     O_R   0.965110 0.435690 0.965100 -0.589182
O16   O     O_R   0.034890 0.435690 0.034900 -0.589181
O17   O     O_R   0.499990 0.037210 0.564290 -0.588992
O18   O     O_R   0.500010 0.037210 0.435710 -0.588992
O19   O     O_R   0.999990 0.537210 0.564290 -0.588993
O20   O     O_R   0.000010 0.537210 0.435710 -0.588992
O21   O     O_R   0.439720 0.962790 0.439720 -0.580434
O22   O     O_R   0.560280 0.962790 0.560280 -0.580434
O23   O     O_R   0.939720 0.462790 0.439720 -0.580432
O24   O     O_R   0.060280 0.462790 0.560280 -0.580432
O25   O     O_R   0.439710 0.037210 0.439740 -0.580444
O26   O     O_R   0.560290 0.037210 0.560260 -0.580445
O27   O     O_R   0.939710 0.537210 0.439740 -0.580445
O28   O     O_R   0.060290 0.537210 0.560260 -0.580447
O29   O     O_R   0.000000 0.935850 0.037210 -0.590485
O30   O     O_R   1.000000 0.935850 0.962790 -0.590484
O31   O     O_R   0.500000 0.435850 0.037210 -0.590483
O32   O     O_R   0.500000 0.435850 0.962790 -0.590483
O33   O     O_R   0.060280 0.000140 0.097490 -0.578750
O34   O     O_R   0.939720 0.000140 0.902510 -0.578750
O35   O     O_R   0.560280 0.500140 0.097490 -0.578749
O36   O     O_R   0.439720 0.500140 0.902510 -0.578749
O37   O     O_R   0.060280 0.000120 0.023100 -0.582146
O38   O     O_R   0.939720 0.000120 0.976900 -0.582146
O39   O     O_R   0.560280 0.500120 0.023100 -0.582147
O40   O     O_R   0.439720 0.500120 0.976900 -0.582147
O41   O     O_R   0.999990 0.064430 0.037200 -0.589404
O42   O     O_R   0.000010 0.064430 0.962800 -0.589405
O43   O     O_R   0.499990 0.564430 0.037200 -0.589404
O44   O     O_R   0.500010 0.564430 0.962800 -0.589405
O45   O     O_R   0.465110 0.064280 0.965140 -0.569629
O46   O     O_R   0.534890 0.064280 0.034860 -0.569629
O47   O     O_R   0.965110 0.564280 0.965140 -0.569625
O48   O     O_R   0.034890 0.564280 0.034860 -0.569626
O49   O     O_3   0.542576 0.136692 0.110390 -0.721112
H109  H     H_    0.532977 0.105948 0.103986 0.326175
O50   O     O_3   0.457424 0.136692 0.889610 -0.721113
H110  H     H_    0.467023 0.105948 0.896014 0.326176
O51   O     O_3   0.042585 0.636692 0.110393 -0.721107
H111  H     H_    0.032982 0.605949 0.103988 0.326176
O52   O     O_3   0.957415 0.636692 0.889607 -0.721107
H112  H     H_    0.967017 0.605949 0.896011 0.326176

loop_
_geom_bond_atom_site_label_1
_geom_bond_atom_site_label_2
_ccdc_geom_bond_type
C119  C149  S    
C99   C103  A    
C4    C36   S    
C81   O39   A    
C55   C59   A    
C126  H66   S    
C82   O36   A    
C6    H14   S    
C66   H42   S    
C40   H28   S    
O49   H109  S    
C11   C159  S    
C116  O52   S    
C112  C124  A    
C26   C50   A    
Cu1   O22   S    
C119  H85   S    
C29   C33   A    
C100  C104  A    
C104  H60   S    
C142  H78   S    
C8    C168  S    
C54   C74   A    
C125  H65   S    
C27   C51   A    
C70   C74   A    
C96   O15   A    
C43   H31   S    
C12   H100  S    
C141  C145  A    
C125  C135  A    
C120  C158  S    
C107  C124  S    
C41   C49   A    
C25   C29   A    
C30   H22   S    
C129  H69   S    
Cu4   O27   S    
C27   C31   A    
C164  C168  S    
C23   C47   S    
C127  C136  A    
C152  H96   S    
C152  H92   S    
C62   C66   A    
Cu2   O3    S    
Cu3   O26   S    
C98   C102  A    
C17   C21   T    
C19   C23   T    
C110  C123  A    
C110  H62   S    
Cu7   Cu8   S    
C68   C72   A    
C115  C118  A    
Cu4   O20   S    
C1    O1    A    
C67   H43   S    
C12   H104  S    
C129  C133  A    
C125  C129  A    
Cu9   O10   S    
C49   C73   S    
C100  H56   S    
C110  C114  A    
C162  H10   S    
C54   H34   S    
C111  H63   S    
C111  C124  A    
C150  H94   S    
C114  O50   S    
C57   C61   A    
Cu2   O23   S    
C81   O35   A    
Cu12  O16   S    
C59   C63   A    
C78   C106  S    
C60   C64   A    
C10   H102  S    
C128  C136  A    
C64   C94   S    
C66   C70   A    
C151  C167  S    
C77   O30   A    
C84   O43   A    
C116  C118  A    
Cu11  O47   S    
C88   C160  S    
Cu5   O33   S    
C127  C131  A    
C149  H89   S    
C97   C107  A    
C61   C65   A    
C112  H64   S    
C132  C134  A    
C20   C160  S    
C71   H51   S    
C93   O11   A    
C94   O12   A    
C161  C165  S    
C83   O41   A    
C79   O33   A    
C121  H87   S    
C113  O49   S    
C99   C108  A    
C57   H37   S    
C64   C68   A    
Cu1   O1    S    
C50   C74   S    
C55   H35   S    
C150  C166  S    
C139  C143  A    
C87   C159  S    
C151  H91   S    
C82   O40   A    
C14   C166  S    
C17   C157  S    
C10   C158  S    
C15   C155  T    
C8    C12   S    
C55   C75   A    
C44   C52   A    
Cu12  O48   S    
C14   C154  T    
Cu1   Cu3   S    
C15   C167  S    
C68   H44   S    
C28   C32   A    
C131  H71   S    
Cu6   O34   S    
C21   C45   S    
C85   H5    S    
C139  C148  A    
C100  C108  A    
C120  H86   S    
C30   C34   A    
C101  H57   S    
C24   C48   S    
C149  C165  S    
C109  C123  A    
C87   H7    S    
C88   C164  S    
C1    O17   A    
C78   O31   A    
C121  C151  S    
C122  C152  S    
C5    C9    S    
C69   H49   S    
C79   C153  S    
C98   H54   S    
C3    C35   S    
C119  C157  S    
C95   O13   A    
C45   O25   A    
C4    O20   A    
C113  C117  A    
C42   C50   A    
C26   C30   A    
C85   H45   S    
C90   O47   A    
C112  C116  A    
C7    C167  S    
C53   H33   S    
C72   H52   S    
C18   C22   T    
C37   H25   S    
C89   C117  S    
C52   C76   S    
C104  C106  A    
C96   C146  S    
C89   O46   A    
C81   C155  S    
C80   O38   A    
C2    O2    A    
C58   H38   S    
C2    C34   S    
C88   H48   S    
Cu12  O11   S    
C48   O28   A    
Cu10  O9    S    
C5    H105  S    
C37   C41   A    
C26   H18   S    
C56   H36   S    
C114  C117  A    
C7    H107  S    
C40   C44   A    
C141  H77   S    
C163  H11   S    
C96   O16   A    
Cu5   O38   S    
C164  H12   S    
C151  H95   S    
C58   C62   A    
C143  C146  A    
C6    C166  S    
Cu3   O18   S    
Cu9   O5    S    
C85   C161  S    
Cu11  O7    S    
C95   C145  S    
C11   H103  S    
C131  C134  A    
C9    H97   S    
C65   H41   S    
Cu7   O43   S    
C84   C134  S    
Cu4   O28   S    
C90   C118  S    
Cu5   O29   S    
Cu9   O45   S    
C60   H40   S    
Cu2   O4    S    
C126  C130  A    
C92   O6    A    
C93   O7    A    
C102  C105  A    
C47   O23   A    
C94   O8    A    
C48   O24   A    
C162  C166  S    
C16   C156  T    
C69   C73   A    
C79   O37   A    
C42   H30   S    
Cu12  O8    S    
C142  C145  A    
C150  H90   S    
C85   C157  S    
C11   H99   S    
C152  C168  S    
Cu7   O31   S    
Cu8   O32   S    
C29   H21   S    
C122  H88   S    
Cu5   O41   S    
C138  C142  A    
C53   C57   A    
Cu6   O37   S    
Cu2   O24   S    
O51   H111  S    
C163  H3    S    
C33   C37   A    
C98   C107  A    
C56   C60   A    
C92   O10   A    
C149  H93   S    
C32   H24   S    
C35   C39   A    
C4    O4    A    
C18   C158  S    
C13   C165  S    
O50   H110  S    
C109  H61   S    
C77   O29   A    
C84   O44   A    
C12   C160  S    
C13   C153  T    
Cu10  O46   S    
C144  C146  A    
C22   C46   S    
C126  C135  A    
C86   H6    S    
C120  H82   S    
C31   C35   A    
C130  C133  A    
C127  H67   S    
C108  C123  S    
C7    H15   S    
C32   C36   A    
C5    H13   S    
C137  C141  A    
C2    O18   A    
C137  C147  A    
C140  C144  A    
C6    C10   S    
C27   H19   S    
C80   C154  S    
C63   C93   S    
C120  C150  S    
C19   C159  S    
C77   C105  S    
C45   O21   A    
Cu8   O36   S    
C43   C51   A    
Cu2   Cu4   S    
C65   C69   A    
Cu4   O19   S    
C8    H16   S    
C67   C71   A    
C25   C49   A    
Cu11  Cu12  S    
Cu6   O42   S    
C115  O51   S    
C103  H59   S    
Cu9   Cu10  S    
C138  H74   S    
C46   O26   A    
C87   C163  S    
O52   H112  S    
C143  H79   S    
C56   C76   A    
C80   O34   A    
C139  H75   S    
C3    O3    A    
C72   C76   A    
Cu1   O21   S    
C140  C148  A    
C1    C33   S    
Cu5   Cu6   S    
C7    C11   S    
C28   H20   S    
C83   O42   A    
Cu11  O12   S    
C6    H106  S    
C51   C75   S    
Cu10  O14   S    
C162  H2    S    
Cu7   O40   S    
C91   O9    A    
C78   O32   A    
C20   C24   T    
C39   H27   S    
Cu10  O6    S    
C140  H76   S    
C9    C157  S    
C31   H23   S    
C109  C113  A    
C82   C156  S    
C161  H1    S    
Cu6   O30   S    
C90   O48   A    
C128  C132  A    
C130  H70   S    
C101  C105  A    
C8    H108  S    
C63   C67   A    
C102  H58   S    
C47   O27   A    
C128  H68   S    
C36   C40   A    
C161  H9    S    
C39   C43   A    
C91   O5    A    
C89   O45   A    
C62   C92   S    
C44   H32   S    
C163  C167  S    
C70   H50   S    
C164  H4    S    
C99   H55   S    
C138  C147  A    
C97   H53   S    
Cu9   O13   S    
C9    H101  S    
C10   H98   S    
Cu11  O15   S    
C86   C158  S    
C86   C162  S    
Cu7   O35   S    
C5    C165  S    
C86   H46   S    
C132  H72   S    
C54   C58   A    
Cu3   O25   S    
Cu8   O44   S    
Cu3   O17   S    
C122  C160  S    
C38   H26   S    
C34   C38   A    
C53   C73   A    
C46   O22   A    
C87   H47   S    
C41   H29   S    
C59   H39   S    
Cu1   O2    S    
C121  H83   S    
C71   C75   A    
C28   C52   A    
C122  H84   S    
C119  H81   S    
C16   C168  S    
C95   O14   A    
C103  C106  A    
C144  H80   S    
C97   C101  A    
C83   C133  S    
C136  C147  S    
C25   H17   S    
Cu8   O39   S    
C38   C42   A    
C88   H8    S    
C135  C148  S    
C121  C159  S    
C3    O19   A    
C111  C115  A    
C137  H73   S    
C61   C91   S    
