data_mof_unit_11647.cif
_audit_creation_date              2012-12-10T16:49:24-0500
_audit_creation_method            fapswitch 2.2
_symmetry_space_group_name_H-M    P1
_symmetry_Int_Tables_number       1
_space_group_crystal_system       triclinic
_cell_length_a                    19.26684
_cell_length_b                    8.68145
_cell_length_c                    7.444239
_cell_angle_alpha                 103.01903
_cell_angle_beta                  94.340247
_cell_angle_gamma                 92.244138
_cell_volume                      1207.64244373

loop_
_atom_site_label
_atom_site_type_symbol
_atom_type_description
_atom_site_fract_x
_atom_site_fract_y
_atom_site_fract_z
_atom_type_partial_charge
C1    C     C_R   0.497893 0.199668 0.453200 0.883557
C2    C     C_R   0.502060 0.800329 0.546803 0.883133
C3    C     C_2   0.496856 0.031744 0.426860 -0.374406
C4    C     C_2   0.503035 0.968247 0.573147 -0.374597
C5    C     C_R   0.367721 0.499300 0.502095 0.808769
C6    C     C_R   0.632586 0.501056 0.498007 0.815440
C7    C     C_R   0.262024 0.612877 0.634676 -0.254177
C8    C     C_R   0.739230 0.445933 0.330265 -0.268168
C9    C     C_R   0.189457 0.615346 0.634326 0.216784
C10   C     C_R   0.811801 0.443361 0.328861 0.219885
C11   C     C_R   0.147041 0.499743 0.504279 -0.010263
C12   C     C_R   0.854641 0.505998 0.494520 -0.003717
C13   C     C_R   0.177561 0.382355 0.376133 0.217721
C14   C     C_R   0.823749 0.569442 0.659681 0.221031
C15   C     C_R   0.250155 0.383196 0.377294 -0.256812
C16   C     C_R   0.751199 0.564573 0.658910 -0.266958
C17   C     C_R   0.292225 0.497937 0.505860 -0.088624
C18   C     C_R   0.708713 0.503894 0.495076 -0.090456
C19   C     C_R   0.930987 0.504080 0.496367 0.433432
C20   C     C_R   0.071263 0.501780 0.501869 0.476596
Cu1   Cu    Cu3+1 0.507710 0.517380 0.684380 0.943967
Cu2   Cu    Cu3+1 0.492290 0.482620 0.315620 0.945347
H1    H     H_    0.294749 0.702889 0.732652 0.150890
H2    H     H_    0.706661 0.397618 0.203259 0.160168
H3    H     H_    0.273765 0.292854 0.279212 0.147768
H4    H     H_    0.728054 0.612573 0.786474 0.155766
H5    H     H_    0.491025 0.960035 0.285929 0.178926
H6    H     H_    0.508860 0.039955 0.714079 0.178918
H7    H     H_    0.445065 0.379272 0.948736 0.225564
H8    H     H_    0.554953 0.620688 0.051256 0.223660
N1    N     N_R   0.038217 0.465380 0.642383 -0.236713
N2    N     N_R   0.964268 0.540665 0.355920 -0.202952
N3    N     N_R   0.969179 0.466400 0.639572 -0.201213
N4    N     N_R   0.033319 0.539409 0.358626 -0.235206
N5    N     N_2   0.480680 0.456420 0.038530 -0.216414
N6    N     N_2   0.519320 0.543580 0.961470 -0.218487
O1    O     O_R   0.505010 0.286130 0.619770 -0.581890
O2    O     O_R   0.494990 0.713870 0.380230 -0.581516
O3    O     O_R   0.491990 0.256780 0.308370 -0.588084
O4    O     O_R   0.508010 0.743220 0.691630 -0.587712
O5    O     O_R   0.406650 0.514660 0.655750 -0.586425
O6    O     O_R   0.593350 0.485340 0.344250 -0.590796
O7    O     O_R   0.393640 0.485310 0.344340 -0.578214
O8    O     O_R   0.606360 0.514690 0.655660 -0.584464
N7    N     N_2   0.159310 0.739451 0.757558 -0.430591
H9    H     H_    0.181658 0.849831 0.759418 0.247975
C21   C     C_3   0.156004 0.714903 0.942544 -0.648600
H10   H     H_    0.209378 0.713515 0.010115 0.215395
H11   H     H_    0.126734 0.601542 0.938288 0.251572
H12   H     H_    0.128530 0.812422 0.026352 0.228134
N8    N     N_2   0.841095 0.375300 0.160948 -0.409888
H13   H     H_    0.811419 0.386216 0.043629 0.247517
C22   C     C_3   0.861670 0.214814 0.147035 -0.651366
H14   H     H_    0.815136 0.134109 0.143728 0.210661
H15   H     H_    0.899134 0.207776 0.265426 0.238631
H16   H     H_    0.887493 0.175085 0.017563 0.232485
N9    N     N_2   0.135702 0.257689 0.253967 -0.432280
H17   H     H_    0.154156 0.147531 0.252969 0.247920
C23   C     C_3   0.121995 0.280559 0.068339 -0.644216
H18   H     H_    0.087987 0.179768 0.984199 0.232215
H19   H     H_    0.094569 0.390736 0.070888 0.257700
H20   H     H_    0.171504 0.286602 0.001917 0.212865
N10   N     N_2   0.865208 0.640880 0.826679 -0.401120
H21   H     H_    0.842396 0.631579 0.945051 0.255965
C24   C     C_3   0.891320 0.801349 0.836275 -0.653512
H22   H     H_    0.925198 0.845443 0.966782 0.236342
H23   H     H_    0.847228 0.879955 0.834268 0.208623
H24   H     H_    0.922812 0.806139 0.718532 0.238519

loop_
_geom_bond_atom_site_label_1
_geom_bond_atom_site_label_2
_ccdc_geom_bond_type
N7    H9    S    
C2    C4    S    
N10   C24   S    
C9    N7    S    
C1    O1    A    
Cu1   O8    S    
C11   C13   A    
C6    O6    A    
H7    N5    S    
C22   H15   S    
C21   H10   S    
C13   C15   A    
H8    N6    S    
C24   H24   S    
C20   N4    A    
C3    H5    S    
C5    O7    A    
Cu1   O1    S    
C23   H18   S    
C21   H11   S    
Cu1   N6    S    
C6    O8    A    
Cu1   Cu2   S    
C15   C17   A    
Cu2   N5    S    
C9    C11   A    
N9    H17   S    
Cu2   O6    S    
Cu1   O4    S    
C10   C12   A    
C7    H1    S    
C19   N2    A    
C12   C19   S    
C8    C10   A    
C8    H2    S    
C12   C14   A    
C14   N10   S    
C21   H12   S    
C14   C16   A    
N7    C21   S    
C16   H4    S    
C6    C18   S    
Cu1   O5    S    
C11   C20   S    
C23   H19   S    
N9    C23   S    
N1    N3    A    
C1    O3    A    
N8    C22   S    
N8    H13   S    
Cu2   O2    S    
C2    O4    A    
C10   N8    S    
C13   N9    S    
C5    C17   S    
C15   H3    S    
C16   C18   A    
C24   H22   S    
C4    H6    S    
C22   H16   S    
C1    C3    S    
C7    C9    A    
C2    O2    A    
C23   H20   S    
C5    O5    A    
C7    C17   A    
C22   H14   S    
Cu2   O3    S    
C20   N1    A    
C8    C18   A    
C3    C4    D    
Cu2   O7    S    
C19   N3    A    
N10   H21   S    
C24   H23   S    
N5    N6    D    
N2    N4    A    
