data_mof_unit_53520.cif
_audit_creation_date              2012-12-10T17:47:45-0500
_audit_creation_method            fapswitch 2.2
_symmetry_space_group_name_H-M    P1
_symmetry_Int_Tables_number       1
_space_group_crystal_system       triclinic
_cell_length_a                    10.638775
_cell_length_b                    10.678678
_cell_length_c                    9.900943
_cell_angle_alpha                 90.727154
_cell_angle_beta                  90.246483
_cell_angle_gamma                 91.253301
_cell_volume                      1124.45539636

loop_
_atom_site_label
_atom_site_type_symbol
_atom_type_description
_atom_site_fract_x
_atom_site_fract_y
_atom_site_fract_z
_atom_type_partial_charge
C1    C     C_R   0.520041 0.262344 0.499654 0.889775
C2    C     C_R   0.551892 0.067735 0.625297 0.072867
C3    C     C_R   0.549145 0.130204 0.500394 -0.164431
C4    C     C_R   0.258034 0.502417 0.499555 0.832262
C5    C     C_R   0.545021 0.061164 0.378546 -0.010844
C6    C     C_R   0.515922 0.935403 0.382718 -0.320174
C7    C     C_R   0.495905 0.875989 0.505997 -0.134275
C8    C     C_R   0.338149 0.334212 0.137515 -0.196590
C9    C     C_R   0.258103 0.250803 0.066620 0.232810
C10   C     C_R   0.258306 0.252103 0.926128 -0.283550
C11   C     C_R   0.337606 0.334267 0.857439 -0.188540
C12   C     C_3   0.879021 0.501201 0.499494 0.144271
C13   C     C_R   0.420366 0.417925 0.926381 0.162656
C14   C     C_R   0.420531 0.417867 0.070885 0.134373
C15   C     C_R   0.576247 0.578367 0.072955 -0.109175
C16   C     C_R   0.493372 0.740771 0.501657 0.880577
C17   C     C_R   0.576238 0.578309 0.929746 -0.135452
C18   C     C_R   0.742322 0.500886 0.499967 0.850407
C19   C     C_3   0.072951 0.372217 0.544401 -0.436222
C20   C     C_3   0.927954 0.369114 0.538916 0.087733
C21   C     C_3   0.074857 0.605285 0.596940 -0.404342
C22   C     C_3   0.071600 0.528788 0.354143 -0.403170
C23   C     C_3   0.930785 0.607320 0.594120 -0.398082
C24   C     C_3   0.121921 0.502352 0.498574 0.154380
C25   C     C_2   0.573213 0.114444 0.244799 0.422352
C26   C     C_3   0.227134 0.083663 0.229133 -0.819049
C27   C     C_3   0.914001 0.344886 0.794284 -0.753256
C28   C     C_3   0.928451 0.530180 0.354864 -0.462813
C29   C     C_R   0.596754 0.125766 0.745883 -0.151283
C30   C     C_R   0.578519 0.069401 0.869887 -0.138982
C31   C     C_R   0.510783 0.957024 0.876869 -0.165919
C32   C     C_R   0.472633 0.895413 0.758107 -0.159983
C33   C     C_R   0.505536 0.944311 0.629873 0.097270
H1    H     H_    0.110055 0.351755 0.646424 0.186484
H2    H     H_    0.638479 0.642435 0.127939 0.136995
H3    H     H_    0.109485 0.297975 0.475868 0.144586
H4    H     H_    0.331795 0.332754 0.244346 0.212134
H5    H     H_    0.196386 0.189189 0.869004 0.142441
H6    H     H_    0.330280 0.329819 0.750423 0.219028
H7    H     H_    0.638409 0.642354 0.876968 0.148718
H8    H     H_    0.901084 0.305176 0.452925 0.116926
H9    H     H_    0.107305 0.587655 0.701856 0.182077
H10   H     H_    0.892470 0.600298 0.697799 0.186167
H11   H     H_    0.108986 0.620726 0.318330 0.180880
H12   H     H_    0.896180 0.623451 0.321493 0.183016
H13   H     H_    0.102557 0.455171 0.281583 0.196018
H14   H     H_    0.892009 0.459347 0.280037 0.206227
H15   H     H_    0.520882 0.080110 0.157563 0.032235
H16   H     H_    0.102885 0.129489 0.076226 0.228869
H17   H     H_    0.151507 0.026770 0.277291 0.239990
H18   H     H_    0.280096 0.133950 0.310739 0.239270
H19   H     H_    0.290439 0.019582 0.173906 0.235637
H20   H     H_    0.842794 0.222626 0.646887 0.210112
H21   H     H_    0.833391 0.344003 0.865084 0.244975
H22   H     H_    0.962007 0.437327 0.801545 0.242770
H23   H     H_    0.113768 0.698606 0.567426 0.156403
H24   H     H_    0.980816 0.272591 0.826648 0.216985
H25   H     H_    0.900408 0.699672 0.556160 0.157723
H26   H     H_    0.646726 0.214772 0.745715 0.173625
H27   H     H_    0.614217 0.115810 0.959939 0.162779
H28   H     H_    0.489238 0.916498 0.973957 0.123491
H29   H     H_    0.415024 0.811830 0.769488 0.163835
H30   H     H_    0.513151 0.883071 0.288051 0.162831
N1    N     N_R   0.498810 0.498800 0.142780 -0.103774
N2    N     N_R   0.498760 0.498720 0.857170 -0.119291
N3    N     N_2   0.171850 0.170875 0.136478 -0.308635
N4    N     N_2   0.868438 0.315834 0.658909 -0.300329
O1    O     O_R   0.500000 0.316780 0.614690 -0.649152
O2    O     O_R   0.499990 0.316750 0.385360 -0.599269
O3    O     O_R   0.314800 0.499990 0.614670 -0.648263
O4    O     O_R   0.314790 0.499970 0.385330 -0.650352
O5    O     O_R   0.500010 0.683250 0.614640 -0.632755
O6    O     O_R   0.500000 0.683220 0.385310 -0.621357
O7    O     O_R   0.685210 0.500030 0.614670 -0.603877
O8    O     O_R   0.685200 0.500010 0.385330 -0.614324
O9    O     O_2   0.657628 0.192477 0.230602 -0.578958
Zn1   Zn    Zn3+2 0.500010 0.500020 0.653130 0.921242
Zn2   Zn    Zn3+2 0.499990 0.499980 0.346870 0.950272

loop_
_geom_bond_atom_site_label_1
_geom_bond_atom_site_label_2
_ccdc_geom_bond_type
C23   H25   S    
C28   H14   S    
C18   O8    A    
C31   H28   S    
C20   N4    S    
C19   C20   S    
C16   O5    A    
C4    O3    A    
C20   H8    S    
C27   H21   S    
C13   N2    A    
C12   C23   S    
C29   C30   A    
C12   C28   S    
C2    C29   A    
C19   H3    S    
C26   H17   S    
C30   C31   A    
C4    C24   S    
C27   H22   S    
C1    O1    A    
C23   H10   S    
C9    N3    S    
C22   H11   S    
C29   H26   S    
C8    C9    A    
O7    Zn1   S    
C30   H27   S    
O6    Zn2   S    
C9    C10   A    
C18   O7    A    
C22   C28   S    
C13   C14   A    
O3    Zn1   S    
C7    C33   A    
O2    Zn2   S    
C15   H2    S    
C28   H12   S    
N2    Zn1   S    
H16   N3    S    
C16   O6    A    
C26   N3    S    
C27   H24   S    
C1    O2    A    
C1    C3    S    
C17   H7    S    
C6    H30   S    
O5    Zn1   S    
C26   H19   S    
C31   C32   A    
C15   N1    A    
C14   N1    A    
C12   C20   S    
C11   H6    S    
C25   H15   S    
C5    C25   S    
C2    C33   A    
C7    C16   S    
C22   H13   S    
C21   C23   S    
C22   C24   S    
C8    H4    S    
O1    Zn1   S    
C15   C17   A    
C8    C14   A    
N1    Zn2   S    
C3    C5    A    
C19   H1    S    
C21   H23   S    
C6    C7    A    
C17   N2    A    
C10   H5    S    
C25   O9    D    
C32   C33   A    
C2    C3    A    
C32   H29   S    
C26   H18   S    
C11   C13   A    
C5    C6    A    
C19   C24   S    
O4    Zn2   S    
H20   N4    S    
O8    Zn2   S    
C27   N4    S    
C10   C11   A    
C21   H9    S    
C21   C24   S    
C12   C18   S    
C4    O4    A    
