data_mof_unit_43359.cif
_audit_creation_date              2013-03-05T16:34:53-0500
_audit_creation_method            fapswitch 2.2
_symmetry_space_group_name_H-M    P1
_symmetry_Int_Tables_number       1
_space_group_crystal_system       triclinic
_cell_length_a                    15.12684
_cell_length_b                    9.136971
_cell_length_c                    7.790704
_cell_angle_alpha                 90.012287
_cell_angle_beta                  89.933962
_cell_angle_gamma                 89.850448
_cell_volume                      1076.77604612

loop_
_atom_site_label
_atom_site_type_symbol
_atom_site_description
_atom_site_fract_x
_atom_site_fract_y
_atom_site_fract_z
_atom_type_partial_charge
O1    O     O_R   0.500000 0.288390 0.642760 -0.568495
O2    O     O_R   0.500000 0.711610 0.357240 -0.573433
O3    O     O_R   0.500000 0.711610 0.642760 -0.568692
O4    O     O_R   0.500000 0.288390 0.357240 -0.575039
C1    C     C_R   0.500619 0.219988 0.500062 0.912099
C2    C     C_R   0.499229 0.780010 0.500103 0.909726
O5    O     O_R   0.370260 0.500000 0.642800 -0.573062
O6    O     O_R   0.629740 0.500000 0.357200 -0.562121
O7    O     O_R   0.629740 0.500000 0.642800 -0.573387
O8    O     O_R   0.370260 0.500000 0.357200 -0.564221
C3    C     C_R   0.328705 0.500377 0.500074 0.871155
C4    C     C_R   0.671307 0.499880 0.499825 0.873320
Cu1   Cu    Cu3+1 0.500000 0.500000 0.669080 1.090869
Cu2   Cu    Cu3+1 0.500000 0.500000 0.330920 1.087512
N1    N     N_1   0.500000 0.500000 0.076820 -0.028834
N2    N     N_1   0.500000 0.500000 0.923180 -0.030675
C5    C     C_R   0.813186 0.634708 0.511499 -0.063866
C6    C     C_R   0.186650 0.367528 0.522432 -0.064682
C7    C     C_R   0.814221 0.367425 0.485170 -0.059309
C8    C     C_R   0.186108 0.633139 0.477897 -0.053088
C9    C     C_R   0.767796 0.500615 0.499466 -0.193211
C10   C     C_R   0.232213 0.500439 0.500493 -0.190715
C11   C     C_R   0.906936 0.367060 0.499375 0.054449
C12   C     C_R   0.093187 0.634389 0.489032 0.052455
C13   C     C_R   0.906381 0.635389 0.505405 0.047163
C14   C     C_R   0.093518 0.366862 0.517420 0.046866
C15   C     C_R   0.953228 0.501150 0.504805 0.057679
C16   C     C_R   0.046802 0.500882 0.505078 0.057653
C17   C     C_R   0.954478 0.235163 0.508846 -0.136153
C18   C     C_R   0.045435 0.766405 0.485207 -0.138463
C19   C     C_R   0.953933 0.766982 0.495252 -0.153195
C20   C     C_R   0.045877 0.235060 0.519936 -0.153809
C21   C     C_1   0.500370 0.065276 0.500362 -0.122759
C22   C     C_1   0.499463 0.934727 0.500433 -0.125774
H1    H     H_    0.921270 0.130610 0.511091 0.166309
H2    H     H_    0.078381 0.870973 0.476923 0.165103
H3    H     H_    0.920967 0.871838 0.490189 0.165893
H4    H     H_    0.078636 0.130046 0.526292 0.164908
C23   C     C_2   0.762298 0.773363 0.522405 0.818716
O9    O     O_2   0.773801 0.857002 0.642879 -0.553526
O10   O     O_R   0.701193 0.807271 0.394371 -0.761485
H5    H     H_    0.670611 0.904042 0.415989 0.331743
C24   C     C_2   0.237353 0.229422 0.541567 0.823055
O11   O     O_2   0.227722 0.153514 0.669483 -0.550326
O12   O     O_R   0.296042 0.187103 0.412449 -0.764866
H6    H     H_    0.325990 0.090788 0.439226 0.336928
C25   C     C_2   0.766664 0.231188 0.439394 0.825627
O13   O     O_2   0.706780 0.185740 0.530093 -0.600819
O14   O     O_R   0.790827 0.156620 0.289717 -0.737406
H7    H     H_    0.751730 0.069640 0.264661 0.350834
C26   C     C_2   0.235024 0.768262 0.432785 0.817653
O15   O     O_2   0.292086 0.815519 0.528691 -0.605700
O16   O     O_R   0.215795 0.839574 0.278463 -0.734059
H8    H     H_    0.255416 0.926633 0.256334 0.353453

loop_
_geom_bond_atom_site_label_1
_geom_bond_atom_site_label_2
_geom_bond_distance
_ccdc_geom_bond_type
C13   C19   1.404903 A    
C7    C11   1.406964 A    
C24   O11   1.223061 D    
C14   C20   1.405164 A    
C20   H4    1.079935 S    
C13   C15   1.414936 A    
O10   H5    1.010836 S    
C17   H1    1.080614 S    
C3    C10   1.459618 S    
C14   C16   1.415556 A    
C25   O13   1.221858 D    
O3    Cu1   1.944361 S    
C18   H2    1.080664 S    
O6    C4    1.277351 A    
O3    C2    1.275233 A    
C5    C13   1.410528 A    
C21   C22   1.192934 T    
C8    C26   1.483132 S    
C23   O10   1.395025 S    
O12   H6    1.010647 S    
O5    C3    1.277945 A    
C24   O12   1.394823 S    
O2    C2    1.276376 A    
O1    C1    1.275249 A    
N1    N2    1.196965 T    
C11   C17   1.403786 A    
C7    C9    1.407785 A    
C8    C10   1.408344 A    
C17   C20   1.385386 A    
C11   C15   1.413407 A    
C1    C21   1.413622 S    
O4    Cu2   1.944362 S    
C18   C19   1.386260 A    
O2    Cu2   1.944274 S    
O7    C4    1.278456 A    
C7    C25   1.483000 S    
C12   C18   1.404688 A    
O1    Cu1   1.944274 S    
O8    C3    1.277688 A    
C26   O15   1.221909 D    
C23   O9    1.223097 D    
C12   C16   1.414329 A    
O5    Cu1   1.973443 S    
C25   O14   1.398192 S    
O14   H7    1.011008 S    
C5    C23   1.483065 S    
Cu1   N2    1.979617 S    
C6    C24   1.482590 S    
C15   C16   1.415476 A    
O7    Cu1   1.972972 S    
Cu2   N1    1.979617 S    
O6    Cu2   1.973442 S    
Cu1   Cu2   2.634505 S    
C6    C10   1.408267 A    
C4    C9    1.459608 S    
C8    C12   1.408192 A    
C5    C9    1.409194 A    
C2    C22   1.413660 S    
O16   H8    1.011919 S    
C19   H3    1.079674 S    
O4    C1    1.276339 A    
C26   O16   1.398138 S    
O8    Cu2   1.972974 S    
C6    C14   1.409415 A    
