data_mof_unit_28422.cif
_audit_creation_date              2012-12-10T19:06:30-0500
_audit_creation_method            fapswitch 2.2
_symmetry_space_group_name_H-M    P1
_symmetry_Int_Tables_number       1
_space_group_crystal_system       triclinic
_cell_length_a                    23.502619
_cell_length_b                    10.85166
_cell_length_c                    9.563189
_cell_angle_alpha                 89.897003
_cell_angle_beta                  89.9029
_cell_angle_gamma                 90.051087
_cell_volume                      2439.01054636

loop_
_atom_site_label
_atom_site_type_symbol
_atom_type_description
_atom_site_fract_x
_atom_site_fract_y
_atom_site_fract_z
_atom_type_partial_charge
C1    C     C_R   0.499997 0.262759 0.499974 0.816251
C2    C     C_R   0.969886 0.282209 0.446198 -0.160886
C3    C     C_R   0.029253 0.282223 0.445721 -0.161175
C4    C     C_R   0.059610 0.391045 0.473414 -0.015033
C5    C     C_R   0.029709 0.500634 0.501958 -0.017538
C6    C     C_R   0.059723 0.610205 0.530197 -0.015035
C7    C     C_R   0.029476 0.719038 0.558227 -0.161231
C8    C     C_R   0.970108 0.719104 0.558260 -0.160964
C9    C     C_R   0.119299 0.393288 0.473628 0.533569
C10   C     C_R   0.119412 0.607939 0.529300 0.533587
C11   C     C_R   0.238672 0.512381 0.626777 -0.102374
C12   C     C_R   0.390921 0.500022 0.500140 0.797235
C13   C     C_R   0.297999 0.511994 0.626689 -0.215796
C14   C     C_R   0.328229 0.500218 0.500411 -0.035872
C15   C     C_R   0.297961 0.488668 0.374398 -0.217191
C16   C     C_R   0.238629 0.488637 0.374860 -0.101494
C17   C     C_R   0.208821 0.500580 0.500962 0.358128
C18   C     C_R   0.760359 0.438381 0.606888 -0.097070
C19   C     C_R   0.701027 0.438346 0.606341 -0.223872
C20   C     C_R   0.671276 0.500452 0.500440 -0.029302
C21   C     C_R   0.701553 0.563386 0.395839 -0.227677
C22   C     C_R   0.760878 0.563576 0.396599 -0.094097
C23   C     C_R   0.500302 0.737191 0.499756 0.810101
C24   C     C_R   0.790489 0.500903 0.501961 0.351215
C25   C     C_R   0.501464 0.061782 0.621132 -0.017215
C26   C     C_R   0.500032 0.130102 0.498466 -0.085664
C27   C     C_R   0.498939 0.064756 0.370902 -0.190042
C28   C     C_R   0.499233 0.935579 0.370817 -0.204392
C29   C     C_R   0.500557 0.869771 0.498120 -0.076208
C30   C     C_R   0.501880 0.937428 0.620848 -0.014121
C31   C     C_3   0.504681 0.926674 0.776339 0.011962
C32   C     C_3   0.503490 0.069520 0.777401 0.191385
C33   C     C_R   0.549168 0.482169 0.073413 0.281000
C34   C     C_R   0.608911 0.500249 0.499970 0.794207
C35   C     C_R   0.450696 0.511527 0.074225 -0.097537
C36   C     C_R   0.450694 0.511392 0.926072 -0.058810
C37   C     C_R   0.549191 0.482668 0.926010 0.306270
C38   C     C_3   0.600619 0.563098 0.920409 -0.496217
C39   C     C_3   0.600930 0.561503 0.078613 -0.519212
C40   C     C_R   0.880057 0.608116 0.529967 0.533714
C41   C     C_R   0.879951 0.393352 0.474845 0.534490
C42   C     C_R   0.939639 0.391031 0.474302 -0.014814
C43   C     C_R   0.969651 0.500660 0.502219 -0.017530
C44   C     C_R   0.939749 0.610324 0.530336 -0.014368
Cu1   Cu    Cu3+1 0.500000 0.499980 0.640670 0.971836
Cu2   Cu    Cu3+1 0.500000 0.500020 0.359330 0.944929
H1    H     H_    0.947819 0.196722 0.424423 0.190570
H2    H     H_    0.678402 0.388326 0.687246 0.153276
H3    H     H_    0.679383 0.614388 0.315403 0.147204
H4    H     H_    0.783906 0.612451 0.315483 0.145996
H5    H     H_    0.497890 0.112625 0.271459 0.173443
H6    H     H_    0.498518 0.887910 0.271590 0.163525
H7    H     H_    0.544872 0.883022 0.812829 0.152857
H8    H     H_    0.464671 0.111676 0.823520 0.143610
H9    H     H_    0.410746 0.523090 0.128323 0.143091
H10   H     H_    0.051234 0.196749 0.423606 0.190610
H11   H     H_    0.410753 0.522777 0.872199 0.141799
H12   H     H_    0.637935 0.515250 0.874421 0.205417
H13   H     H_    0.591522 0.655569 0.875355 0.208525
H14   H     H_    0.638035 0.511002 0.121933 0.208464
H15   H     H_    0.592603 0.653231 0.126141 0.208697
H16   H     H_    0.051545 0.804493 0.580150 0.190625
H17   H     H_    0.948127 0.804614 0.580201 0.190504
H18   H     H_    0.215816 0.521443 0.724630 0.139627
H19   H     H_    0.320084 0.521285 0.725349 0.146582
H20   H     H_    0.320026 0.479207 0.275541 0.147030
H21   H     H_    0.215739 0.479670 0.277225 0.139656
H22   H     H_    0.782984 0.389906 0.688732 0.146106
N1    N     N_R   0.851515 0.500773 0.502381 -0.470776
N2    N     N_R   0.147821 0.500611 0.501281 -0.470944
N3    N     N_R   0.500360 0.500930 0.147930 -0.190389
N4    N     N_R   0.500360 0.500890 0.852020 -0.184537
O1    O     O_R   0.500000 0.319640 0.618810 -0.554718
O2    O     O_2   0.850519 0.289448 0.446980 -0.531180
O3    O     O_2   0.148655 0.289013 0.447413 -0.531504
O4    O     O_2   0.148877 0.712194 0.555210 -0.531674
O5    O     O_R   0.500010 0.319680 0.381230 -0.582777
O6    O     O_R   0.417880 0.499940 0.618820 -0.593102
O7    O     O_R   0.417880 0.499980 0.381240 -0.592661
O8    O     O_R   0.499990 0.680320 0.618770 -0.557000
O9    O     O_R   0.500000 0.680360 0.381190 -0.590974
O10   O     O_R   0.582120 0.500020 0.618760 -0.583755
O11   O     O_R   0.582120 0.500060 0.381180 -0.581389
O12   O     O_2   0.850724 0.712072 0.557910 -0.532482
N5    N     N_2   0.453547 0.870778 0.833590 -0.402089
H23   H     H_    0.415752 0.907197 0.797426 0.254484
C45   C     C_3   0.454470 0.851554 0.983071 -0.664316
H24   H     H_    0.415707 0.800347 0.015548 0.223813
H25   H     H_    0.455398 0.941636 0.038059 0.218156
H26   H     H_    0.492250 0.796042 0.013225 0.233007
O13   O     O_3   0.554074 0.123102 0.827451 -0.715204
H27   H     H_    0.586813 0.085578 0.777378 0.327652

loop_
_geom_bond_atom_site_label_1
_geom_bond_atom_site_label_2
_ccdc_geom_bond_type
C45   H24   S    
C31   N5    S    
C1    O5    A    
C41   C42   A    
C40   O12   S    
C19   C20   A    
C21   H3    S    
C7    C8    A    
C13   H19   S    
N5    H23   S    
C26   C27   A    
C29   C30   A    
C18   C24   A    
C5    C6    A    
C23   C29   S    
C28   C29   A    
C30   C31   S    
C32   O13   S    
C18   H22   S    
C15   C16   A    
C12   O7    A    
Cu1   O1    S    
C18   C19   A    
C41   O2    S    
C38   H12   S    
C10   O4    S    
Cu2   O7    S    
Cu1   O10   S    
C16   C17   A    
C12   O6    A    
Cu1   O6    S    
C23   O8    A    
C22   H4    S    
C20   C34   S    
C25   C32   S    
C5    C43   A    
C35   N3    A    
C17   N2    S    
C21   C22   A    
Cu1   N4    S    
C32   H8    S    
C27   H5    S    
C24   N1    S    
N5    C45   S    
C39   H15   S    
C40   N1    A    
C35   H9    S    
C9    N2    A    
C11   H18   S    
O13   H27   S    
C19   H2    S    
C25   C26   A    
Cu1   Cu2   S    
C15   H20   S    
C33   C37   A    
Cu2   O11   S    
C35   C36   A    
C43   C44   A    
C7    H16   S    
C37   C38   S    
Cu2   O9    S    
C3    H10   S    
C31   C32   S    
C16   H21   S    
C33   C39   S    
C31   H7    S    
Cu2   N3    S    
C10   N2    A    
C12   C14   S    
C36   H11   S    
C45   H25   S    
C1    C26   S    
C22   C24   A    
C45   H26   S    
C34   O11   A    
C3    C4    A    
C41   N1    A    
C25   C30   A    
C11   C17   A    
C23   O9    A    
C8    C44   A    
C4    C5    A    
C6    C10   A    
Cu2   O5    S    
C6    C7    A    
C28   H6    S    
C2    H1    S    
C9    O3    S    
C1    O1    A    
C2    C3    A    
C11   C13   A    
C38   C39   S    
C2    C42   A    
C39   H14   S    
Cu1   O8    S    
C33   N3    A    
C8    H17   S    
C38   H13   S    
C40   C44   A    
C20   C21   A    
C42   C43   A    
C37   N4    A    
C27   C28   A    
C14   C15   A    
C34   O10   A    
C4    C9    A    
C13   C14   A    
C36   N4    A    
