data_mof_unit_40934.cif
_audit_creation_date              2013-03-05T15:47:04-0500
_audit_creation_method            fapswitch 2.2
_symmetry_space_group_name_H-M    P1
_symmetry_Int_Tables_number       1
_space_group_crystal_system       triclinic
_cell_length_a                    23.491182
_cell_length_b                    11.037361
_cell_length_c                    9.812367
_cell_angle_alpha                 111.160159
_cell_angle_beta                  97.779202
_cell_angle_gamma                 91.011357
_cell_volume                      2344.68405756

loop_
_atom_site_label
_atom_site_type_symbol
_atom_site_description
_atom_site_fract_x
_atom_site_fract_y
_atom_site_fract_z
_atom_type_partial_charge
O1    O     O_R   0.505330 0.332340 0.577400 -0.580601
O2    O     O_R   0.494670 0.667660 0.422600 -0.580584
O3    O     O_R   0.488470 0.295500 0.332650 -0.569479
O4    O     O_R   0.511530 0.704500 0.667350 -0.569467
C1    C     C_R   0.495862 0.254089 0.440627 0.869613
C2    C     C_R   0.504138 0.745911 0.559373 0.869654
O5    O     O_R   0.426310 0.518390 0.622390 -0.581483
O6    O     O_R   0.573690 0.481610 0.377610 -0.581515
O7    O     O_R   0.409450 0.481550 0.377650 -0.573443
O8    O     O_R   0.590550 0.518450 0.622350 -0.573465
C3    C     C_R   0.391023 0.499842 0.501801 0.807899
C4    C     C_R   0.608978 0.500134 0.498199 0.807947
Cu1   Cu    Cu3+1 0.509980 0.521810 0.644910 0.946636
Cu2   Cu    Cu3+1 0.490020 0.478190 0.355090 0.946626
C5    C     C_R   0.884521 0.617721 0.560993 0.556876
C6    C     C_R   0.115494 0.381949 0.439178 0.556945
N1    N     N_R   0.851221 0.503722 0.488504 -0.482294
N2    N     N_R   0.148797 0.495939 0.511686 -0.482287
C7    C     C_R   0.874678 0.389061 0.420997 0.561666
C8    C     C_R   0.125344 0.610586 0.579282 0.561653
C9    C     C_R   0.934423 0.385350 0.425339 -0.055871
C10   C     C_R   0.065601 0.614293 0.574979 -0.055866
C11   C     C_R   0.969795 0.501576 0.497065 -0.051170
C12   C     C_R   0.030228 0.498071 0.503244 -0.051187
C13   C     C_R   0.944798 0.620940 0.562647 -0.122123
C14   C     C_R   0.055224 0.378710 0.437645 -0.122076
C15   C     C_R   0.959246 0.267384 0.362075 -0.177966
C16   C     C_R   0.040781 0.732250 0.638315 -0.177961
C17   C     C_R   0.018926 0.262056 0.369866 0.340192
C18   C     C_R   0.981102 0.737578 0.630527 0.340208
O9    O     O_2   0.859114 0.726078 0.633350 -0.463481
O10   O     O_2   0.140886 0.273627 0.366637 -0.463581
O11   O     O_2   0.840143 0.278753 0.351188 -0.517833
O12   O     O_2   0.159882 0.720886 0.649137 -0.517766
H1    H     H_    0.932339 0.177211 0.309887 0.224478
H2    H     H_    0.067687 0.822419 0.690573 0.224409
C19   C     C_R   0.232215 0.518618 0.397716 -0.109461
C20   C     C_R   0.767782 0.481557 0.602636 -0.109540
H3    H     H_    0.203560 0.535550 0.311247 0.147043
H4    H     H_    0.796427 0.464947 0.689335 0.146969
C21   C     C_R   0.291129 0.519402 0.394018 -0.220994
C22   C     C_R   0.708865 0.480868 0.606291 -0.220874
H5    H     H_    0.307369 0.537526 0.304447 0.164377
H6    H     H_    0.692617 0.463131 0.696071 0.164422
C23   C     C_R   0.328705 0.499006 0.506027 -0.065259
C24   C     C_R   0.671300 0.500877 0.493994 -0.065296
C25   C     C_R   0.306514 0.477021 0.621740 -0.202978
C26   C     C_R   0.693510 0.522371 0.378033 -0.203100
H7    H     H_    0.336203 0.460819 0.706670 0.143230
H8    H     H_    0.663835 0.538230 0.292843 0.143342
C27   C     C_R   0.246785 0.474090 0.625882 0.132678
C28   C     C_R   0.753245 0.525217 0.373945 0.132745
C29   C     C_R   0.209869 0.496184 0.512241 0.316459
C30   C     C_R   0.790144 0.503498 0.487862 0.316542
H9    H     H_    0.491201 0.864572 0.368291 0.180801
H10   H     H_    0.508796 0.135428 0.631710 0.180794
C31   C     C_2   0.493601 0.114743 0.407139 -0.343488
C32   C     C_2   0.506397 0.885257 0.592861 -0.343501
C33   C     C_2   0.501056 0.069571 0.516605 -0.146816
C34   C     C_2   0.498942 0.930429 0.483395 -0.146806
H11   H     H_    0.514158 0.951398 0.707768 0.153701
H12   H     H_    0.485841 0.048602 0.292232 0.153705
H13   H     H_    0.461978 0.416234 0.845960 0.155374
H14   H     H_    0.538023 0.583764 0.154039 0.155409
N3    N     N_2   0.475010 0.445410 0.137370 -0.283993
N4    N     N_2   0.524990 0.554590 0.862630 -0.283995
C35   C     C_2   0.504860 0.510812 0.081222 -0.074674
C36   C     C_2   0.495140 0.489187 0.918778 -0.074639
H15   H     H_    0.555981 0.623762 0.934427 0.193039
H16   H     H_    0.444019 0.376239 0.065573 0.193034
N5    N     N_R   0.041404 0.136370 0.314983 0.168805
O13   O     O_R   0.020016 0.053536 0.184449 -0.283550
O14   O     O_R   0.073082 0.094860 0.406258 -0.287774
N6    N     N_R   0.958634 0.863252 0.685598 0.168752
O15   O     O_R   0.979921 0.945824 0.816363 -0.283523
O16   O     O_R   0.927082 0.905050 0.594386 -0.287596
C37   C     C_3   0.220638 0.447802 0.747183 -0.377651
C38   C     C_3   0.263239 0.417197 0.861853 -0.396385
C39   C     C_3   0.231935 0.387562 0.974020 -0.766177
H17   H     H_    0.209283 0.473276 0.035325 0.250343
H18   H     H_    0.200155 0.302482 0.917420 0.278043
H19   H     H_    0.263579 0.364251 0.054207 0.242219
H20   H     H_    0.286592 0.330831 0.805346 0.230195
H21   H     H_    0.294851 0.502082 0.922333 0.224050
H22   H     H_    0.197790 0.534258 0.806016 0.219032
H23   H     H_    0.188108 0.363652 0.693826 0.228137
C40   C     C_3   0.779415 0.550982 0.252386 -0.377725
C41   C     C_3   0.736891 0.582176 0.138040 -0.396263
C42   C     C_3   0.768255 0.611602 0.025852 -0.766515
H24   H     H_    0.800271 0.696217 0.082485 0.278066
H25   H     H_    0.790640 0.525560 0.964169 0.250275
H26   H     H_    0.736689 0.635558 0.946027 0.242278
H27   H     H_    0.705110 0.497626 0.077545 0.223886
H28   H     H_    0.713735 0.668796 0.194838 0.230434
H29   H     H_    0.812163 0.634719 0.305510 0.227886
H30   H     H_    0.802003 0.464134 0.193369 0.219206

loop_
_geom_bond_atom_site_label_1
_geom_bond_atom_site_label_2
_geom_bond_distance
_ccdc_geom_bond_type
N4    C36   1.300067 D    
C40   C41   1.537176 S    
C15   C17   1.397111 A    
C2    C32   1.450457 S    
C31   H12   1.087595 S    
C25   H7    1.080532 S    
C37   C38   1.537255 S    
O5    C3    1.297205 A    
N6    O16   1.301470 A    
O1    C1    1.293113 A    
C7    C9    1.400146 A    
C12   C14   1.418514 A    
C20   C22   1.389296 A    
C18   N6    1.434079 S    
C31   C33   1.331077 D    
N4    H15   1.030740 S    
C32   C34   1.331076 D    
N3    H16   1.030741 S    
C22   C24   1.400349 A    
O4    Cu1   1.946904 S    
N2    C29   1.433881 S    
H13   C36   1.085159 S    
C38   H20   1.111890 S    
N3    C35   1.300066 D    
C40   H29   1.111873 S    
C11   C12   1.414525 A    
C42   H25   1.110642 S    
C19   C29   1.398464 A    
C32   H11   1.087595 S    
C26   H8    1.080538 S    
C9    C15   1.400694 A    
C37   H22   1.111824 S    
C33   C34   1.448731 S    
C10   C16   1.400701 A    
Cu1   Cu2   2.679843 S    
C21   H5    1.083070 S    
O2    C2    1.293113 A    
C22   H6    1.083040 S    
C28   C30   1.413081 A    
C24   C26   1.405141 A    
Cu1   N4    2.013148 S    
C23   C25   1.405162 A    
C6    C14   1.413524 A    
C41   H28   1.111898 S    
N6    O15   1.301157 A    
C35   C36   1.508214 S    
H14   C35   1.085159 S    
O4    C2    1.290053 A    
C7    O11   1.349922 S    
C39   H18   1.110890 S    
C38   C39   1.526317 S    
C25   C27   1.409324 A    
C15   H1    1.083753 S    
C27   C29   1.413115 A    
O7    Cu2   1.934579 S    
C27   C37   1.522862 S    
C20   C30   1.398407 A    
C26   C28   1.409338 A    
O6    C4    1.297263 A    
C40   H30   1.111824 S    
C42   H26   1.110176 S    
O7    C3    1.296325 A    
O3    Cu2   1.946904 S    
O8    C4    1.296286 A    
C4    C24   1.470151 S    
C8    C10   1.400125 A    
C37   H23   1.111876 S    
C9    C11   1.408413 A    
C10   C12   1.408420 A    
C3    C23   1.470076 S    
O1    Cu1   1.948407 S    
N5    O14   1.301411 A    
C13   C18   1.420096 A    
C5    N1    1.367318 A    
C41   H27   1.111816 S    
O6    Cu2   1.946087 S    
C28   C40   1.522751 S    
O3    C1    1.290054 A    
O8    Cu1   1.934584 S    
C39   H19   1.110161 S    
C5    O9    1.348167 S    
C6    O10   1.348196 S    
H10   C33   1.088172 S    
C1    C31   1.450456 S    
C16   C18   1.397087 A    
C8    O12   1.349937 S    
N5    O13   1.301156 A    
C19   H3    1.082703 S    
C20   H4    1.082650 S    
N1    C7    1.364638 A    
Cu2   N3    2.013147 S    
N2    C8    1.364655 A    
C11   C13   1.418503 A    
C19   C21   1.389301 A    
O2    Cu2   1.948407 S    
C5    C13   1.413546 A    
C39   H17   1.110666 S    
C38   H21   1.111828 S    
O5    Cu1   1.946087 S    
C41   C42   1.526232 S    
C16   H2    1.083765 S    
C14   C17   1.420098 A    
C6    N2    1.367303 A    
C21   C23   1.400295 A    
C42   H24   1.110881 S    
H9    C34   1.088171 S    
N1    C30   1.433874 S    
C17   N5    1.434145 S    
