data_mof_unit_34109.cif
_audit_creation_date              2012-12-11T16:01:20-0500
_audit_creation_method            fapswitch 2.2
_symmetry_space_group_name_H-M    P1
_symmetry_Int_Tables_number       1
_space_group_crystal_system       triclinic
_cell_length_a                    23.650906
_cell_length_b                    25.40486
_cell_length_c                    8.610192
_cell_angle_alpha                 90.0
_cell_angle_beta                  99.560113
_cell_angle_gamma                 90.018403
_cell_volume                      5101.56704743

loop_
_atom_site_label
_atom_site_type_symbol
_atom_type_description
_atom_site_fract_x
_atom_site_fract_y
_atom_site_fract_z
_atom_type_partial_charge
Ba1   Ba    Ba6+2 0.999910 0.463090 0.844860 1.599229
Ba2   Ba    Ba6+2 0.999910 0.536910 0.344860 1.601516
Ba3   Ba    Ba6+2 0.499910 0.963090 0.844860 1.601817
Ba4   Ba    Ba6+2 0.499910 0.036910 0.344860 1.601856
C1    C     C_3   0.051928 0.222767 0.686831 -0.140266
C2    C     C_3   0.061145 0.772099 0.203692 -0.126125
C3    C     C_3   0.561020 0.727891 0.703655 -0.126091
C4    C     C_3   0.561407 0.272012 0.203411 -0.126105
C5    C     C_R   0.875473 0.380555 0.129407 0.116334
C6    C     C_R   0.875664 0.619593 0.630663 0.117276
C7    C     C_R   0.375649 0.880431 0.130728 0.117096
C8    C     C_R   0.375784 0.119630 0.630641 0.117345
C9    C     C_R   0.829290 0.346383 0.074853 -0.119952
C10   C     C_R   0.829524 0.653819 0.576464 -0.110912
C11   C     C_R   0.329504 0.846197 0.076525 -0.111030
C12   C     C_R   0.329819 0.154014 0.576199 -0.110731
C13   C     C_R   0.816091 0.304058 0.168922 -0.011420
C14   C     C_R   0.815664 0.695581 0.671775 -0.010017
C15   C     C_R   0.315641 0.804437 0.171826 -0.009976
C16   C     C_R   0.316132 0.195901 0.671308 -0.010554
C17   C     C_R   0.847911 0.297999 0.321564 -0.132079
C18   C     C_R   0.847508 0.701674 0.824628 -0.138120
C19   C     C_R   0.347478 0.798339 0.324659 -0.138176
C20   C     C_R   0.347888 0.201917 0.824272 -0.137704
C21   C     C_R   0.892954 0.332916 0.377890 0.020888
C22   C     C_R   0.892925 0.667100 0.880652 0.015601
C23   C     C_R   0.392904 0.832920 0.380689 0.015604
C24   C     C_R   0.393121 0.167192 0.880541 0.015704
C25   C     C_R   0.174535 0.654466 0.110658 -0.013102
C26   C     C_R   0.175006 0.345886 0.610598 -0.000914
C27   C     C_R   0.674689 0.154347 0.110037 -0.013903
C28   C     C_R   0.674539 0.845540 0.610662 -0.013073
C29   C     C_R   0.127602 0.619755 0.057984 0.063674
C30   C     C_R   0.127599 0.380154 0.558797 0.067879
C31   C     C_R   0.627642 0.119716 0.057733 0.063294
C32   C     C_R   0.627604 0.880234 0.558002 0.063578
C33   C     C_R   0.106045 0.669260 0.812484 0.012320
C34   C     C_R   0.105727 0.330445 0.314152 0.017647
C35   C     C_R   0.606056 0.169185 0.812127 0.012150
C36   C     C_R   0.606019 0.830711 0.312516 0.012301
C37   C     C_R   0.149880 0.705266 0.867644 -0.138900
C38   C     C_R   0.150032 0.294834 0.368243 -0.125265
C39   C     C_R   0.650015 0.205073 0.866893 -0.138374
C40   C     C_R   0.649861 0.794724 0.367652 -0.138857
C41   C     C_R   0.183965 0.698969 0.016928 0.014962
C42   C     C_R   0.184670 0.301552 0.516505 0.044007
C43   C     C_R   0.684200 0.198732 0.015929 0.015310
C44   C     C_R   0.683967 0.801033 0.516931 0.015018
C45   C     C_3   0.988734 0.252864 0.092646 0.499864
C46   C     C_3   0.990598 0.749624 0.606873 0.501298
C47   C     C_3   0.490486 0.750371 0.106851 0.501350
C48   C     C_3   0.490759 0.249727 0.606596 0.501521
C49   C     C_1   0.230003 0.737160 0.068192 -0.004699
C50   C     C_1   0.230880 0.263497 0.567372 0.007710
C51   C     C_1   0.730396 0.236796 0.066422 -0.003704
C52   C     C_1   0.730018 0.762852 0.568186 -0.004723
C53   C     C_1   0.769141 0.267772 0.111552 -0.013587
C54   C     C_1   0.768698 0.731859 0.614020 -0.012932
C55   C     C_1   0.268680 0.768158 0.114054 -0.012938
C56   C     C_1   0.269437 0.232401 0.613253 -0.015693
C57   C     C_R   0.093635 0.628410 0.910666 -0.285492
C58   C     C_R   0.093135 0.371074 0.412574 -0.289056
C59   C     C_R   0.593616 0.128384 0.910476 -0.285628
C60   C     C_R   0.593628 0.871556 0.410708 -0.285517
C61   C     C_3   0.972757 0.196743 0.025235 -0.193337
C62   C     C_3   0.981714 0.810148 0.575556 -0.193516
C63   C     C_3   0.481552 0.689848 0.075518 -0.193496
C64   C     C_3   0.482060 0.310274 0.575402 -0.193239
C65   C     C_3   0.181680 0.478034 0.289318 0.347014
C66   C     C_3   0.181482 0.522283 0.788317 0.348517
C67   C     C_3   0.681449 0.977679 0.288087 0.347913
C68   C     C_3   0.681466 0.022338 0.788069 0.347716
C69   C     C_3   0.240613 0.477869 0.397647 -0.158671
C70   C     C_3   0.240143 0.522347 0.897862 -0.158780
C71   C     C_3   0.740208 0.977366 0.397236 -0.159249
C72   C     C_3   0.740199 0.022704 0.897336 -0.159340
C73   C     C_3   0.819227 0.532626 0.014245 0.322022
C74   C     C_3   0.818945 0.467458 0.514718 0.321431
C75   C     C_3   0.319291 0.032704 0.014337 0.321531
C76   C     C_3   0.319204 0.967338 0.514326 0.321568
C77   C     C_3   0.771623 0.550751 0.106520 -0.200986
C78   C     C_3   0.770886 0.449691 0.606144 -0.199938
C79   C     C_3   0.271670 0.050881 0.106527 -0.200320
C80   C     C_3   0.271609 0.949164 0.606635 -0.200857
C81   C     C_3   0.022318 0.276361 0.664878 0.335754
C82   C     C_3   0.026678 0.720996 0.167790 0.375733
C83   C     C_3   0.526597 0.778999 0.667781 0.375714
C84   C     C_3   0.526859 0.220951 0.167523 0.375741
C85   C     C_R   0.908090 0.372354 0.278883 -0.237130
C86   C     C_R   0.907958 0.627589 0.781033 -0.240007
C87   C     C_R   0.407951 0.872441 0.281089 -0.239965
C88   C     C_R   0.408062 0.127592 0.781062 -0.239991
H1    H     H_    0.035233 0.300503 0.771665 0.114918
H2    H     H_    0.037124 0.694552 0.270406 0.105326
H3    H     H_    0.537071 0.805443 0.770402 0.105335
H4    H     H_    0.537342 0.194471 0.270038 0.105321
H5    H     H_    0.244839 0.514475 0.468033 0.107175
H6    H     H_    0.243944 0.485776 0.968414 0.107910
H7    H     H_    0.744273 0.013843 0.468191 0.107959
H8    H     H_    0.744261 0.986216 0.968240 0.107980
H9    H     H_    0.243025 0.444066 0.480397 0.080273
H10   H     H_    0.242461 0.556231 0.980300 0.081896
H11   H     H_    0.742472 0.943412 0.479409 0.081557
H12   H     H_    0.742415 0.056649 0.979532 0.081946
H13   H     H_    0.861672 0.547456 0.072111 0.086083
H14   H     H_    0.861216 0.452676 0.573840 0.088064
H15   H     H_    0.361739 0.047488 0.072314 0.086332
H16   H     H_    0.361648 0.952537 0.572199 0.086114
H17   H     H_    0.732532 0.526332 0.071561 0.115621
H18   H     H_    0.732560 0.475213 0.573245 0.116437
H19   H     H_    0.232594 0.026434 0.071676 0.115719
H20   H     H_    0.232532 0.973590 0.571821 0.115755
H21   H     H_    0.786643 0.544228 0.232367 0.154431
H22   H     H_    0.786220 0.455002 0.732494 0.153393
H23   H     H_    0.286683 0.044448 0.232453 0.153875
H24   H     H_    0.286656 0.955624 0.732527 0.154036
H25   H     H_    0.037543 0.296646 0.566029 0.000069
H26   H     H_    0.041519 0.701571 0.067248 -0.026910
H27   H     H_    0.541450 0.798419 0.567238 -0.026904
H28   H     H_    0.541597 0.201541 0.066819 -0.027160
H29   H     H_    0.040443 0.202203 0.790492 0.108742
H30   H     H_    0.107378 0.762699 0.209607 0.075895
H31   H     H_    0.607260 0.737284 0.709562 0.075893
H32   H     H_    0.607620 0.262557 0.209195 0.075879
H33   H     H_    0.011683 0.171462 0.044916 0.109668
H34   H     H_    0.959944 0.828807 0.666562 0.080716
H35   H     H_    0.459761 0.671194 0.166511 0.080626
H36   H     H_    0.460308 0.328973 0.666383 0.080397
H37   H     H_    0.836875 0.267056 0.397773 0.078685
H38   H     H_    0.836405 0.732564 0.900881 0.075435
H39   H     H_    0.336363 0.767440 0.400888 0.075406
H40   H     H_    0.336882 0.232895 0.900379 0.075153
H41   H     H_    0.158567 0.737282 0.791870 0.078493
H42   H     H_    0.158846 0.262978 0.292086 0.075223
H43   H     H_    0.658749 0.237016 0.790913 0.078751
H44   H     H_    0.658538 0.762715 0.291860 0.078486
H45   H     H_    0.803186 0.353371 0.960939 0.082641
H46   H     H_    0.803640 0.647070 0.462100 0.079621
H47   H     H_    0.303621 0.852938 0.962162 0.079463
H48   H     H_    0.303970 0.147328 0.461751 0.079368
H49   H     H_    0.941970 0.399678 0.323963 0.061990
H50   H     H_    0.941922 0.600330 0.825761 0.062294
H51   H     H_    0.441928 0.899707 0.325819 0.062328
H52   H     H_    0.441910 0.100239 0.825952 0.062279
H53   H     H_    0.059843 0.600853 0.866774 0.068243
H54   H     H_    0.059071 0.398396 0.369113 0.068530
H55   H     H_    0.559745 0.100882 0.866780 0.068362
H56   H     H_    0.559838 0.899097 0.366836 0.068066
H57   H     H_    0.037422 0.197865 0.581804 0.101015
H58   H     H_    0.056104 0.788262 0.319970 0.125482
H59   H     H_    0.555968 0.711729 0.819929 0.125487
H60   H     H_    0.556429 0.288173 0.319739 0.125593
H61   H     H_    0.958712 0.199975 0.895933 0.125922
H62   H     H_    0.024459 0.829338 0.586001 0.115230
H63   H     H_    0.524281 0.670652 0.085972 0.115173
H64   H     H_    0.524864 0.329360 0.585994 0.115119
H65   H     H_    0.148092 0.480510 0.365152 0.032359
H66   H     H_    0.147585 0.520107 0.863266 0.031225
H67   H     H_    0.647657 0.979887 0.363354 0.031300
H68   H     H_    0.647654 0.020136 0.863280 0.031437
O1    O     O_2   0.888900 0.426190 0.854560 -0.465540
O2    O     O_2   0.888900 0.573810 0.354560 -0.464452
O3    O     O_2   0.388900 0.926190 0.854560 -0.464788
O4    O     O_2   0.388900 0.073810 0.354560 -0.465031
O5    O     O_3   0.179572 0.480177 0.683053 -0.657838
O6    O     O_3   0.179618 0.519918 0.183249 -0.656918
O7    O     O_3   0.679631 0.980110 0.683259 -0.656699
O8    O     O_3   0.679594 0.019877 0.183171 -0.656702
O9    O     O_3   0.041444 0.266353 0.043777 -0.624701
O10   O     O_3   0.039328 0.733497 0.541615 -0.616952
O11   O     O_3   0.539228 0.766493 0.041593 -0.616919
O12   O     O_3   0.539428 0.233483 0.541250 -0.616965
O13   O     O_3   0.064650 0.525760 0.074400 -0.478339
O14   O     O_3   0.064650 0.474240 0.574400 -0.478683
O15   O     O_3   0.564650 0.025760 0.074400 -0.478681
O16   O     O_3   0.564650 0.974240 0.574400 -0.478729
O17   O     O_3   0.935290 0.474120 0.115310 -0.492667
O18   O     O_3   0.935290 0.525880 0.615310 -0.493559
O19   O     O_3   0.435290 0.974120 0.115310 -0.493532
O20   O     O_3   0.435290 0.025880 0.615310 -0.493541
O21   O     O_3   0.980700 0.380570 0.633410 -0.489379
O22   O     O_3   0.980700 0.619430 0.133410 -0.487304
O23   O     O_3   0.480700 0.880570 0.633410 -0.487353
O24   O     O_3   0.480700 0.119430 0.133410 -0.487316
O25   O     O_2   0.885547 0.337303 0.697462 -0.501766
O26   O     O_2   0.888578 0.665122 0.204375 -0.498975
O27   O     O_2   0.388539 0.834898 0.704382 -0.498947
O28   O     O_2   0.388618 0.165223 0.204204 -0.499188
O29   O     O_3   0.817038 0.477298 0.003109 -0.663889
O30   O     O_3   0.816959 0.522774 0.502718 -0.665101
O31   O     O_3   0.317059 0.977366 0.003131 -0.664638
O32   O     O_3   0.317019 0.022674 0.503207 -0.664594
O33   O     O_3   0.962342 0.269635 0.636264 -0.638680
O34   O     O_3   0.967039 0.730412 0.135867 -0.631176
O35   O     O_3   0.466950 0.769592 0.635876 -0.631207
O36   O     O_3   0.467227 0.230428 0.135942 -0.631249
O37   O     O_2   0.110790 0.425640 0.834940 -0.471659
O38   O     O_2   0.110790 0.574360 0.334940 -0.474428
O39   O     O_2   0.610790 0.925640 0.834940 -0.474372
O40   O     O_2   0.610790 0.074360 0.334940 -0.474262
O41   O     O_3   0.018840 0.380480 0.055970 -0.461056
O42   O     O_3   0.018840 0.619520 0.555970 -0.454035
O43   O     O_3   0.518840 0.880480 0.055970 -0.454196
O44   O     O_3   0.518840 0.119520 0.555970 -0.454277
O45   O     O_2   0.114733 0.337730 0.001046 -0.507230
O46   O     O_2   0.113845 0.663006 0.498138 -0.510168
O47   O     O_2   0.613806 0.836968 0.998147 -0.510192
O48   O     O_2   0.613856 0.162894 0.497885 -0.509972
P1    P     P_3+3 0.883430 0.443490 0.026090 0.968323
P2    P     P_3+3 0.883430 0.556510 0.526090 0.970322
P3    P     P_3+3 0.383430 0.943490 0.026090 0.970348
P4    P     P_3+3 0.383430 0.056510 0.526090 0.970139
P5    P     P_3+3 0.116320 0.442910 0.663460 0.966075
P6    P     P_3+3 0.116320 0.557090 0.163460 0.964796
P7    P     P_3+3 0.616320 0.942910 0.663460 0.964789
P8    P     P_3+3 0.616320 0.057090 0.163460 0.964924
P9    P     P_3+3 0.068690 0.329012 0.106577 0.921471
P10   P     P_3+3 0.068198 0.671314 0.605139 0.930550
P11   P     P_3+3 0.568153 0.828670 0.105154 0.930370
P12   P     P_3+3 0.568218 0.171283 0.604869 0.930663
P13   P     P_3+3 0.931238 0.670371 0.087177 0.912738
P14   P     P_3+3 0.929692 0.330713 0.585007 0.901716
P15   P     P_3+3 0.431337 0.170435 0.087145 0.912587
P16   P     P_3+3 0.431200 0.829636 0.587199 0.912742
C89   C     C_3   0.291985 0.475356 0.310777 -0.424464
H69   H     H_    0.332177 0.475570 0.398240 0.113485
H70   H     H_    0.291267 0.438725 0.240321 0.120084
H71   H     H_    0.292589 0.510182 0.233383 0.144668
C90   C     C_3   0.291859 0.524576 0.812265 -0.424929
H72   H     H_    0.331844 0.524145 0.900501 0.113572
H73   H     H_    0.292443 0.489762 0.734812 0.144682
H74   H     H_    0.291600 0.561214 0.742021 0.120557
C91   C     C_3   0.791797 0.975106 0.311146 -0.424279
H75   H     H_    0.831860 0.975297 0.399102 0.113884
H76   H     H_    0.791287 0.938572 0.240329 0.120360
H77   H     H_    0.792467 0.010036 0.234174 0.144929
C92   C     C_3   0.791820 0.025055 0.811396 -0.424498
H78   H     H_    0.831860 0.024895 0.899446 0.112931
H79   H     H_    0.792530 0.990152 0.734340 0.144877
H80   H     H_    0.791305 0.061611 0.740677 0.121236
C93   C     C_3   0.806167 0.553523 0.848379 -0.342814
H81   H     H_    0.762966 0.540990 0.789217 0.112902
H82   H     H_    0.807312 0.596824 0.846996 0.058031
H83   H     H_    0.839340 0.537338 0.787137 0.087664
C94   C     C_3   0.806558 0.446246 0.349086 -0.340565
H84   H     H_    0.763508 0.458634 0.288443 0.113162
H85   H     H_    0.840021 0.462326 0.288597 0.086489
H86   H     H_    0.807784 0.402934 0.348618 0.057484
C95   C     C_3   0.306326 0.053647 0.848495 -0.342934
H87   H     H_    0.263157 0.041113 0.789032 0.113212
H88   H     H_    0.307471 0.096953 0.847175 0.057905
H89   H     H_    0.339571 0.037491 0.787469 0.087619
C96   C     C_3   0.306165 0.946419 0.348456 -0.342942
H90   H     H_    0.263002 0.958981 0.289098 0.113283
H91   H     H_    0.339410 0.962555 0.287348 0.087598
H92   H     H_    0.307254 0.903117 0.347090 0.058137
C97   C     C_3   0.753987 0.608750 0.088405 -0.475155
H93   H     H_    0.727815 0.619297 0.179639 0.129568
H94   H     H_    0.792018 0.634613 0.102668 0.171965
H95   H     H_    0.727458 0.615877 0.971294 0.130628
C98   C     C_3   0.751173 0.392301 0.583932 -0.475035
H96   H     H_    0.724218 0.382059 0.673605 0.129341
H97   H     H_    0.724799 0.386529 0.465876 0.130546
H98   H     H_    0.788176 0.365239 0.597687 0.173751
C99   C     C_3   0.253987 0.108869 0.088096 -0.475541
H99   H     H_    0.227783 0.119451 0.179224 0.129616
H100  H     H_    0.291999 0.134758 0.102318 0.171898
H101  H     H_    0.227472 0.115932 0.970920 0.129333
C100  C     C_3   0.253924 0.891169 0.588336 -0.475138
H102  H     H_    0.227754 0.880589 0.679561 0.129525
H103  H     H_    0.227374 0.884081 0.471220 0.130680
H104  H     H_    0.291933 0.865302 0.602487 0.171875
N1    N     N_3   0.114005 0.229130 0.707544 -0.520777
H105  H     H_    0.132358 0.191593 0.713125 0.176322
H106  H     H_    0.127810 0.246783 0.817035 0.211200
N2    N     N_3   0.044608 0.811908 0.082526 -0.512426
H107  H     H_    0.003989 0.826247 0.092940 0.199611
H108  H     H_    0.072970 0.843578 0.106491 0.171602
N3    N     N_3   0.544446 0.688085 0.582477 -0.512490
H109  H     H_    0.503808 0.673760 0.592852 0.199573
H110  H     H_    0.572767 0.656406 0.606430 0.171545
N4    N     N_3   0.544897 0.311850 0.082323 -0.512522
H111  H     H_    0.504246 0.326162 0.092618 0.199548
H112  H     H_    0.573241 0.343535 0.106470 0.171554
C101  C     C_3   0.216147 0.641917 0.259478 -0.386663
H113  H     H_    0.250165 0.671913 0.289734 0.101736
H114  H     H_    0.193494 0.639101 0.361249 0.165358
H115  H     H_    0.237962 0.604047 0.245310 0.115602
C102  C     C_3   0.216634 0.358560 0.759268 -0.390474
H116  H     H_    0.250837 0.328735 0.789146 0.100537
H117  H     H_    0.238202 0.396572 0.745239 0.114076
H118  H     H_    0.194009 0.361103 0.861175 0.166528
C103  C     C_3   0.716296 0.141855 0.258900 -0.386057
H119  H     H_    0.750373 0.171816 0.288854 0.102422
H120  H     H_    0.693636 0.139195 0.360710 0.165022
H121  H     H_    0.738034 0.103926 0.245017 0.116194
C104  C     C_3   0.716145 0.858107 0.759490 -0.386653
H122  H     H_    0.750173 0.828138 0.789701 0.101752
H123  H     H_    0.737945 0.896002 0.745371 0.115739
H124  H     H_    0.693485 0.860884 0.861256 0.165297
N5    N     N_3   0.944378 0.290652 0.027890 -0.480308
H125  H     H_    0.903981 0.273166 0.013059 0.151484
H126  H     H_    0.951323 0.301447 0.916223 0.237586
N6    N     N_3   0.940440 0.719350 0.535576 -0.472350
H127  H     H_    0.903631 0.737915 0.560574 0.141183
H128  H     H_    0.938197 0.719976 0.413965 0.236833
N7    N     N_3   0.440352 0.780649 0.035566 -0.472356
H129  H     H_    0.403528 0.762082 0.060540 0.141179
H130  H     H_    0.438111 0.780028 0.913955 0.236826
N8    N     N_3   0.440507 0.219588 0.535257 -0.472333
H131  H     H_    0.403760 0.238302 0.560093 0.140866
H132  H     H_    0.438297 0.220172 0.413654 0.236934
C105  C     C_3   0.995137 0.252613 0.272765 -0.271940
H133  H     H_    0.956578 0.236867 0.314211 0.090183
H134  H     H_    0.033347 0.229278 0.324025 0.076464
H135  H     H_    0.999579 0.293492 0.316413 0.037184
C106  C     C_3   0.999144 0.742046 0.785329 -0.310553
H136  H     H_    0.041223 0.758637 0.838236 0.111249
H137  H     H_    0.964581 0.761539 0.837091 0.099988
H138  H     H_    0.997293 0.699784 0.814297 0.044785
C107  C     C_3   0.499040 0.757950 0.285310 -0.310553
H139  H     H_    0.464463 0.738460 0.337072 0.099958
H140  H     H_    0.541108 0.741358 0.338208 0.111235
H141  H     H_    0.497222 0.800213 0.314289 0.044767
C108  C     C_3   0.499289 0.242117 0.785038 -0.310640
H142  H     H_    0.541411 0.258618 0.837964 0.111126
H143  H     H_    0.464777 0.261674 0.836852 0.099775
H144  H     H_    0.497337 0.199856 0.813924 0.044897
C109  C     C_3   0.925264 0.167479 0.092189 -0.489739
H145  H     H_    0.886761 0.192350 0.092282 0.138852
H146  H     H_    0.912155 0.132220 0.018705 0.136051
H147  H     H_    0.941298 0.153512 0.213689 0.134602
C110  C     C_3   0.946203 0.825406 0.416748 -0.453492
H148  H     H_    0.961583 0.805210 0.318815 0.178505
H149  H     H_    0.900266 0.815687 0.413688 0.130521
H150  H     H_    0.949489 0.868517 0.398882 0.120414
C111  C     C_3   0.446034 0.674591 0.916697 -0.453549
H151  H     H_    0.461435 0.694787 0.818777 0.178522
H152  H     H_    0.449287 0.631481 0.898818 0.120306
H153  H     H_    0.400104 0.684314 0.913626 0.130506
C112  C     C_3   0.446643 0.325627 0.416553 -0.453709
H154  H     H_    0.461961 0.305353 0.318656 0.178589
H155  H     H_    0.400663 0.316069 0.413415 0.129793
H156  H     H_    0.450109 0.368722 0.398698 0.120287
C113  C     C_3   0.172885 0.427722 0.193855 -0.301880
H157  H     H_    0.126811 0.425180 0.144197 0.139129
H158  H     H_    0.197309 0.427841 0.094889 0.113913
H159  H     H_    0.187361 0.393235 0.268226 0.036257
C114  C     C_3   0.173277 0.572489 0.692027 -0.305844
H160  H     H_    0.127291 0.575339 0.641724 0.139675
H161  H     H_    0.187948 0.607044 0.765956 0.042459
H162  H     H_    0.197890 0.571986 0.593503 0.112873
C115  C     C_3   0.672967 0.927580 0.191346 -0.304872
H163  H     H_    0.626928 0.924824 0.141520 0.139687
H164  H     H_    0.697423 0.928156 0.092488 0.113236
H165  H     H_    0.687668 0.892939 0.264807 0.042338
C116  C     C_3   0.673006 0.072407 0.691218 -0.304841
H166  H     H_    0.626964 0.075146 0.641433 0.139624
H167  H     H_    0.687743 0.107063 0.764593 0.042968
H168  H     H_    0.697446 0.071809 0.592337 0.113412

loop_
_geom_bond_atom_site_label_1
_geom_bond_atom_site_label_2
_ccdc_geom_bond_type
C72   H12   S    
C116  H166  S    
C109  H146  S    
C84   O36   S    
Ba2   O42   S    
C111  H151  S    
C110  H148  S    
N4    H111  S    
C80   H20   S    
C32   P7    S    
O27   P16   D    
Ba3   P7    S    
C25   C29   A    
C89   H71   S    
C1    H57   S    
C5    C9    A    
C65   O6    S    
C7    C11   A    
C14   C54   S    
C8    C12   A    
O23   P16   S    
C66   C70   S    
C91   H76   S    
O40   P8    D    
Ba2   O17   S    
C31   P8    S    
C64   H36   S    
C109  H145  S    
C69   H9    S    
C75   O31   S    
C94   H84   S    
C18   H38   S    
C71   H11   S    
C76   O32   S    
C33   P10   S    
C3    N3    S    
C115  H164  S    
C11   H47   S    
C9    H45   S    
N8    H132  S    
Ba2   P2    S    
C79   C99   S    
Ba1   O21   S    
O2    P2    D    
N5    H125  S    
C13   C17   A    
C25   C41   A    
C72   C92   S    
C106  H138  S    
C15   C19   A    
C90   H72   S    
C74   C78   S    
C12   C16   A    
C78   C98   S    
C113  H159  S    
C81   H25   S    
C78   H22   S    
O33   P14   S    
O26   P13   D    
Ba2   P6    S    
C116  H168  S    
C51   C53   T    
C1    N1    S    
Ba4   O19   S    
O38   P6    D    
C111  H153  S    
C96   H91   S    
C110  H150  S    
O22   P13   S    
C3    H31   S    
C30   P5    S    
C22   C86   A    
C74   H14   S    
C38   H42   S    
O14   P5    S    
O15   P8    S    
O30   P2    S    
C83   O35   S    
C101  H114  S    
O4    P4    D    
C27   C31   A    
C48   N8    S    
N3    H110  S    
C7    C87   A    
Ba3   O16   S    
C29   C57   A    
C107  H139  S    
C94   H86   S    
C97   H94   S    
C37   C41   A    
C31   C59   A    
N7    H130  S    
C32   C60   A    
C39   C43   A    
C40   C44   A    
O31   P3    S    
C34   C58   A    
C75   C79   S    
C114  H160  S    
Ba4   P8    S    
O7    P7    S    
C74   C94   S    
C37   H41   S    
C70   H6    S    
Ba1   O13   S    
C95   H87   S    
C80   C100  S    
C73   C93   S    
C28   C32   A    
C4    H60   S    
C90   H74   S    
C96   H90   S    
C105  H134  S    
O18   P2    S    
C97   H93   S    
C108  H143  S    
O32   P4    S    
C61   H61   S    
C81   H1    S    
C6    P2    S    
Ba4   O15   S    
C83   H3    S    
C65   H65   S    
C23   C87   A    
C2    N2    S    
C91   H75   S    
O12   P12   S    
C1    C81   S    
N6    H128  S    
C41   C49   S    
C80   H24   S    
C92   H78   S    
C60   H56   S    
C104  H123  S    
C12   H48   S    
C70   C90   S    
C59   H55   S    
C89   H69   S    
C87   H51   S    
C112  H155  S    
Ba3   P3    S    
C26   C30   A    
Ba1   P1    S    
C79   H23   S    
C72   H8    S    
C46   N6    S    
C6    C10   A    
C66   O5    S    
C15   C55   S    
C62   H34   S    
C4    C84   S    
Ba3   O20   S    
C83   H27   S    
C103  H119  S    
C4    N4    S    
Ba1   O18   S    
C107  H141  S    
C71   H7    S    
C102  H116  S    
O16   P7    S    
C19   H39   S    
C21   P14   S    
C47   C63   S    
C99   H100  S    
C17   H37   S    
O5    P5    S    
C114  H162  S    
C18   C22   A    
C16   C56   S    
Ba3   Ba4   S    
C61   C109  S    
C17   C21   A    
C95   H89   S    
C25   C101  S    
C14   C18   A    
C26   C42   A    
Ba1   O37   S    
C20   C24   A    
C96   H92   S    
C76   H16   S    
N4    H112  S    
C2    C82   S    
C9    C13   A    
C97   H95   S    
C73   O29   S    
O42   P10   S    
C45   N5    S    
C82   O34   S    
C89   H70   S    
C52   C54   T    
C33   C37   A    
C91   H77   S    
O28   P15   D    
C36   C40   A    
C66   C114  S    
N2    H107  S    
C58   H54   S    
C92   H80   S    
Ba3   O23   S    
O11   P11   S    
C40   H44   S    
O24   P15   S    
O9    P9    S    
C84   H4    S    
Ba3   O43   S    
C76   C80   S    
Ba1   O41   S    
C115  H163  S    
C11   C15   A    
O44   P12   S    
C103  H121  S    
Ba2   O13   S    
O35   P16   S    
C30   C58   A    
C102  H118  S    
C63   H63   S    
C38   C42   A    
C106  H137  S    
C57   H53   S    
C26   C102  S    
C3    C83   S    
C10   H46   S    
N3    H109  S    
C65   C69   S    
C84   H28   S    
Ba3   O3    S    
C70   H10   S    
N5    H126  S    
Ba1   O1    S    
C116  H167  S    
C27   C43   A    
C100  H102  S    
C28   C44   A    
C34   P9    S    
C48   O12   S    
C111  H152  S    
C8    C88   A    
C110  H149  S    
C76   C96   S    
N7    H129  S    
C5    C85   A    
C62   H62   S    
C100  H103  S    
C4    H32   S    
O1    P1    D    
C66   H66   S    
C101  H113  S    
C98   H98   S    
C20   H40   S    
C73   C77   S    
O45   P9    D    
C42   C50   S    
C75   H15   S    
C46   O10   S    
C86   H50   S    
O34   P13   S    
C3    H59   S    
Ba3   O15   S    
C77   H17   S    
O25   P14   D    
C94   H85   S    
C36   P11   S    
Ba1   P5    S    
O39   P7    D    
C68   C116  S    
C115  H165  S    
O37   P5    D    
N8    H131  S    
O21   P14   S    
O47   P11   D    
C36   C60   A    
C29   P6    S    
C63   C111  S    
C21   C85   A    
C93   H83   S    
C73   H13   S    
O13   P6    S    
C90   H73   S    
O29   P1    S    
C45   O9    S    
C64   C112  S    
O8    P8    S    
C105  H133  S    
C98   H96   S    
C65   C113  S    
C67   C115  S    
C108  H142  S    
O36   P15   S    
C2    H58   S    
C6    C86   A    
Ba4   O16   S    
C100  H104  S    
C77   H21   S    
C27   C103  S    
C13   C53   S    
O48   P12   D    
C67   C71   S    
O19   P3    S    
C104  H122  S    
C10   C14   A    
C74   O30   S    
C68   C72   S    
C49   C55   T    
C50   C56   T    
C112  H154  S    
O46   P10   D    
C69   H5    S    
C23   P16   S    
C45   C61   S    
C78   H18   S    
C93   H81   S    
C101  H115  S    
Ba4   O44   S    
C1    H29   S    
O20   P4    S    
Ba1   Ba2   S    
Ba2   O22   S    
O17   P1    S    
C62   C110  S    
C82   H2    S    
C7    P3    S    
C16   C20   A    
C5    P1    S    
C107  H140  S    
Ba3   O39   S    
Ba4   O4    S    
N1    H106  S    
C19   C23   A    
C99   H99   S    
C48   C64   S    
C114  H161  S    
C68   O7    S    
C75   C95   S    
Ba1   O14   S    
C95   H88   S    
C35   P12   S    
C8    P4    S    
C82   H26   S    
C98   H97   S    
C46   C106  S    
O3    P3    D    
C105  H135  S    
C35   C39   A    
C104  H124  S    
C93   H82   S    
C61   H33   S    
C108  H144  S    
C67   H67   S    
C63   H35   S    
Ba4   O40   S    
C22   P13   S    
N1    H105  S    
C24   C88   A    
Ba4   O24   S    
C39   H43   S    
C46   C62   S    
O6    P6    S    
C47   N7    S    
N6    H127  S    
N2    H108  S    
C67   O8    S    
C92   H79   S    
C109  H147  S    
C2    H30   S    
C45   C105  S    
C43   C51   S    
C47   C107  S    
C112  H156  S    
C44   C52   S    
C48   C108  S    
Ba2   O38   S    
C64   H64   S    
C33   C57   A    
C28   C104  S    
C35   C59   A    
C77   C97   S    
C68   H68   S    
O43   P11   S    
C47   O11   S    
O41   P9    S    
C103  H120  S    
Ba2   O14   S    
C69   C89   S    
C81   O33   S    
C113  H158  S    
C24   P15   S    
C85   H49   S    
Ba4   P4    S    
C102  H117  S    
C71   C91   S    
C79   H19   S    
C106  H136  S    
C88   H52   S    
C99   H101  S    
C34   C38   A    
C113  H157  S    
Ba2   O2    S    
O10   P10   S    
