data_mof_unit_35991.cif
_audit_creation_date              2012-12-10T17:15:50-0500
_audit_creation_method            fapswitch 2.2
_symmetry_space_group_name_H-M    P1
_symmetry_Int_Tables_number       1
_space_group_crystal_system       triclinic
_cell_length_a                    10.136424
_cell_length_b                    10.564888
_cell_length_c                    10.655979
_cell_angle_alpha                 89.540043
_cell_angle_beta                  94.379323
_cell_angle_gamma                 81.257327
_cell_volume                      1124.37543793

loop_
_atom_site_label
_atom_site_type_symbol
_atom_type_description
_atom_site_fract_x
_atom_site_fract_y
_atom_site_fract_z
_atom_type_partial_charge
C1    C     C_R   0.444960 0.500948 0.266856 0.989125
C2    C     C_R   0.638016 0.046011 0.545470 0.027387
C3    C     C_R   0.518915 0.128626 0.567174 -0.153048
C4    C     C_R   0.403172 0.077432 0.591537 -0.066390
C5    C     C_R   0.397591 0.951574 0.560071 -0.239368
C6    C     C_R   0.504617 0.878012 0.505518 -0.140784
C7    C     C_2   0.415400 0.486384 0.133508 -0.435314
C8    C     C_2   0.498734 0.407498 0.066266 -0.036747
C9    C     C_2   0.583089 0.458333 0.867420 -0.253624
C10   C     C_2   0.483269 0.428188 0.931572 -0.155679
C11   C     C_2   0.069610 0.496177 0.485729 -0.142580
C12   C     C_R   0.506886 0.262567 0.527441 0.956039
C13   C     C_2   0.922100 0.520763 0.500539 -0.063740
C14   C     C_R   0.555012 0.487803 0.734031 0.942247
C15   C     C_R   0.499668 0.742234 0.495114 0.875334
C16   C     C_R   0.768511 0.079705 0.568577 -0.025715
C17   C     C_R   0.874588 0.013171 0.507064 -0.157076
C18   C     C_R   0.853555 0.911700 0.429513 -0.189635
C19   C     C_R   0.730007 0.868529 0.421603 -0.161938
C20   C     C_R   0.624050 0.929018 0.489541 0.102153
H1    H     H_    0.879211 0.600893 0.554792 0.190638
H2    H     H_    0.973940 0.038910 0.519424 0.221330
H3    H     H_    0.934717 0.863133 0.379107 0.160188
H4    H     H_    0.718261 0.790053 0.359462 0.166861
H5    H     H_    0.309767 0.910478 0.580561 0.228468
H6    H     H_    0.382420 0.432082 0.887525 0.208638
N1    N     N_2   0.157290 0.551390 0.551110 -0.161954
N2    N     N_2   0.842740 0.448550 0.448960 -0.189943
O1    O     O_R   0.568950 0.489660 0.307530 -0.600077
O2    O     O_R   0.348880 0.522640 0.340350 -0.618108
O3    O     O_R   0.610060 0.300270 0.483590 -0.607099
O4    O     O_R   0.389990 0.333260 0.516410 -0.601659
O5    O     O_R   0.651120 0.477360 0.659650 -0.598891
O6    O     O_R   0.431050 0.510340 0.692470 -0.599517
O7    O     O_R   0.610010 0.666740 0.483590 -0.637204
O8    O     O_R   0.389940 0.699730 0.516410 -0.591027
Zn1   Zn    Zn3+2 0.646940 0.477980 0.478090 0.977092
Zn2   Zn    Zn3+2 0.353060 0.522020 0.521910 1.002859
C21   C     C_2   0.290911 0.150454 0.655182 0.977063
O9    O     O_2   0.178969 0.120637 0.641073 -0.616898
O10   O     O_R   0.313965 0.250367 0.735094 -0.794967
H7    H     H_    0.229544 0.292461 0.772511 0.349182
H8    H     H_    0.333167 0.552626 0.087013 0.159542
H9    H     H_    0.104733 0.432102 0.412139 0.166441
H10   H     H_    0.885313 0.372219 0.398441 0.191539
C22   C     C_2   0.122113 0.621781 0.660413 1.010599
O11   O     O_2   0.173519 0.716697 0.685749 -0.621497
O12   O     O_R   0.037914 0.577747 0.743602 -0.844217
H11   H     H_    0.023789 0.635104 0.818747 0.338578
C23   C     C_2   0.798286 0.174503 0.664936 0.955035
O13   O     O_2   0.726774 0.196353 0.752037 -0.614133
O14   O     O_R   0.909496 0.237060 0.657666 -0.762503
H12   H     H_    0.918985 0.299243 0.728593 0.365911
C24   C     C_2   0.598499 0.298910 0.121216 0.998258
O15   O     O_2   0.699203 0.261175 0.067647 -0.603874
O16   O     O_R   0.573259 0.234979 0.230103 -0.800016
H13   H     H_    0.646891 0.161423 0.256595 0.344041
H14   H     H_    0.683212 0.457938 0.911927 0.180675

loop_
_geom_bond_atom_site_label_1
_geom_bond_atom_site_label_2
_ccdc_geom_bond_type
C14   O6    A    
C23   O14   S    
C9    C14   S    
C13   N2    D    
C1    O2    A    
C7    H8    S    
C6    C20   A    
O10   H7    S    
C17   H2    S    
C4    C21   S    
C11   N1    D    
C10   H6    S    
C14   O5    A    
O8    Zn2   S    
C19   H4    S    
C13   H1    S    
C7    C8    D    
C21   O10   S    
C22   O11   D    
O14   H12   S    
C12   O4    A    
C11   C13   S    
C16   C17   A    
N2    Zn1   S    
C5    H5    S    
N1    C22   S    
C1    O1    A    
O12   H11   S    
O7    Zn1   S    
C16   C23   S    
C17   C18   A    
O4    Zn2   S    
C12   O3    A    
C5    C6    A    
C24   O16   S    
N2    H10   S    
N1    Zn2   S    
C8    C24   S    
C18   H3    S    
C22   O12   S    
O3    Zn1   S    
C15   O8    A    
C11   H9    S    
C2    C16   A    
O16   H13   S    
O2    Zn2   S    
C8    C10   S    
C9    H14   S    
C9    C10   D    
O1    Zn1   S    
C21   O9    D    
C15   O7    A    
C24   O15   D    
C18   C19   A    
C2    C3    A    
C3    C12   S    
C23   O13   D    
C6    C15   S    
C1    C7    S    
C2    C20   A    
O5    Zn1   S    
C3    C4    A    
C19   C20   A    
C4    C5    A    
O6    Zn2   S    
