data_mof_unit_5116.cif
_audit_creation_date              2012-12-10T17:47:06-0500
_audit_creation_method            fapswitch 2.2
_symmetry_space_group_name_H-M    P1
_symmetry_Int_Tables_number       1
_space_group_crystal_system       triclinic
_cell_length_a                    10.001496
_cell_length_b                    10.610457
_cell_length_c                    13.608709
_cell_angle_alpha                 92.253187
_cell_angle_beta                  83.340909
_cell_angle_gamma                 88.293324
_cell_volume                      1432.45216086

loop_
_atom_site_label
_atom_site_type_symbol
_atom_type_description
_atom_site_fract_x
_atom_site_fract_y
_atom_site_fract_z
_atom_type_partial_charge
C1    C     C_R   0.498729 0.739076 0.497807 0.875569
C2    C     C_R   0.554199 0.937517 0.566270 -0.171715
C3    C     C_R   0.559021 0.065950 0.564527 -0.200127
C4    C     C_R   0.476114 0.500056 0.685316 0.913875
C5    C     C_R   0.506422 0.127923 0.488814 -0.077133
C6    C     C_R   0.830552 0.628922 0.652381 -0.127851
C7    C     C_R   0.878230 0.658970 0.741659 -0.257510
C8    C     C_R   0.015052 0.649027 0.748059 -0.185738
C9    C     C_R   0.103512 0.625791 0.661130 0.038946
C10   C     C_R   0.056655 0.561928 0.577640 0.041463
C11   C     C_R   0.913066 0.562352 0.575928 0.142507
C12   C     C_1   0.458312 0.501590 0.789134 -0.131816
C13   C     C_R   0.944267 0.441125 0.425866 0.024638
C14   C     C_R   0.086299 0.443256 0.425912 -0.173870
C15   C     C_R   0.502180 0.260770 0.496620 0.872353
C16   C     C_R   0.523931 0.499678 0.314666 0.874253
C17   C     C_1   0.541706 0.501131 0.210949 -0.180009
C18   C     C_2   0.557941 0.504257 0.019278 -0.163374
C19   C     C_2   0.442002 0.504427 0.980989 -0.167556
C20   C     C_1   0.446292 0.503097 0.876995 0.018895
C21   C     C_1   0.553696 0.502676 0.123185 0.009566
C22   C     C_2   0.201377 0.725483 0.648440 0.483557
C23   C     C_R   0.397759 0.863830 0.333390 -0.189307
C24   C     C_2   0.896100 0.372223 0.341469 0.450681
C25   C     C_R   0.352044 0.927229 0.255194 -0.124627
C26   C     C_R   0.356909 0.058053 0.253514 -0.135417
C27   C     C_R   0.407575 0.125925 0.330003 -0.159024
C28   C     C_R   0.452814 0.063180 0.410548 0.105909
C29   C     C_R   0.447807 0.931387 0.412307 0.076968
C30   C     C_R   0.497155 0.871423 0.492150 -0.095088
H1    H     H_    0.345458 0.504226 0.026876 0.156654
H2    H     H_    0.322633 0.107017 0.192267 0.138433
H3    H     H_    0.412903 0.227078 0.324458 0.140941
H4    H     H_    0.600235 0.117581 0.623811 0.152156
H5    H     H_    0.197501 0.787503 0.587224 0.065473
H6    H     H_    0.949706 0.378872 0.267888 0.012446
H7    H     H_    0.730706 0.662067 0.644179 0.197479
H8    H     H_    0.810806 0.700861 0.803056 0.165118
H9    H     H_    0.050959 0.688940 0.814355 0.180802
H10   H     H_    0.152047 0.395645 0.366136 0.140006
H11   H     H_    0.654506 0.504111 0.973374 0.160866
H12   H     H_    0.593436 0.889355 0.626273 0.150273
H13   H     H_    0.394890 0.762089 0.330446 0.150532
H14   H     H_    0.313960 0.874549 0.195247 0.141927
N1    N     N_R   0.857120 0.501200 0.500900 -0.122506
N2    N     N_R   0.142720 0.501280 0.500940 -0.114357
O1    O     O_R   0.385310 0.683220 0.500000 -0.641932
O2    O     O_2   0.803859 0.300026 0.353314 -0.535153
O3    O     O_R   0.614640 0.683250 0.500010 -0.638280
O4    O     O_R   0.368830 0.499960 0.640340 -0.587606
O5    O     O_R   0.598160 0.499980 0.640350 -0.642650
O6    O     O_R   0.385360 0.316750 0.499990 -0.622751
O7    O     O_R   0.614690 0.316780 0.500000 -0.548066
O8    O     O_R   0.401840 0.500020 0.359650 -0.637247
O9    O     O_R   0.631170 0.500040 0.359660 -0.576152
O10   O     O_2   0.277900 0.747394 0.710306 -0.607361
Zn1   Zn    Zn3+2 0.346870 0.499980 0.499990 0.948732
Zn2   Zn    Zn3+2 0.653130 0.500020 0.500010 0.983209

loop_
_geom_bond_atom_site_label_1
_geom_bond_atom_site_label_2
_ccdc_geom_bond_type
C10   N2    A    
O7    Zn2   S    
C26   H2    S    
C6    C7    A    
C8    H9    S    
O1    Zn1   S    
C18   C21   S    
C9    C10   A    
C19   C20   S    
C2    C30   A    
C19   H1    S    
C12   C20   T    
C15   O6    A    
C2    C3    A    
C16   O9    A    
C7    C8    A    
C14   N2    A    
O5    Zn2   S    
C13   C14   A    
C27   H3    S    
C13   N1    A    
C22   H5    S    
C26   C27   A    
C24   H6    S    
C1    O3    A    
C2    H12   S    
C23   C29   A    
C25   H14   S    
C1    C30   S    
C28   C29   A    
C7    H8    S    
C23   C25   A    
N2    Zn1   S    
C9    C22   S    
C6    H7    S    
C16   O8    A    
N1    Zn2   S    
C5    C15   S    
C11   N1    A    
C10   C11   A    
C4    O5    A    
C29   C30   A    
C5    C28   A    
C16   C17   S    
C15   O7    A    
C27   C28   A    
C23   H13   S    
C18   C19   D    
O6    Zn1   S    
O9    Zn2   S    
C6    C11   A    
C1    O1    A    
C22   O10   D    
C3    H4    S    
C25   C26   A    
C4    C12   S    
O4    Zn1   S    
C14   H10   S    
C17   C21   T    
O3    Zn2   S    
C18   H11   S    
C13   C24   S    
C4    O4    A    
C8    C9    A    
C3    C5    A    
O8    Zn1   S    
C24   O2    D    
