data_mof_unit_18085.cif
_audit_creation_date              2012-12-10T17:24:14-0500
_audit_creation_method            fapswitch 2.2
_symmetry_space_group_name_H-M    P1
_symmetry_Int_Tables_number       1
_space_group_crystal_system       triclinic
_cell_length_a                    19.41364
_cell_length_b                    10.890819
_cell_length_c                    9.685845
_cell_angle_alpha                 88.796006
_cell_angle_beta                  90.113249
_cell_angle_gamma                 96.849653
_cell_volume                      2032.8165638

loop_
_atom_site_label
_atom_site_type_symbol
_atom_type_description
_atom_site_fract_x
_atom_site_fract_y
_atom_site_fract_z
_atom_type_partial_charge
C1    C     C_R   0.502151 0.262378 0.502227 0.805439
C2    C     C_R   0.290525 0.504400 0.496419 -0.229305
C3    C     C_R   0.929452 0.490242 0.471778 0.480701
C4    C     C_R   0.069584 0.501093 0.479568 0.436900
C5    C     C_R   0.819430 0.468380 0.608561 0.296763
C6    C     C_R   0.745499 0.454241 0.615441 0.328970
C7    C     C_R   0.708030 0.486890 0.497218 -0.240344
C8    C     C_R   0.743150 0.515346 0.372219 -0.339716
C9    C     C_R   0.815044 0.522553 0.363315 0.409435
C10   C     C_R   0.853499 0.492752 0.480111 -0.192476
C11   C     C_R   0.508268 0.102703 0.764779 0.354782
C12   C     C_R   0.367261 0.500169 0.499447 0.817381
C13   C     C_R   0.476716 0.040488 0.882435 0.215869
C14   C     C_R   0.438927 0.923867 0.868801 0.416445
C15   C     C_R   0.434416 0.866513 0.740472 0.276075
C16   C     C_R   0.468487 0.927776 0.623388 -0.186803
C17   C     C_R   0.492688 0.054863 0.632134 -0.026734
C18   C     C_R   0.501967 0.126677 0.507344 -0.081353
C19   C     C_R   0.499610 0.066392 0.381228 -0.306572
C20   C     C_R   0.491520 0.937754 0.376252 0.363180
C21   C     C_R   0.481116 0.867321 0.498865 -0.112214
C22   C     C_R   0.579457 0.699090 0.136312 0.510174
C23   C     C_R   0.492985 0.735500 0.499193 0.844469
C24   C     C_R   0.595029 0.810499 0.063045 -0.418824
C25   C     C_R   0.590904 0.813100 0.921824 0.270964
C26   C     C_R   0.580315 0.700014 0.855374 0.504084
C27   C     C_R   0.539797 0.595970 0.922991 -0.064023
C28   C     C_R   0.539445 0.595967 0.072351 0.003724
C29   C     C_R   0.460675 0.411945 0.078081 0.475604
C30   C     C_R   0.459851 0.412242 0.929850 0.389124
C31   C     C_R   0.632039 0.494196 0.500031 0.900737
C32   C     C_R   0.251636 0.494418 0.620827 0.279207
C33   C     C_R   0.179378 0.501924 0.617150 0.374945
C34   C     C_R   0.145579 0.510697 0.488941 -0.133170
C35   C     C_R   0.184206 0.525465 0.367646 -0.358743
C36   C     C_R   0.255883 0.518010 0.368352 0.404155
Cu1   Cu    Cu3+1 0.500000 0.499990 0.640660 1.063454
Cu2   Cu    Cu3+1 0.500000 0.500010 0.359340 1.050160
H1    H     H_    0.617873 0.892712 0.115041 0.155819
H2    H     H_    0.157487 0.539446 0.271637 0.183053
H3    H     H_    0.714583 0.533516 0.279642 0.210947
H4    H     H_    0.504960 0.119350 0.285231 0.208754
N1    N     N_R   0.038427 0.576212 0.392004 -0.261274
N2    N     N_R   0.969612 0.571246 0.388758 -0.244048
N3    N     N_R   0.960843 0.412533 0.555912 -0.181918
N4    N     N_R   0.029568 0.418027 0.560099 -0.192350
N5    N     N_R   0.500660 0.501210 0.147910 -0.198577
N6    N     N_R   0.500680 0.501290 0.852040 -0.203982
O1    O     O_R   0.499990 0.319640 0.618810 -0.552742
O2    O     O_R   0.500000 0.319660 0.381240 -0.558548
O3    O     O_R   0.400140 0.499970 0.618820 -0.544886
O4    O     O_R   0.400150 0.500000 0.381250 -0.510480
O5    O     O_R   0.500000 0.680340 0.618760 -0.514870
O6    O     O_R   0.500010 0.680360 0.381190 -0.491142
O7    O     O_R   0.599850 0.500000 0.618750 -0.482223
O8    O     O_R   0.599860 0.500030 0.381180 -0.551215
O9    O     O_3   0.285369 0.477742 0.744576 -0.696428
H5    H     H_    0.251457 0.463477 0.820912 0.347763
O10   O     O_3   0.562245 0.196611 0.777903 -0.700631
H6    H     H_    0.583736 0.190641 0.870044 0.304423
O11   O     O_3   0.481009 0.091023 0.011876 -0.764706
H7    H     H_    0.498358 0.179806 0.004512 0.338365
O12   O     O_3   0.414872 0.858376 0.986226 -0.544935
C37   C     C_3   0.344997 0.875267 0.010106 0.112263
H8    H     H_    0.311371 0.808017 0.947649 0.175928
H9    H     H_    0.333473 0.971034 0.983402 0.121507
C38   C     C_3   0.329084 0.850444 0.163537 -0.273506
H10   H     H_    0.348618 0.762809 0.197282 0.280863
H11   H     H_    0.356375 0.926879 0.224347 0.235107
C39   C     C_3   0.251575 0.841083 0.194033 -0.936874
H12   H     H_    0.230531 0.927180 0.160064 0.253955
H13   H     H_    0.242849 0.827351 0.306867 0.264558
H14   H     H_    0.223492 0.760897 0.140671 0.270495
O13   O     O_3   0.391611 0.756313 0.731600 -0.680269
H15   H     H_    0.374616 0.747970 0.635319 0.302970
O14   O     O_3   0.490890 0.879176 0.251904 -0.701275
H16   H     H_    0.503804 0.941257 0.178234 0.384427
O15   O     O_3   0.420203 0.323354 0.155707 -0.706417
H17   H     H_    0.394695 0.261639 0.095186 0.351668
O16   O     O_3   0.609986 0.689905 0.262751 -0.703591
H18   H     H_    0.637429 0.769153 0.287353 0.293593
O17   O     O_3   0.610918 0.919929 0.845667 -0.741177
H19   H     H_    0.619487 0.990090 0.909331 0.324069
O18   O     O_3   0.610828 0.694151 0.727796 -0.550381
C40   C     C_3   0.683586 0.731614 0.729121 0.084829
H20   H     H_    0.709837 0.648048 0.730208 0.168846
H21   H     H_    0.704301 0.784035 0.820659 0.128667
C41   C     C_3   0.703615 0.808162 0.598174 -0.317824
H22   H     H_    0.678542 0.760394 0.508096 0.221061
H23   H     H_    0.684545 0.900052 0.605216 0.246929
C42   C     C_3   0.781858 0.825373 0.574906 -0.967636
H24   H     H_    0.809390 0.867125 0.666049 0.264244
H25   H     H_    0.794502 0.886917 0.483385 0.262363
H26   H     H_    0.800251 0.734799 0.555629 0.248911
O19   O     O_3   0.142283 0.495732 0.739993 -0.614875
C43   C     C_3   0.121585 0.612883 0.770009 0.059179
H27   H     H_    0.081403 0.597734 0.852053 0.184214
H28   H     H_    0.097130 0.656030 0.680229 0.137871
C44   C     C_3   0.181780 0.702899 0.824393 -0.384325
H29   H     H_    0.205201 0.660508 0.915566 0.217479
H30   H     H_    0.222259 0.722800 0.743418 0.229370
C45   C     C_3   0.156474 0.824663 0.865102 -0.919311
H31   H     H_    0.131368 0.866839 0.775662 0.263334
H32   H     H_    0.200966 0.890746 0.898628 0.252588
H33   H     H_    0.118701 0.808697 0.951501 0.264667
O20   O     O_3   0.416123 0.320483 0.868274 -0.776712
H34   H     H_    0.411315 0.341261 0.770388 0.390254
O21   O     O_3   0.294315 0.530988 0.246497 -0.586250
C46   C     C_3   0.263986 0.459721 0.136122 0.110778
H35   H     H_    0.302969 0.468773 0.051645 0.201440
H36   H     H_    0.218070 0.498853 0.093237 0.112034
C47   C     C_3   0.246669 0.321029 0.173009 -0.382472
H37   H     H_    0.290547 0.287219 0.230055 0.254494
H38   H     H_    0.200216 0.306479 0.240773 0.212921
C48   C     C_3   0.231533 0.244725 0.043640 -0.883180
H39   H     H_    0.186965 0.276308 0.986511 0.273504
H40   H     H_    0.218388 0.145745 0.073415 0.248493
H41   H     H_    0.277627 0.253585 0.974858 0.284152
O22   O     O_3   0.859424 0.458668 0.725984 -0.598804
C49   C     C_3   0.866011 0.571188 0.798434 0.060571
H42   H     H_    0.876481 0.548405 0.908253 0.192246
H43   H     H_    0.817693 0.616480 0.797873 0.114096
C50   C     C_3   0.926956 0.661114 0.743125 -0.352536
H44   H     H_    0.973565 0.612011 0.736543 0.235259
H45   H     H_    0.914804 0.695137 0.638146 0.209636
C51   C     C_3   0.942894 0.772184 0.835902 -0.929032
H46   H     H_    0.896796 0.822853 0.843805 0.262848
H47   H     H_    0.986503 0.835819 0.791278 0.264317
H48   H     H_    0.958213 0.741686 0.940421 0.257391
O23   O     O_3   0.707757 0.421286 0.736112 -0.607092
C52   C     C_3   0.732173 0.326862 0.819291 0.138525
H49   H     H_    0.693092 0.303913 0.902146 0.141083
H50   H     H_    0.779594 0.360265 0.877114 0.181486
C53   C     C_3   0.739248 0.206782 0.742317 -0.345289
H51   H     H_    0.688233 0.169595 0.698814 0.253172
H52   H     H_    0.776776 0.223651 0.655782 0.221248
C54   C     C_3   0.764810 0.110574 0.840427 -0.900876
H53   H     H_    0.819284 0.140124 0.871453 0.273079
H54   H     H_    0.762555 0.020680 0.788403 0.270228
H55   H     H_    0.731989 0.098043 0.934541 0.240424
O24   O     O_3   0.847050 0.556172 0.238229 -0.599375
C55   C     C_3   0.858699 0.687183 0.225440 0.104614
H56   H     H_    0.909860 0.711473 0.174643 0.174665
H57   H     H_    0.862409 0.735033 0.326574 0.131875
C56   C     C_3   0.803175 0.737339 0.134477 -0.393166
H58   H     H_    0.801533 0.692594 0.032468 0.213177
H59   H     H_    0.751470 0.716832 0.183178 0.226107
C57   C     C_3   0.817562 0.877219 0.113698 -0.931733
H60   H     H_    0.815292 0.923878 0.214174 0.260663
H61   H     H_    0.777555 0.909281 0.044198 0.260260
H62   H     H_    0.869456 0.903375 0.066665 0.266346

loop_
_geom_bond_atom_site_label_1
_geom_bond_atom_site_label_2
_ccdc_geom_bond_type
C27   N6    A    
C28   N5    A    
C16   C21   A    
C36   O21   S    
C19   C20   A    
C57   H62   S    
C6    O23   S    
C52   C53   S    
C2    C12   S    
C56   C57   S    
C53   C54   S    
C47   H38   S    
C56   H58   S    
C50   H44   S    
C4    N4    A    
N3    N4    A    
C8    H3    S    
C54   H54   S    
C1    C18   S    
Cu1   Cu2   S    
C5    O22   S    
C30   N6    A    
C57   H61   S    
C18   C19   A    
C46   H36   S    
C5    C6    A    
Cu1   O3    S    
C50   H45   S    
Cu2   O4    S    
O20   H34   S    
C15   C16   A    
C43   C44   S    
C24   H1    S    
O21   C46   S    
C20   O14   S    
C45   H33   S    
C2    C32   A    
C34   C35   A    
C12   O4    A    
O18   C40   S    
C29   O15   S    
O19   C43   S    
C16   C17   A    
C48   H40   S    
C43   H28   S    
C26   O18   S    
C39   H12   S    
C31   O8    A    
C1    O2    A    
C19   H4    S    
Cu1   O5    S    
O10   H6    S    
C22   C28   A    
C13   C14   A    
C30   O20   S    
C55   C56   S    
C45   H31   S    
C32   O9    S    
C11   O10   S    
C33   O19   S    
C47   H37   S    
C56   H59   S    
C49   H43   S    
C23   O5    A    
C40   H21   S    
C54   H55   S    
C4    C34   S    
C3    N2    A    
C7    C31   S    
O13   H15   S    
C38   H10   S    
C37   C38   S    
C7    C8    A    
C24   C25   A    
C46   C47   S    
C42   H24   S    
C9    O24   S    
O15   H17   S    
C8    C9    A    
C50   C51   S    
C53   H52   S    
C51   H48   S    
C25   C26   A    
C40   H20   S    
C3    N3    A    
C38   H11   S    
C35   C36   A    
C37   H9    S    
N1    N2    A    
C29   C30   A    
C42   H25   S    
Cu1   O1    S    
C44   H29   S    
Cu2   O6    S    
C41   C42   S    
C48   H41   S    
C43   H27   S    
C15   O13   S    
C39   H14   S    
C17   C18   A    
C26   C27   A    
C13   O11   S    
O14   H16   S    
Cu1   N6    S    
C45   H32   S    
Cu2   N5    S    
C53   H51   S    
C44   H30   S    
C29   N5    A    
C21   C23   S    
C25   O17   S    
C55   H57   S    
C52   H49   S    
C12   O3    A    
C49   H42   S    
C23   O6    A    
C9    C10   A    
C40   C41   S    
C2    C36   A    
C11   C17   A    
C51   H47   S    
C20   C21   A    
C55   H56   S    
C41   H23   S    
O16   H18   S    
C52   H50   S    
O22   C49   S    
C49   C50   S    
C6    C7    A    
Cu2   O2    S    
C4    N1    A    
C54   H53   S    
C38   C39   S    
C32   C33   A    
O23   C52   S    
C22   O16   S    
C5    C10   A    
C3    C10   S    
C46   H35   S    
C37   H8    S    
C42   H26   S    
C11   C13   A    
O9    H5    S    
C51   H46   S    
C14   O12   S    
C33   C34   A    
C35   H2    S    
C22   C24   A    
C57   H60   S    
O11   H7    S    
O12   C37   S    
Cu1   O7    S    
C44   C45   S    
Cu2   O8    S    
C41   H22   S    
O17   H19   S    
C27   C28   A    
C14   C15   A    
C39   H13   S    
C31   O7    A    
O24   C55   S    
C1    O1    A    
C47   C48   S    
C48   H39   S    
