data_mof_unit_62291.cif
_audit_creation_date              2012-12-10T17:15:57-0500
_audit_creation_method            fapswitch 2.2
_symmetry_space_group_name_H-M    P1
_symmetry_Int_Tables_number       1
_space_group_crystal_system       triclinic
_cell_length_a                    18.311444
_cell_length_b                    18.311448
_cell_length_c                    43.011513
_cell_angle_alpha                 89.985356
_cell_angle_beta                  89.999989
_cell_angle_gamma                 89.99996
_cell_volume                      14422.1492904

loop_
_atom_site_label
_atom_site_type_symbol
_atom_type_description
_atom_site_fract_x
_atom_site_fract_y
_atom_site_fract_z
_atom_type_partial_charge
C1    C     C_R   1.000000 0.500002 0.915754 0.806683
C2    C     C_R   0.933862 0.499765 0.667467 -0.143746
C3    C     C_R   0.097793 0.151774 0.541436 0.403910
C4    C     C_R   0.151796 0.097767 0.541433 0.403915
C5    C     C_R   0.275459 0.670552 0.419715 0.396925
C6    C     C_R   0.859150 0.913106 0.527036 0.396418
C7    C     C_R   0.724520 0.329466 0.419704 0.395456
C8    C     C_R   0.320055 0.734452 0.013637 0.028318
C9    C     C_R   0.205137 0.259649 0.972606 0.030669
C10   C     C_R   0.676318 0.269174 0.009095 0.028923
C11   C     C_R   0.794884 0.740372 0.972612 0.029314
C12   C     C_R   0.740367 0.794880 0.972606 0.030659
C13   C     C_R   0.499725 0.933847 0.667474 -0.143717
C14   C     C_R   0.730824 0.323675 0.009099 0.028936
C15   C     C_R   0.259644 0.205132 0.972611 0.029322
C16   C     C_R   0.265544 0.679934 0.013633 0.028309
C17   C     C_R   0.759634 0.294879 0.472606 0.030659
C18   C     C_R   0.769175 0.823674 0.509100 0.028936
C19   C     C_R   0.240355 0.705133 0.472611 0.029323
C20   C     C_R   0.234455 0.179933 0.513632 0.028310
C21   C     C_R   0.179944 0.234451 0.513636 0.028318
C22   C     C_R   0.294863 0.759649 0.472606 0.030669
C23   C     C_R   0.823682 0.769174 0.509096 0.028924
C24   C     C_R   0.066141 0.500064 0.667467 -0.143447
C25   C     C_R   0.705116 0.240371 0.472611 0.029314
C26   C     C_R   0.196605 0.695522 0.000408 -0.074198
C27   C     C_R   0.303114 0.195246 0.999474 -0.073946
C28   C     C_R   0.803050 0.304808 0.000601 -0.079009
C29   C     C_R   0.696929 0.804792 0.999476 -0.074512
C30   C     C_R   0.804754 0.696884 0.999474 -0.073901
C31   C     C_R   0.695186 0.196955 0.000593 -0.079006
C32   C     C_R   0.195208 0.303070 0.999476 -0.074556
C33   C     C_R   0.304471 0.803402 0.000415 -0.074202
C34   C     C_R   0.695246 0.196884 0.499474 -0.073902
C35   C     C_R   0.000140 0.499988 0.184047 0.075991
C36   C     C_R   0.804814 0.696955 0.500593 -0.079006
C37   C     C_R   0.304792 0.803070 0.499476 -0.074556
C38   C     C_R   0.195529 0.303402 0.500415 -0.074203
C39   C     C_R   0.303395 0.195522 0.500408 -0.074198
C40   C     C_R   0.196886 0.695246 0.499474 -0.073946
C41   C     C_R   0.696949 0.804808 0.500601 -0.079009
C42   C     C_R   0.803071 0.304792 0.499476 -0.074512
C43   C     C_R   0.181101 0.764854 0.987874 -0.073473
C44   C     C_R   0.292332 0.238312 0.026201 -0.066105
C45   C     C_R   0.821506 0.232492 0.992671 -0.074933
C46   C     C_R   0.499998 0.999909 0.184047 0.075991
C47   C     C_R   0.707738 0.761738 0.026215 -0.070633
C48   C     C_R   0.761672 0.707650 0.026201 -0.066100
C49   C     C_R   0.767509 0.178500 0.992667 -0.074919
C50   C     C_R   0.238245 0.292245 0.026215 -0.070637
C51   C     C_R   0.235149 0.818909 0.987878 -0.073482
C52   C     C_R   0.738328 0.207651 0.526201 -0.066101
C53   C     C_R   0.732491 0.678500 0.492666 -0.074919
C54   C     C_R   0.261755 0.792245 0.526215 -0.070637
C55   C     C_R   0.264853 0.318911 0.487880 -0.073483
C56   C     C_R   0.318901 0.264856 0.487876 -0.073474
C57   C     C_R   0.499859 0.999988 0.684047 0.075991
C58   C     C_R   0.207668 0.738311 0.526201 -0.066104
C59   C     C_R   0.678493 0.732492 0.492670 -0.074933
C60   C     C_R   0.792261 0.261739 0.526215 -0.070633
C61   C     C_R   0.999907 0.566114 0.135023 -0.165834
C62   C     C_R   0.433870 0.000115 0.135030 -0.165846
C63   C     C_R   0.000262 0.433856 0.135037 -0.166450
C64   C     C_R   0.566128 0.999759 0.135030 -0.166438
C65   C     C_R   0.500093 0.066114 0.635023 -0.165834
C66   C     C_R   0.933872 0.499759 0.635030 -0.166438
C67   C     C_R   0.499738 0.933856 0.635037 -0.166450
C68   C     C_R   0.000002 0.499909 0.684047 0.075991
C69   C     C_R   0.066130 0.500115 0.635030 -0.165846
C70   C     C_1   0.109788 0.780085 0.974540 0.204344
C71   C     C_1   0.338285 0.228347 0.053421 0.244630
C72   C     C_1   0.895773 0.214065 0.983657 0.213322
C73   C     C_1   0.662047 0.771960 0.053497 0.245588
C74   C     C_1   0.771621 0.661682 0.053421 0.244631
C75   C     C_1   0.785939 0.104241 0.983649 0.213327
C76   C     C_1   0.228007 0.337919 0.053497 0.245588
C77   C     C_1   0.219923 0.890232 0.974547 0.204342
C78   C     C_1   0.728377 0.161684 0.553422 0.244632
C79   C     C_R   0.000057 0.499985 0.118502 -0.008448
C80   C     C_1   0.714061 0.604241 0.483648 0.213325
C81   C     C_1   0.271994 0.837918 0.553497 0.245590
C82   C     C_1   0.280081 0.390236 0.474551 0.204346
C83   C     C_1   0.390216 0.280089 0.474544 0.204347
C84   C     C_1   0.161716 0.728345 0.553422 0.244630
C85   C     C_1   0.604227 0.714065 0.483655 0.213319
C86   C     C_1   0.837951 0.271962 0.553497 0.245588
C87   C     C_R   0.499999 0.999956 0.118502 -0.008449
C88   C     C_R   0.499943 0.999985 0.618502 -0.008448
C89   C     C_R   0.499994 0.000007 0.915754 0.806683
C90   C     C_R   0.000001 0.499956 0.618502 -0.008450
C91   C     C_R   0.499863 0.000008 0.781572 0.310333
C92   C     C_R   0.000001 0.499946 0.781572 0.310333
C93   C     C_R   0.000137 0.500008 0.281572 0.310333
C94   C     C_R   0.499999 0.999946 0.281572 0.310333
C95   C     C_R   0.000155 0.499993 0.218408 0.302271
C96   C     C_R   0.499998 0.999911 0.218408 0.302270
C97   C     C_R   0.499845 0.999993 0.718408 0.302271
C98   C     C_R   0.000002 0.499911 0.718408 0.302271
C99   C     C_R   0.496897 0.066087 0.832505 -0.125872
C100  C     C_R   0.500000 0.000002 0.415754 0.806683
C101  C     C_R   0.933929 0.502990 0.832511 -0.125999
C102  C     C_R   0.502920 0.933942 0.832519 -0.125907
C103  C     C_R   0.066073 0.496968 0.832512 -0.125779
C104  C     C_R   0.003103 0.566087 0.332505 -0.125872
C105  C     C_R   0.433927 0.996967 0.332512 -0.125779
C106  C     C_R   0.997080 0.433943 0.332519 -0.125906
C107  C     C_R   0.566071 0.002990 0.332511 -0.125999
C108  C     C_R   0.496933 0.066078 0.864941 -0.141043
C109  C     C_R   0.933939 0.503006 0.864947 -0.141054
C110  C     C_R   0.502957 0.933954 0.864954 -0.140974
C111  C     C_R   0.000006 0.500007 0.415754 0.806682
C112  C     C_R   0.066063 0.496983 0.864948 -0.140962
C113  C     C_R   0.003066 0.566078 0.364941 -0.141043
C114  C     C_R   0.433937 0.996983 0.364948 -0.140962
C115  C     C_R   0.997043 0.433954 0.364954 -0.140973
C116  C     C_R   0.566061 0.003006 0.364947 -0.141053
C117  C     C_R   0.499965 0.000016 0.881473 -0.010455
C118  C     C_R   0.000001 0.499999 0.881473 -0.010455
C119  C     C_R   0.000035 0.500016 0.381473 -0.010455
C120  C     C_R   0.499999 0.999999 0.381473 -0.010456
C121  C     C_R   0.499891 0.000013 0.815933 0.069285
C122  C     C_R   0.999976 0.566126 0.167459 -0.143473
C123  C     C_R   0.000001 0.499968 0.815933 0.069285
C124  C     C_R   0.000109 0.500013 0.315933 0.069285
C125  C     C_R   0.499999 0.999968 0.315933 0.069285
C126  C     C_R   0.000012 0.499993 0.084218 0.801438
C127  C     C_R   0.500000 0.999990 0.084218 0.801439
C128  C     C_R   0.499988 0.999993 0.584218 0.801438
C129  C     C_R   0.000000 0.499990 0.584218 0.801439
C130  C     C_R   0.860194 0.640068 0.999893 0.800098
C131  C     C_R   0.360063 0.860070 0.999994 0.801098
C132  C     C_R   0.139785 0.359905 0.999886 0.800789
C133  C     C_R   0.433859 0.000064 0.167467 -0.143447
C134  C     C_R   0.639750 0.140135 0.000101 0.801041
C135  C     C_R   0.139934 0.639934 0.999991 0.801097
C136  C     C_R   0.640093 0.860217 0.999886 0.800668
C137  C     C_R   0.859868 0.360247 0.000103 0.801041
C138  C     C_R   0.359930 0.139808 0.999893 0.800218
C139  C     C_R   0.360066 0.139934 0.499991 0.801096
C140  C     C_R   0.859907 0.360217 0.499886 0.800669
C141  C     C_R   0.640131 0.860246 0.500103 0.801041
C142  C     C_R   0.140070 0.639808 0.499893 0.800218
C143  C     C_R   0.639806 0.140068 0.499893 0.800099
C144  C     C_R   0.000274 0.433847 0.167474 -0.143717
C145  C     C_R   0.139937 0.360070 0.499994 0.801097
C146  C     C_R   0.360215 0.859905 0.499886 0.800789
C147  C     C_R   0.860249 0.640135 0.500101 0.801042
C148  C     C_R   0.280682 0.611658 0.027603 -0.305032
C149  C     C_R   0.268271 0.160682 0.945951 -0.289007
C150  C     C_R   0.712110 0.395415 0.018408 -0.302636
C151  C     C_R   0.731725 0.839315 0.945933 -0.288783
C152  C     C_R   0.839351 0.731762 0.945952 -0.288979
C153  C     C_R   0.604570 0.287885 0.018400 -0.302659
C154  C     C_R   0.160718 0.268308 0.945932 -0.288813
C155  C     C_R   0.566138 0.999765 0.167467 -0.143746
C156  C     C_R   0.388320 0.719309 0.027610 -0.305019
C157  C     C_R   0.660651 0.231761 0.445951 -0.288978
C158  C     C_R   0.895430 0.787885 0.518401 -0.302662
C159  C     C_R   0.339281 0.768308 0.445932 -0.288813
C160  C     C_R   0.111678 0.219307 0.527608 -0.305020
C161  C     C_R   0.219317 0.111656 0.527601 -0.305032
C162  C     C_R   0.231729 0.660683 0.445951 -0.289007
C163  C     C_R   0.787888 0.895414 0.518410 -0.302634
C164  C     C_R   0.768276 0.339313 0.445933 -0.288782
C165  C     C_R   0.348203 0.597769 0.041435 0.403918
C166  C     C_R   0.500024 0.066126 0.667459 -0.143473
C167  C     C_R   0.224540 0.170551 0.919715 0.396926
C168  C     C_R   0.640848 0.413107 0.027033 0.396418
C169  C     C_R   0.775482 0.829469 0.919704 0.395455
C170  C     C_R   0.829499 0.775510 0.919717 0.396931
C171  C     C_R   0.586877 0.359140 0.027030 0.396423
C172  C     C_R   0.170582 0.224568 0.919703 0.395450
C173  C     C_R   0.402205 0.651777 0.041438 0.403911
C174  C     C_R   0.670503 0.275508 0.419716 0.396931
C175  C     C_R   0.913122 0.859140 0.527031 0.396420
C176  C     C_R   0.329418 0.724568 0.419703 0.395450
Cl1   Cl    Cl    0.362993 0.512475 0.059137 -0.441408
Cl2   Cl    Cl    0.003438 0.878837 0.538104 -0.452937
Cl3   Cl    Cl    0.386100 0.738367 0.387200 -0.503970
Cl4   Cl    Cl    0.012512 0.136976 0.559139 -0.441413
Cl5   Cl    Cl    0.137005 0.012472 0.559134 -0.441406
Cl6   Cl    Cl    0.261720 0.613801 0.387237 -0.502012
Cl7   Cl    Cl    0.878848 0.003411 0.538116 -0.452940
Cl8   Cl    Cl    0.738298 0.386169 0.387201 -0.504189
Cl9   Cl    Cl    0.238280 0.113800 0.887237 -0.502011
Cl10  Cl    Cl    0.621149 0.503413 0.038111 -0.452944
Cl11  Cl    Cl    0.761705 0.886172 0.887202 -0.504188
Cl12  Cl    Cl    0.886272 0.761792 0.887239 -0.502228
Cl13  Cl    Cl    0.496562 0.378837 0.038102 -0.452945
Cl14  Cl    Cl    0.113900 0.238367 0.887200 -0.503970
Cl15  Cl    Cl    0.487486 0.636979 0.059143 -0.441414
Cl16  Cl    Cl    0.613732 0.261789 0.387238 -0.502231
H1    H     H_    0.240023 0.568801 0.028380 0.175712
H2    H     H_    0.938456 0.747511 0.519452 0.183587
H3    H     H_    0.382501 0.808541 0.445186 0.180917
H4    H     H_    0.068827 0.259970 0.528389 0.175704
H5    H     H_    0.259976 0.068799 0.528378 0.175713
H6    H     H_    0.191524 0.617435 0.445219 0.181479
H7    H     H_    0.747509 0.938434 0.519469 0.183566
H8    H     H_    0.808509 0.382533 0.445186 0.180912
H9    H     H_    0.999728 0.617966 0.122906 0.169238
H10   H     H_    0.382019 0.000289 0.122918 0.169226
H11   H     H_    0.000416 0.382005 0.122930 0.169036
H12   H     H_    0.308475 0.117435 0.945219 0.181479
H13   H     H_    0.617979 0.999600 0.122918 0.169049
H14   H     H_    0.500272 0.117966 0.622906 0.169238
H15   H     H_    0.882021 0.499600 0.622918 0.169049
H16   H     H_    0.499584 0.882006 0.622930 0.169036
H17   H     H_    0.117981 0.500289 0.622918 0.169226
H18   H     H_    0.999832 0.618052 0.179494 0.159911
H19   H     H_    0.381934 0.000215 0.179508 0.159913
H20   H     H_    0.000447 0.381923 0.179522 0.159802
H21   H     H_    0.618063 0.999599 0.179508 0.159800
H22   H     H_    0.500168 0.118052 0.679494 0.159911
H23   H     H_    0.752489 0.438435 0.019467 0.183569
H24   H     H_    0.881937 0.499599 0.679508 0.159800
H25   H     H_    0.499553 0.881923 0.679522 0.159802
H26   H     H_    0.118066 0.500215 0.679508 0.159913
H27   H     H_    0.494458 0.117955 0.820458 0.162574
H28   H     H_    0.882060 0.505410 0.820470 0.162530
H29   H     H_    0.505333 0.882073 0.820484 0.162549
H30   H     H_    0.117943 0.494535 0.820472 0.162593
H31   H     H_    0.005542 0.617955 0.320458 0.162574
H32   H     H_    0.382057 0.994535 0.320472 0.162593
H33   H     H_    0.994667 0.382073 0.320484 0.162550
H34   H     H_    0.691492 0.882534 0.945186 0.180911
H35   H     H_    0.617940 0.005411 0.320470 0.162530
H36   H     H_    0.494482 0.117870 0.877049 0.173510
H37   H     H_    0.882146 0.505475 0.877059 0.173510
H38   H     H_    0.505432 0.882161 0.877071 0.173522
H39   H     H_    0.117855 0.494524 0.877061 0.173521
H40   H     H_    0.005519 0.617870 0.377049 0.173510
H41   H     H_    0.382145 0.994524 0.377061 0.173521
H42   H     H_    0.994567 0.382161 0.377071 0.173522
H43   H     H_    0.617854 0.005475 0.377059 0.173510
H44   H     H_    0.882598 0.691557 0.945220 0.181474
H45   H     H_    0.561544 0.247511 0.019452 0.183587
H46   H     H_    0.117499 0.308541 0.945186 0.180917
H47   H     H_    0.431172 0.759972 0.028391 0.175702
H48   H     H_    0.617403 0.191556 0.445219 0.181474
N1    N     N_R   0.998752 0.436256 0.234530 -0.161670
N2    N     N_R   0.063742 0.498521 0.765460 -0.159244
N3    N     N_R   0.498442 0.063745 0.765450 -0.159268
N4    N     N_R   0.936260 0.501351 0.765459 -0.159399
N5    N     N_R   0.998728 0.436263 0.265468 -0.159375
N6    N     N_R   0.563740 0.001351 0.265459 -0.159399
N7    N     N_R   0.001558 0.563745 0.265450 -0.159268
N8    N     N_R   0.436258 0.998521 0.265460 -0.159244
N9    N     N_1   0.052954 0.792120 0.963932 -0.156596
N10   N     N_1   0.374951 0.220388 0.075077 -0.156010
N11   N     N_1   0.954922 0.199480 0.976479 -0.162442
N12   N     N_R   0.563740 0.001319 0.234520 -0.161689
N13   N     N_1   0.625621 0.780163 0.075207 -0.145533
N14   N     N_1   0.779568 0.625004 0.075077 -0.156011
N15   N     N_1   0.800526 0.045097 0.976468 -0.162433
N16   N     N_1   0.219791 0.374333 0.075207 -0.145534
N17   N     N_1   0.207892 0.947074 0.963941 -0.156606
N18   N     N_1   0.720430 0.125006 0.575078 -0.156009
N19   N     N_1   0.699475 0.545098 0.476465 -0.162432
N20   N     N_1   0.280209 0.874332 0.575208 -0.145536
N21   N     N_1   0.292114 0.447080 0.463947 -0.156610
N22   N     N_1   0.447051 0.292125 0.463938 -0.156601
N23   N     N_R   0.001552 0.563738 0.234512 -0.161490
N24   N     N_1   0.125052 0.720385 0.575078 -0.156012
N25   N     N_1   0.545078 0.699480 0.476476 -0.162441
N26   N     N_1   0.874377 0.280164 0.575208 -0.145536
N27   N     N_R   0.436257 0.998520 0.234521 -0.161471
N28   N     N_R   0.501247 0.936256 0.734530 -0.161670
N29   N     N_R   0.063743 0.498520 0.734521 -0.161471
N30   N     N_R   0.498448 0.063738 0.734512 -0.161490
N31   N     N_R   0.936260 0.501319 0.734520 -0.161690
N32   N     N_R   0.501271 0.936263 0.765468 -0.159375
O1    O     O_3   1.000000 0.500000 0.999980 -0.495490
O2    O     O_R   0.000000 0.560770 0.430660 -0.639900
O3    O     O_R   0.439230 0.000000 0.430660 -0.640272
O4    O     O_R   0.000000 0.439230 0.430660 -0.640245
O5    O     O_R   1.000000 0.560700 0.069300 -0.641336
O6    O     O_R   0.439300 0.000000 0.069300 -0.641360
O7    O     O_R   1.000000 0.439300 0.069300 -0.641663
O8    O     O_R   0.560700 0.000000 0.069300 -0.641639
O9    O     O_R   0.500000 0.060700 0.569300 -0.641336
O10   O     O_R   0.939300 0.500000 0.569300 -0.641639
O11   O     O_R   0.500000 0.939300 0.569300 -0.641663
O12   O     O_3   0.500000 0.000000 0.999980 -0.495490
O13   O     O_R   0.060700 0.500000 0.569300 -0.641360
O14   O     O_R   0.853840 0.585430 0.981810 -0.631752
O15   O     O_R   0.414570 0.853840 0.981810 -0.629883
O16   O     O_R   0.146160 0.414570 0.981810 -0.631188
O17   O     O_R   0.585430 0.146160 0.981810 -0.633633
O18   O     O_R   0.146160 0.585430 0.981810 -0.629922
O19   O     O_R   0.585430 0.853840 0.981810 -0.631172
O20   O     O_R   0.853840 0.414570 0.981810 -0.633594
O21   O     O_R   0.414570 0.146160 0.981810 -0.631767
O22   O     O_R   0.353840 0.085430 0.481810 -0.629922
O23   O     O_3   0.500000 0.000000 0.499980 -0.495490
O24   O     O_R   0.914570 0.353840 0.481810 -0.631173
O25   O     O_R   0.646160 0.914570 0.481810 -0.633593
O26   O     O_R   0.085430 0.646160 0.481810 -0.631768
O27   O     O_R   0.646160 0.085430 0.481810 -0.631752
O28   O     O_R   0.085430 0.353840 0.481810 -0.629884
O29   O     O_R   0.353840 0.914570 0.481810 -0.631188
O30   O     O_R   0.914570 0.646160 0.481810 -0.633634
O31   O     O_R   0.085460 0.353830 0.018160 -0.634903
O32   O     O_R   0.646170 0.085460 0.018160 -0.633774
O33   O     O_R   0.914540 0.646170 0.018160 -0.635531
O34   O     O_3   0.000000 0.500000 0.499980 -0.495490
O35   O     O_R   0.353830 0.914540 0.018160 -0.633981
O36   O     O_R   0.914540 0.353830 0.018160 -0.633810
O37   O     O_R   0.353830 0.085460 0.018160 -0.635544
O38   O     O_R   0.085460 0.646170 0.018160 -0.633944
O39   O     O_R   0.646170 0.914540 0.018160 -0.634890
O40   O     O_R   0.585460 0.853830 0.518160 -0.633811
O41   O     O_R   0.146170 0.585460 0.518160 -0.635544
O42   O     O_R   0.414540 0.146170 0.518160 -0.633945
O43   O     O_R   0.853830 0.414540 0.518160 -0.634890
O44   O     O_R   0.414540 0.853830 0.518160 -0.634903
O45   O     O_R   0.060770 0.500000 0.930660 -0.640272
O46   O     O_R   0.853830 0.585460 0.518160 -0.633774
O47   O     O_R   0.585460 0.146170 0.518160 -0.635531
O48   O     O_R   0.146170 0.414540 0.518160 -0.633982
O49   O     O_R   0.500000 0.060770 0.930660 -0.639900
O50   O     O_R   0.939230 0.500000 0.930660 -0.639872
O51   O     O_R   0.500000 0.939230 0.930660 -0.640245
O52   O     O_R   0.560770 0.000000 0.430660 -0.639872
Zn1   Zn    Zn3+2 0.000000 0.586740 0.025950 0.994992
Zn2   Zn    Zn3+2 0.500000 0.913260 0.974020 1.001909
Zn3   Zn    Zn3+2 0.086740 0.500000 0.974020 1.001919
Zn4   Zn    Zn3+2 0.500000 0.086740 0.974020 0.999595
Zn5   Zn    Zn3+2 0.413260 0.000000 0.474020 1.001918
Zn6   Zn    Zn3+2 0.000000 0.413260 0.474020 1.001909
Zn7   Zn    Zn3+2 0.586740 0.000000 0.474020 0.999585
Zn8   Zn    Zn3+2 0.000000 0.586740 0.474020 0.999595
Zn9   Zn    Zn3+2 0.413260 0.000000 0.025950 0.995000
Zn10  Zn    Zn3+2 0.000000 0.413260 0.025950 0.995496
Zn11  Zn    Zn3+2 0.586740 0.000000 0.025950 0.995489
Zn12  Zn    Zn3+2 0.500000 0.086740 0.525950 0.994992
Zn13  Zn    Zn3+2 0.913260 0.500000 0.525950 0.995489
Zn14  Zn    Zn3+2 0.500000 0.913260 0.525950 0.995496
Zn15  Zn    Zn3+2 0.086740 0.500000 0.525950 0.995001
Zn16  Zn    Zn3+2 0.913260 0.500000 0.974020 0.999585

loop_
_geom_bond_atom_site_label_1
_geom_bond_atom_site_label_2
_ccdc_geom_bond_type
C2    H24   S    
O9    Zn12  S    
C103  C123  A    
O30   Zn8   S    
C46   C155  A    
C56   C83   S    
N1    N5    A    
O13   Zn15  S    
C97   N30   A    
C22   C159  A    
C167  Cl9   S    
C23   C158  A    
O12   Zn11  S    
C143  O47   A    
C36   C53   A    
C110  H38   S    
C176  Cl3   S    
C38   C55   A    
C1    O45   A    
C26   C43   A    
C63   C144  A    
C127  O8    A    
C104  H31   S    
O42   Zn12  S    
C25   C34   A    
C160  H4    S    
C95   N23   A    
C156  H47   S    
C148  C165  A    
O41   Zn15  S    
O12   Zn4   S    
O36   Zn10  S    
C109  C118  A    
C156  C173  A    
C27   C138  S    
C40   C58   A    
C100  O3    A    
C89   O51   A    
C48   C74   S    
C169  Cl11  S    
C92   C123  S    
C60   C86   S    
C57   C166  A    
C108  H36   S    
C172  Cl14  S    
C65   C166  A    
C173  Cl15  S    
C103  C112  A    
C19   C162  A    
O37   Zn9   S    
O35   Zn9   S    
C17   C164  A    
C50   C76   S    
C139  O42   A    
C152  C170  A    
C18   C163  A    
C15   C27   A    
C39   C56   A    
C141  O40   A    
C57   C97   S    
C82   N21   T    
C70   N9    T    
C74   N14   T    
C137  O36   A    
C93   N5    A    
C95   N1    A    
C5    C176  A    
C86   N26   T    
C5    Cl6   S    
C15   C149  A    
C113  H40   S    
C62   C87   A    
C44   C50   A    
O2    Zn8   S    
C34   C52   A    
C35   C122  A    
C28   C137  S    
O43   Zn13  S    
C136  O19   A    
C152  H44   S    
C98   N31   A    
C105  H32   S    
C64   H13   S    
C162  H6    S    
C105  C125  A    
C106  C115  A    
C17   C25   A    
C129  O13   A    
C9    C15   A    
C66   H15   S    
C116  H43   S    
O24   Zn6   S    
C127  O6    A    
O14   Zn16  S    
C68   C98   S    
O50   Zn16  S    
C146  O29   A    
C148  H1    S    
C46   C96   S    
C20   C21   A    
C23   C36   A    
C106  C124  A    
C142  O41   A    
C4    C161  A    
C84   N24   T    
C115  H42   S    
N7    N23   A    
O22   Zn5   S    
C12   C29   A    
C165  Cl1   S    
C134  O17   A    
C130  O14   A    
C1    O50   A    
C38   C145  S    
C159  H3    S    
C99   C108  A    
C112  H39   S    
C63   H11   S    
C29   C47   A    
C30   C48   A    
C75   N15   T    
C13   C57   A    
C111  C119  S    
C52   C60   A    
O17   Zn4   S    
C90   C129  S    
O44   Zn14  S    
C27   C44   A    
O15   Zn2   S    
C21   C38   A    
N28   N32   A    
O19   Zn2   S    
C132  O31   A    
C107  H35   S    
C122  H18   S    
C4    Cl5   S    
C102  C121  A    
C154  C172  A    
C64   C87   A    
C35   C144  A    
C141  O25   A    
C163  H7    S    
O33   Zn1   S    
C31   C134  S    
O16   Zn3   S    
C98   N29   A    
C168  Cl10  S    
C42   C140  S    
N2    N29   A    
C53   C80   S    
C107  C125  A    
C91   N32   A    
C10   C14   A    
C138  O37   A    
C150  H23   S    
C140  O43   A    
C116  C120  A    
C137  O20   A    
C3    Cl4   S    
C59   C85   S    
C157  H48   S    
C151  H34   S    
C106  H33   S    
C80   N19   T    
C111  O4    A    
C6    C163  A    
O46   Zn13  S    
C89   C117  S    
C115  C119  A    
C159  C176  A    
C133  H19   S    
C3    C4    A    
C94   C125  S    
C131  O35   A    
C108  C117  A    
C2    C66   A    
C139  O22   A    
C104  C124  A    
C126  O7    A    
C154  H46   S    
C151  C169  A    
C99   C121  A    
O23   Zn12  S    
N3    N30   A    
O20   Zn16  S    
C54   C81   S    
C72   N11   T    
C129  O10   A    
C76   N16   T    
C107  C116  A    
C19   C40   A    
C104  C113  A    
C158  C175  A    
C102  H29   S    
C8    C16   A    
C91   C121  S    
C170  Cl12  S    
C94   N8    A    
O18   Zn3   S    
C67   H16   S    
C174  Cl16  S    
C55   C56   A    
C149  C167  A    
C143  O27   A    
C66   C90   A    
N8    N27   A    
O52   Zn7   S    
C64   C155  A    
C67   C88   A    
C158  H2    S    
C62   C133  A    
C54   C58   A    
C6    C175  A    
C101  C109  A    
C7    C174  A    
C110  C117  A    
C111  O2    A    
C17   C42   A    
C62   H10   S    
C9    C32   A    
C113  C119  A    
C109  H37   S    
C10   C31   A    
C11   C30   A    
O23   Zn7   S    
C37   C146  S    
C175  Cl2   S    
O45   Zn3   S    
O27   Zn7   S    
C31   C49   A    
C138  O21   A    
C52   C78   S    
C10   C153  A    
O34   Zn15  S    
C114  H41   S    
O47   Zn12  S    
C16   C26   A    
C34   C143  S    
C126  O5    A    
C39   C139  S    
C147  O46   A    
O3    Zn5   S    
C47   C73   S    
C20   C39   A    
C63   C79   A    
C30   C130  S    
C22   C37   A    
O5    Zn1   S    
C51   C77   S    
O34   Zn8   S    
C36   C147  S    
C45   C49   A    
C14   C150  A    
C78   N18   T    
O28   Zn6   S    
C94   N6    A    
C149  H12   S    
C73   N13   T    
C136  O39   A    
C99   H27   S    
O10   Zn13  S    
C100  O52   A    
C21   C160  A    
C102  C110  A    
C96   N12   A    
C144  H20   S    
C65   C88   A    
C81   N20   T    
O23   Zn14  S    
O40   Zn14  S    
C167  C172  A    
C130  O33   A    
C35   C95   S    
C33   C51   A    
O49   Zn4   S    
C7    C164  A    
C2    C68   A    
C161  H5    S    
C6    Cl7   S    
C5    C162  A    
O1    Zn16  S    
C46   C133  A    
C101  H28   S    
C43   C51   A    
O1    Zn10  S    
O23   Zn5   S    
C135  O18   A    
C24   C68   A    
C29   C136  S    
O31   Zn10  S    
C13   H25   S    
C114  C120  A    
C164  H8    S    
O34   Zn13  S    
C131  O15   A    
O1    Zn1   S    
C40   C142  S    
N4    N31   A    
C169  C170  A    
C93   C124  S    
C87   C127  S    
C53   C59   A    
C145  O28   A    
N6    N12   A    
C101  C123  A    
C7    Cl8   S    
O32   Zn11  S    
O29   Zn5   S    
C61   C79   A    
O34   Zn6   S    
C103  H30   S    
C165  C173  A    
C171  Cl13  S    
C44   C71   S    
C155  H21   S    
C26   C135  S    
C135  O38   A    
C61   H9    S    
C92   N2    A    
C100  C120  S    
C93   N7    A    
C71   N10   T    
C8    C33   A    
O8    Zn11  S    
C33   C131  S    
C96   N27   A    
C147  O30   A    
C150  C168  A    
C45   C72   S    
C12   C151  A    
C134  O32   A    
C128  O9    A    
C24   C69   A    
C168  C171  A    
C145  O48   A    
C28   C45   A    
C18   C23   A    
C85   N25   T    
C105  C114  A    
C19   C22   A    
C41   C59   A    
C18   C41   A    
C42   C60   A    
C65   H14   S    
C61   C122  A    
O48   Zn15  S    
C41   C141  S    
C58   C84   S    
O25   Zn7   S    
O39   Zn11  S    
C97   N28   A    
C47   C48   A    
C142  O26   A    
C153  C171  A    
C49   C75   S    
O4    Zn6   S    
C55   C82   S    
O12   Zn9   S    
C32   C50   A    
C166  H22   S    
C37   C54   A    
C79   C126  S    
C91   N3    A    
C9    C154  A    
O1    Zn3   S    
C43   C70   S    
C25   C157  A    
C3    C160  A    
C69   H17   S    
C69   C90   A    
C32   C132  S    
C13   C67   A    
O11   Zn14  S    
O12   Zn2   S    
O6    Zn9   S    
C140  O24   A    
C11   C12   A    
C157  C174  A    
O26   Zn8   S    
C153  H45   S    
C16   C148  A    
O51   Zn2   S    
C89   O49   A    
C88   C128  S    
C112  C118  A    
C92   N4    A    
C132  O16   A    
O38   Zn1   S    
C20   C161  A    
C146  O44   A    
C1    C118  S    
O7    Zn10  S    
C8    C156  A    
C11   C152  A    
O21   Zn4   S    
C83   N22   T    
C77   N17   T    
C128  O11   A    
C14   C28   A    
C24   H26   S    
