data_mof_unit_64261.cif
_audit_creation_date              2013-03-05T16:32:48-0500
_audit_creation_method            fapswitch 2.2
_symmetry_space_group_name_H-M    P1
_symmetry_Int_Tables_number       1
_space_group_crystal_system       triclinic
_cell_length_a                    32.110757
_cell_length_b                    32.111949
_cell_length_c                    35.521103
_cell_angle_alpha                 90.088479
_cell_angle_beta                  89.870647
_cell_angle_gamma                 90.177086
_cell_volume                      36626.8827469

loop_
_atom_site_label
_atom_site_type_symbol
_atom_site_description
_atom_site_fract_x
_atom_site_fract_y
_atom_site_fract_z
_atom_type_partial_charge
O1    O     O_R   0.939070 0.534350 0.999910 -0.608427
O2    O     O_R   0.534350 0.060930 0.999910 -0.606741
O3    O     O_R   0.060930 0.465650 0.999910 -0.607691
O4    O     O_R   0.465650 0.939070 0.999910 -0.607020
O5    O     O_R   0.939070 0.465650 0.000090 -0.607029
O6    O     O_R   0.534350 0.939070 0.000090 -0.608432
O7    O     O_R   0.060930 0.534350 0.000090 -0.606738
O8    O     O_R   0.465650 0.060930 0.000090 -0.607696
O9    O     O_R   0.439070 0.034350 0.499910 -0.608423
O10   O     O_R   0.034350 0.560930 0.499910 -0.606751
O11   O     O_R   0.560930 0.965650 0.499910 -0.607644
O12   O     O_R   0.965650 0.439070 0.499910 -0.607059
O13   O     O_R   0.439070 0.965650 0.500090 -0.607024
O14   O     O_R   0.034350 0.439070 0.500090 -0.608430
O15   O     O_R   0.560930 0.034350 0.500090 -0.606779
O16   O     O_R   0.965650 0.560930 0.500090 -0.607687
C1    C     C_R   0.919359 0.499942 0.000071 0.904203
C2    C     C_R   0.500058 0.080640 0.999931 0.905088
C3    C     C_R   0.080640 0.500058 0.000069 0.905087
C4    C     C_R   0.499942 0.919359 0.999930 0.904214
C5    C     C_R   0.419359 0.999942 0.500070 0.904197
C6    C     C_R   0.000058 0.580640 0.499930 0.905064
C7    C     C_R   0.580640 0.000058 0.500069 0.905076
C8    C     C_R   0.999942 0.419365 0.499991 0.904323
O17   O     O_R   0.000060 0.534350 0.944480 -0.617445
O18   O     O_R   0.534350 0.999940 0.944480 -0.609861
O19   O     O_R   0.999940 0.465650 0.944480 -0.618181
O20   O     O_R   0.465650 0.000060 0.944480 -0.609669
O21   O     O_R   0.000060 0.465650 0.055520 -0.609680
O22   O     O_R   0.534350 0.000060 0.055520 -0.617413
O23   O     O_R   0.999940 0.534350 0.055520 -0.609811
O24   O     O_R   0.465650 0.999940 0.055520 -0.618191
O25   O     O_R   0.500060 0.034350 0.444480 -0.617425
O26   O     O_R   0.034350 0.499940 0.444480 -0.609963
O27   O     O_R   0.499940 0.965650 0.444480 -0.618158
O28   O     O_R   0.965650 0.500060 0.444480 -0.609633
O29   O     O_R   0.500060 0.965650 0.555520 -0.609691
O30   O     O_R   0.034350 0.500060 0.555520 -0.617279
O31   O     O_R   0.499940 0.034350 0.555520 -0.609838
O32   O     O_R   0.965650 0.499940 0.555520 -0.618249
C9    C     C_R   0.999906 0.499940 0.926426 0.920180
C10   C     C_R   0.500043 0.000004 0.926566 0.908057
C11   C     C_R   0.000003 0.500030 0.073433 0.908047
C12   C     C_R   0.499926 0.999909 0.073574 0.920214
C13   C     C_R   0.499906 0.999940 0.426426 0.920226
C14   C     C_R   0.000043 0.500004 0.426566 0.907963
C15   C     C_R   0.500003 0.000030 0.573433 0.907998
C16   C     C_R   0.999926 0.499910 0.573574 0.920272
Zn1   Zn    Zn3+2 0.000000 0.545900 0.000000 1.038045
Zn2   Zn    Zn3+2 0.545900 0.000000 0.000000 1.038038
Zn3   Zn    Zn3+2 0.000000 0.454100 0.000000 1.038498
Zn4   Zn    Zn3+2 0.454100 0.000000 0.000000 1.038510
Zn5   Zn    Zn3+2 0.500000 0.045900 0.500000 1.038009
Zn6   Zn    Zn3+2 0.045900 0.500000 0.500000 1.038124
Zn7   Zn    Zn3+2 0.500000 0.954100 0.500000 1.038565
Zn8   Zn    Zn3+2 0.954100 0.500000 0.500000 1.038550
C17   C     C_R   0.960298 0.496190 0.673210 0.307095
C18   C     C_R   0.472449 0.026368 0.673247 0.302893
C19   C     C_R   0.036810 0.493985 0.673995 0.298283
C20   C     C_R   0.527978 0.974029 0.673034 0.302763
C21   C     C_R   0.974104 0.527957 0.326947 0.302730
C22   C     C_R   0.496059 0.960386 0.326800 0.307051
C23   C     C_R   0.026433 0.472418 0.326770 0.303041
C24   C     C_R   0.493937 0.036899 0.326009 0.298300
C25   C     C_R   0.460298 0.996183 0.173210 0.307020
C26   C     C_R   0.972452 0.526367 0.173248 0.302858
C27   C     C_R   0.536811 0.993988 0.173995 0.298281
C28   C     C_R   0.027979 0.474026 0.173033 0.302790
C29   C     C_R   0.474101 0.027958 0.826948 0.302780
C30   C     C_R   0.996074 0.460386 0.826799 0.307059
C31   C     C_R   0.526435 0.972424 0.826770 0.302862
C32   C     C_R   0.993922 0.536898 0.826010 0.298278
C33   C     C_R   0.961503 0.498604 0.634041 -0.227216
C34   C     C_R   0.473721 0.027003 0.633951 -0.231955
C35   C     C_R   0.036933 0.496446 0.634739 -0.223937
C36   C     C_R   0.526537 0.973267 0.633748 -0.231824
C37   C     C_R   0.973326 0.526532 0.366234 -0.231760
C38   C     C_R   0.498514 0.961563 0.365965 -0.227170
C39   C     C_R   0.027052 0.473706 0.366066 -0.232295
C40   C     C_R   0.496434 0.036993 0.365262 -0.224334
C41   C     C_R   0.461503 0.998598 0.134041 -0.227220
C42   C     C_R   0.973723 0.527003 0.133951 -0.231835
C43   C     C_R   0.536933 0.996449 0.134739 -0.224370
C44   C     C_R   0.026538 0.473265 0.133748 -0.231785
C45   C     C_R   0.473324 0.026532 0.866235 -0.231822
C46   C     C_R   0.998529 0.461563 0.865964 -0.227253
C47   C     C_R   0.527055 0.973711 0.866065 -0.231888
C48   C     C_R   0.996420 0.536992 0.865262 -0.224417
H1    H     H_    0.932495 0.499868 0.618586 0.210857
H2    H     H_    0.452787 0.047152 0.618558 0.193864
H3    H     H_    0.066348 0.495983 0.619761 0.210598
H4    H     H_    0.547409 0.953071 0.618194 0.193997
H5    H     H_    0.953128 0.547414 0.381774 0.193989
H6    H     H_    0.499759 0.932544 0.381421 0.210867
H7    H     H_    0.047190 0.452773 0.381474 0.193533
H8    H     H_    0.496016 0.066398 0.380238 0.210495
H9    H     H_    0.432495 0.999859 0.118585 0.210855
H10   H     H_    0.952790 0.547153 0.118559 0.193907
H11   H     H_    0.566349 0.995990 0.119762 0.210493
H12   H     H_    0.047409 0.453070 0.118193 0.194001
H13   H     H_    0.453124 0.047412 0.881775 0.193984
H14   H     H_    0.999786 0.432544 0.881420 0.210845
H15   H     H_    0.547194 0.952780 0.881472 0.193897
H16   H     H_    0.995990 0.566397 0.880239 0.210485
C49   C     C_R   0.999530 0.498670 0.614722 -0.161652
C50   C     C_R   0.500082 0.000098 0.614335 -0.139938
C51   C     C_R   0.000142 0.500077 0.385665 -0.139830
C52   C     C_R   0.498638 0.999576 0.385279 -0.161644
C53   C     C_R   0.499530 0.998668 0.114722 -0.161650
C54   C     C_R   0.000083 0.500097 0.114335 -0.139959
C55   C     C_R   0.500142 0.000079 0.885665 -0.139957
C56   C     C_R   0.998639 0.499576 0.885279 -0.161629
C57   C     C_R   0.998213 0.494377 0.693196 -0.131631
C58   C     C_R   0.500252 0.000226 0.692881 -0.145404
C59   C     C_R   0.000300 0.500215 0.307119 -0.145379
C60   C     C_R   0.494269 0.998315 0.306812 -0.131563
C61   C     C_R   0.498214 0.994375 0.193196 -0.131603
C62   C     C_R   0.000254 0.500223 0.192881 -0.145405
C63   C     C_R   0.500299 0.000219 0.807118 -0.145421
C64   C     C_R   0.994269 0.498315 0.806812 -0.131582
C65   C     C_1   0.997415 0.496249 0.733225 0.204820
C66   C     C_1   0.500301 0.000246 0.733146 0.178920
C67   C     C_1   0.000319 0.500238 0.266853 0.178935
C68   C     C_1   0.496125 0.997537 0.266781 0.204897
C69   C     C_1   0.497415 0.996248 0.233225 0.204830
C70   C     C_1   0.000302 0.500243 0.233147 0.178941
C71   C     C_1   0.500318 0.000242 0.766853 0.178900
C72   C     C_1   0.996125 0.497538 0.766781 0.204893
H17   H     H_    0.789426 0.433260 0.998648 0.196022
H18   H     H_    0.433662 0.210061 0.001013 0.197054
H19   H     H_    0.210575 0.566736 0.999125 0.196002
H20   H     H_    0.566332 0.789939 0.001175 0.196824
H21   H     H_    0.789941 0.566325 0.998577 0.196819
H22   H     H_    0.433263 0.789424 0.001500 0.196029
H23   H     H_    0.210062 0.433674 0.998732 0.197055
H24   H     H_    0.566728 0.210578 0.001217 0.196004
H25   H     H_    0.289427 0.933259 0.498667 0.196062
H26   H     H_    0.933672 0.710063 0.501344 0.197064
H27   H     H_    0.710560 0.066753 0.501045 0.195978
H28   H     H_    0.066292 0.290004 0.498756 0.197678
H29   H     H_    0.289938 0.066324 0.498528 0.196912
H30   H     H_    0.933307 0.289495 0.501364 0.196742
H31   H     H_    0.710078 0.933767 0.496793 0.197064
H32   H     H_    0.066740 0.710576 0.500861 0.195994
C73   C     C_R   0.728429 0.461390 0.997399 -0.047531
C74   C     C_R   0.461689 0.271278 0.002217 -0.048430
C75   C     C_R   0.271582 0.538608 0.997896 -0.047482
C76   C     C_R   0.538298 0.728728 0.002464 -0.048201
C77   C     C_R   0.728730 0.538288 0.997357 -0.048217
C78   C     C_R   0.461398 0.728427 0.002650 -0.047563
C79   C     C_R   0.271282 0.461707 0.997668 -0.048449
C80   C     C_R   0.538591 0.271581 0.002333 -0.047489
C81   C     C_R   0.228429 0.961386 0.497401 -0.047333
C82   C     C_R   0.961708 0.771280 0.502401 -0.048290
C83   C     C_R   0.771573 0.038692 0.498998 -0.047678
C84   C     C_R   0.038317 0.228740 0.499198 -0.048905
C85   C     C_R   0.228729 0.038283 0.497317 -0.048593
C86   C     C_R   0.961381 0.228441 0.500989 -0.048015
C87   C     C_R   0.771291 0.961835 0.496547 -0.048366
C88   C     C_R   0.038611 0.771580 0.502122 -0.047497
C89   C     C_R   0.706638 0.499858 0.997170 -0.020597
C90   C     C_R   0.500119 0.293372 0.002474 -0.020779
C91   C     C_R   0.293374 0.500139 0.997585 -0.020789
C92   C     C_R   0.499868 0.706636 0.002763 -0.020629
C93   C     C_R   0.206637 0.999853 0.497153 -0.020465
C94   C     C_R   0.000141 0.793372 0.502463 -0.020804
C95   C     C_R   0.793375 0.000256 0.497577 -0.020762
C96   C     C_R   0.999869 0.206638 0.500103 -0.023942
C97   C     C_R   0.772267 0.537494 0.998542 -0.180630
C98   C     C_R   0.537870 0.228029 0.001201 -0.183597
C99   C     C_R   0.227737 0.462504 0.998793 -0.180216
C100  C     C_R   0.462122 0.771974 0.001477 -0.183262
C101  C     C_R   0.771975 0.462118 0.998581 -0.183280
C102  C     C_R   0.537500 0.772266 0.001292 -0.180617
C103  C     C_R   0.228028 0.537879 0.999015 -0.183592
C104  C     C_R   0.462492 0.227736 0.001085 -0.180218
C105  C     C_R   0.272265 0.037492 0.498506 -0.179987
C106  C     C_R   0.037882 0.728028 0.500995 -0.183597
C107  C     C_R   0.727747 0.962584 0.497692 -0.180229
C108  C     C_R   0.962134 0.272008 0.500661 -0.182972
C109  C     C_R   0.271976 0.962116 0.498585 -0.183366
C110  C     C_R   0.037491 0.272298 0.499479 -0.179464
C111  C     C_R   0.728020 0.037917 0.500098 -0.183527
C112  C     C_R   0.962504 0.727737 0.501267 -0.180228
C113  C     C_R   0.793510 0.499791 0.999147 0.104101
C114  C     C_R   0.500201 0.206492 0.000598 0.103990
C115  C     C_R   0.206491 0.500207 0.999443 0.104003
C116  C     C_R   0.499794 0.793509 0.000807 0.104089
C117  C     C_R   0.293509 0.999790 0.499134 0.103865
C118  C     C_R   0.000208 0.706491 0.500587 0.103983
C119  C     C_R   0.706491 0.000243 0.499435 0.104006
C120  C     C_R   0.999796 0.293538 0.500055 0.103329
C121  C     C_1   0.662034 0.499906 0.998701 0.080235
C122  C     C_1   0.500081 0.337970 0.001002 0.080319
C123  C     C_1   0.337971 0.500093 0.999051 0.080302
C124  C     C_1   0.499911 0.662033 0.001243 0.080262
C125  C     C_1   0.162034 0.999903 0.498691 0.079152
C126  C     C_1   0.000094 0.837970 0.500996 0.080400
C127  C     C_1   0.837972 0.000163 0.499046 0.080105
C128  C     C_1   0.999914 0.162023 0.500101 0.082710
C129  C     C_1   0.837897 0.499775 0.999686 -0.009719
C130  C     C_1   0.500221 0.162102 0.000157 -0.009509
C131  C     C_1   0.162101 0.500223 0.999868 -0.009528
C132  C     C_1   0.499777 0.837897 0.000286 -0.009708
C133  C     C_1   0.337897 0.999776 0.499679 -0.009741
C134  C     C_1   0.000224 0.662102 0.500151 -0.009493
C135  C     C_1   0.662101 0.000236 0.499862 -0.009540
C136  C     C_1   0.999778 0.337921 0.500026 -0.010149
C137  C     C_1   0.875164 0.499821 0.999942 -0.143111
C138  C     C_1   0.500178 0.124835 0.999983 -0.142779
C139  C     C_1   0.124834 0.500178 0.000028 -0.142770
C140  C     C_1   0.499821 0.875163 0.000046 -0.143123
C141  C     C_1   0.375163 0.999821 0.499938 -0.143085
C142  C     C_1   0.000179 0.624835 0.499980 -0.142767
C143  C     C_1   0.624834 0.000181 0.500026 -0.142771
C144  C     C_1   0.999821 0.375181 0.500006 -0.142849
C145  C     C_1   0.624768 0.499953 0.999623 -0.044533
C146  C     C_1   0.500041 0.375235 0.000168 -0.044332
C147  C     C_1   0.375235 0.500047 0.999871 -0.044282
C148  C     C_1   0.499955 0.624767 0.000338 -0.044489
C149  C     C_1   0.124768 0.999952 0.499620 -0.045160
C150  C     C_1   0.000048 0.875235 0.500166 -0.044392
C151  C     C_1   0.875235 0.000080 0.499869 -0.044323
C152  C     C_1   0.999957 0.124749 0.500080 -0.040949
O33   O     O_R   0.500090 0.438950 0.968600 -0.611586
O34   O     O_R   0.438950 0.499910 0.968600 -0.601737
O35   O     O_R   0.499910 0.561050 0.968600 -0.611574
O36   O     O_R   0.561050 0.500090 0.968600 -0.601746
O37   O     O_R   0.500090 0.561050 0.031400 -0.601708
O38   O     O_R   0.438950 0.500090 0.031400 -0.611623
O39   O     O_R   0.499910 0.438950 0.031400 -0.601761
O40   O     O_R   0.561050 0.499910 0.031400 -0.611533
O41   O     O_R   0.000090 0.938950 0.468600 -0.611644
O42   O     O_R   0.938950 0.999910 0.468600 -0.601737
O43   O     O_R   0.999910 0.061050 0.468600 -0.604321
O44   O     O_R   0.061050 0.000090 0.468600 -0.599200
O45   O     O_R   0.000090 0.061050 0.531400 -0.609747
O46   O     O_R   0.938950 0.000090 0.531400 -0.611613
O47   O     O_R   0.999910 0.938950 0.531400 -0.601646
O48   O     O_R   0.061050 0.999910 0.531400 -0.614171
C153  C     C_R   0.499999 0.419393 0.999993 0.906286
C154  C     C_R   0.419394 0.499999 0.000019 0.906319
C155  C     C_R   0.500001 0.580607 0.000046 0.906237
C156  C     C_R   0.580607 0.500001 0.999942 0.906232
C157  C     C_R   0.999999 0.919393 0.499993 0.906247
C158  C     C_R   0.919394 0.000001 0.500019 0.906600
C159  C     C_R   0.000001 0.080601 0.500026 0.906137
C160  C     C_R   0.080607 0.000001 0.499941 0.906384
Zn9   Zn    Zn3+2 0.500000 0.500000 0.958130 1.065608
Zn10  Zn    Zn3+2 0.500000 0.500000 0.041870 1.065622
Zn11  Zn    Zn3+2 1.000000 1.000000 0.458130 1.070718
Zn12  Zn    Zn3+2 1.000000 0.000000 0.541870 1.059905
N1    N     N_R   0.920485 0.495918 0.692075 0.227638
O49   O     O_R   0.888619 0.514259 0.676836 -0.333186
O50   O     O_R   0.914589 0.473608 0.722182 -0.317383
N2    N     N_R   0.442378 0.051714 0.692614 0.236892
O51   O     O_R   0.431757 0.087677 0.678859 -0.318646
O52   O     O_R   0.420788 0.036290 0.720350 -0.313247
N3    N     N_R   0.075928 0.491355 0.693704 0.222158
O53   O     O_R   0.109602 0.506875 0.678764 -0.337577
O54   O     O_R   0.079129 0.469740 0.724517 -0.343645
N4    N     N_R   0.558130 0.948744 0.692170 0.236955
O55   O     O_R   0.568727 0.912756 0.678310 -0.318481
O56   O     O_R   0.579795 0.964238 0.719782 -0.313001
N5    N     N_R   0.948836 0.558108 0.307790 0.236999
O57   O     O_R   0.912843 0.568719 0.321650 -0.318336
O58   O     O_R   0.964350 0.579761 0.280155 -0.312929
N6    N     N_R   0.495725 0.920587 0.307940 0.227638
O59   O     O_R   0.514050 0.888693 0.323154 -0.333091
O60   O     O_R   0.473375 0.914735 0.277869 -0.317323
N7    N     N_R   0.051782 0.442337 0.307425 0.236790
O61   O     O_R   0.087737 0.431712 0.321181 -0.319346
O62   O     O_R   0.036369 0.420743 0.279710 -0.313229
N8    N     N_R   0.491334 0.076031 0.306298 0.222096
O63   O     O_R   0.506895 0.109679 0.321218 -0.337749
O64   O     O_R   0.469708 0.079271 0.275507 -0.343763
N9    N     N_R   0.420485 0.995906 0.192074 0.227656
O65   O     O_R   0.388617 0.014244 0.176836 -0.333023
O66   O     O_R   0.414591 0.973596 0.222182 -0.317233
N10   N     N_R   0.942382 0.551713 0.192616 0.236940
O67   O     O_R   0.931762 0.587677 0.178862 -0.318422
O68   O     O_R   0.920790 0.536289 0.220351 -0.313059
N11   N     N_R   0.575929 0.991363 0.193704 0.222074
O69   O     O_R   0.609600 0.006889 0.178765 -0.337720
O70   O     O_R   0.579132 0.969748 0.224516 -0.343837
N12   N     N_R   0.058130 0.448739 0.192169 0.236961
O71   O     O_R   0.068726 0.412752 0.178307 -0.318444
O72   O     O_R   0.079795 0.464231 0.219782 -0.312957
N13   N     N_R   0.448830 0.058108 0.807791 0.236977
O73   O     O_R   0.412837 0.068715 0.821652 -0.318513
O74   O     O_R   0.464342 0.079762 0.780157 -0.312992
N14   N     N_R   0.995756 0.420587 0.807939 0.227634
O75   O     O_R   0.014095 0.388701 0.823152 -0.333218
O76   O     O_R   0.973407 0.414726 0.777868 -0.317413
N15   N     N_R   0.551787 0.942345 0.807423 0.236902
O77   O     O_R   0.587743 0.931724 0.821178 -0.318578
O78   O     O_R   0.536374 0.920749 0.779710 -0.313053
N16   N     N_R   0.991303 0.576029 0.806300 0.222061
O79   O     O_R   0.006849 0.609684 0.821220 -0.337841
O80   O     O_R   0.969676 0.579261 0.775508 -0.343878
C161  C     C_2   0.707242 0.419921 0.996481 0.942079
O81   O     O_2   0.671565 0.416377 0.984929 -0.603681
O82   O     O_R   0.728734 0.384414 0.008225 -0.783654
H33   H     H_    0.711343 0.358102 0.006126 0.362328
C162  C     C_2   0.420176 0.292134 0.003068 0.943418
O83   O     O_2   0.416533 0.327836 0.014600 -0.603647
O84   O     O_R   0.384740 0.270301 0.991280 -0.780081
H34   H     H_    0.358388 0.287487 0.993335 0.363923
C163  C     C_2   0.292768 0.580082 0.997112 0.941832
O85   O     O_2   0.328527 0.583629 0.985633 -0.604010
O86   O     O_R   0.271187 0.615590 0.008906 -0.783565
H35   H     H_    0.288587 0.641905 0.006900 0.362364
C164  C     C_2   0.579804 0.707872 0.003301 0.943308
O87   O     O_2   0.583396 0.672226 0.014874 -0.603599
O88   O     O_R   0.615290 0.729643 0.991457 -0.780422
H36   H     H_    0.641631 0.712464 0.993509 0.363796
C165  C     C_2   0.707872 0.579788 0.996391 0.943325
O89   O     O_2   0.672239 0.583346 0.984795 -0.603546
O90   O     O_R   0.729629 0.615307 0.008138 -0.780428
H37   H     H_    0.712450 0.641640 0.006003 0.363801
C166  C     C_2   0.419929 0.707241 0.003686 0.942103
O91   O     O_2   0.416416 0.671551 0.015235 -0.603592
O92   O     O_R   0.384387 0.728747 0.992056 -0.783664
H38   H     H_    0.358080 0.711356 0.994228 0.362358
C167  C     C_2   0.292140 0.420202 0.996636 0.943445
O93   O     O_2   0.327858 0.416632 0.985101 -0.603629
O94   O     O_R   0.270291 0.384692 0.008253 -0.780077
H39   H     H_    0.287480 0.358354 0.006084 0.363931
C168  C     C_2   0.580059 0.292768 0.003307 0.941875
O95   O     O_2   0.583533 0.328513 0.014811 -0.603992
O96   O     O_R   0.615642 0.271202 0.991667 -0.783586
H40   H     H_    0.641944 0.288601 0.993794 0.362339
C169  C     C_2   0.207243 0.919917 0.496500 0.942029
O97   O     O_2   0.171564 0.916367 0.484953 -0.603178
O98   O     O_R   0.228736 0.884415 0.508255 -0.783814
H41   H     H_    0.211346 0.858102 0.506167 0.362386
C170  C     C_2   0.920202 0.792137 0.503457 0.943515
O99   O     O_2   0.916629 0.827839 0.515006 -0.604369
O100  O     O_R   0.884693 0.770305 0.491845 -0.780051
H42   H     H_    0.858355 0.787492 0.494028 0.363634
C171  C     C_2   0.792751 0.080177 0.499407 0.941283
O101  O     O_2   0.828506 0.084135 0.488025 -0.602422
O102  O     O_R   0.771163 0.115249 0.512227 -0.783806
H43   H     H_    0.788557 0.141626 0.510974 0.362663
C172  C     C_2   0.079896 0.207962 0.497922 0.942104
O103  O     O_2   0.083334 0.171764 0.487693 -0.600550
O104  O     O_R   0.115635 0.230418 0.507891 -0.782205
H44   H     H_    0.141980 0.213235 0.505751 0.363303
C173  C     C_2   0.207869 0.079780 0.496323 0.940673
O105  O     O_2   0.172252 0.083331 0.484686 -0.597270
O106  O     O_R   0.229606 0.115302 0.508091 -0.781589
H45   H     H_    0.212427 0.141633 0.505938 0.363189
C174  C     C_2   0.919837 0.207339 0.502290 0.943202
O107  O     O_2   0.916477 0.171127 0.512461 -0.605331
O108  O     O_R   0.884043 0.229497 0.492408 -0.783930
H46   H     H_    0.857730 0.212111 0.494563 0.362862
C175  C     C_2   0.792159 0.920388 0.494319 0.943670
O109  O     O_2   0.827881 0.917232 0.482693 -0.603953
O110  O     O_R   0.770314 0.884480 0.504902 -0.780167
H47   H     H_    0.787512 0.858234 0.501977 0.363654
C176  C     C_2   0.080085 0.792765 0.502879 0.941831
O111  O     O_2   0.083635 0.828508 0.514370 -0.604017
O112  O     O_R   0.115593 0.771200 0.491046 -0.783524
H48   H     H_    0.141908 0.788598 0.493035 0.362403

loop_
_geom_bond_atom_site_label_1
_geom_bond_atom_site_label_2
_geom_bond_distance
_ccdc_geom_bond_type
C175  O109  1.222693 D    
O25   C13   1.276742 A    
C170  O99   1.222694 D    
C7    C143  1.419116 S    
C161  O81   1.222701 D    
O39   C153  1.279382 A    
O18   Zn2   2.007521 S    
N7    O61   1.301382 A    
C114  C130  1.425507 S    
C38   C52   1.399336 A    
N8    O63   1.301590 A    
C146  C153  1.418056 S    
C86   C108  1.399215 A    
O24   Zn4   2.007526 S    
C124  C148  1.197059 T    
C118  C134  1.425505 S    
C78   C100  1.399184 A    
C83   C95   1.421634 A    
C9    C56   1.462259 S    
C74   C104  1.399057 A    
C21   C59   1.413246 A    
C18   N2    1.438123 S    
C11   C54   1.452876 S    
C88   C94   1.421647 A    
H26   C112  1.084420 S    
C13   C52   1.462263 S    
C23   C59   1.413294 A    
C134  C142  1.196702 T    
C163  O86   1.399287 S    
C42   H10   1.083925 S    
H17   C101  1.084410 S    
C110  C120  1.391279 A    
C87   C175  1.493872 S    
C174  O108  1.399384 S    
C151  C158  1.417989 S    
C59   C67   1.430286 S    
O92   H38   1.014089 S    
C44   H12   1.083932 S    
C65   C72   1.193220 T    
C27   N11   1.442165 S    
O17   C9    1.276742 A    
C67   C70   1.197287 T    
C169  O97   1.222698 D    
C29   C63   1.413247 A    
C76   C102  1.399070 A    
C30   N14   1.442050 S    
C94   C126  1.433175 S    
C84   C172  1.494992 S    
C26   C42   1.396549 A    
C74   C90   1.421580 A    
C152  C159  1.417711 S    
C16   C49   1.462251 S    
O36   C156  1.279451 A    
C19   C57   1.413377 A    
C132  C140  1.196727 T    
O13   C5    1.271822 A    
C31   N15   1.438126 S    
C88   C106  1.399166 A    
C47   H15   1.083925 S    
H32   C106  1.084410 S    
O26   Zn6   2.007521 S    
O7    C3    1.271797 A    
C3    C139  1.419110 S    
N16   O79   1.301590 A    
O27   C13   1.275107 A    
O31   C15   1.273454 A    
O36   Zn9   1.996145 S    
O32   C16   1.275089 A    
C2    C138  1.419173 S    
N3    O54   1.301363 A    
C17   C57   1.412145 A    
C31   C63   1.413288 A    
C34   H2    1.083927 S    
N14   O76   1.301304 A    
N12   O72   1.301116 A    
O41   C157  1.280618 A    
C73   C89   1.421606 A    
C38   H6    1.083189 S    
O11   C7    1.271647 A    
O19   Zn3   2.007273 S    
C87   C95   1.421591 A    
C82   C170  1.493845 S    
C4    C140  1.419206 S    
O98   H41   1.014082 S    
O4    C4    1.271807 A    
C107  C119  1.391676 A    
C166  O91   1.222699 D    
O110  H47   1.014122 S    
O5    Zn3   1.992476 S    
O34   Zn9   1.994500 S    
C27   C43   1.396764 A    
C173  O105  1.222704 D    
O44   C160  1.279439 A    
C20   C58   1.413249 A    
O106  H45   1.014077 S    
O9    C5    1.271663 A    
C123  C147  1.197001 T    
N15   O78   1.301118 A    
C121  C145  1.197032 T    
C101  C113  1.391719 A    
O23   C11   1.273454 A    
C77   C97   1.399053 A    
C125  C149  1.197035 T    
N1    O49   1.301569 A    
C150  C157  1.418054 S    
C83   C111  1.399148 A    
C164  O88   1.399285 S    
H25   C109  1.084408 S    
C84   C96   1.422473 A    
C79   C99   1.399036 A    
O45   C159  1.279969 A    
O14   C8    1.271542 A    
C66   C71   1.197290 T    
C167  O94   1.399288 S    
C23   N7    1.438128 S    
O2    Zn2   1.992556 S    
C28   C62   1.413249 A    
C77   C165  1.493805 S    
H30   C108  1.084376 S    
C74   C162  1.493847 S    
C30   C64   1.412142 A    
C162  O84   1.399283 S    
N2    O52   1.301112 A    
O28   C14   1.273354 A    
O26   C14   1.273435 A    
H31   C107  1.084419 S    
O29   C15   1.273396 A    
O8    Zn4   1.990294 S    
O30   C16   1.276704 A    
C35   H3    1.083161 S    
O35   Zn9   1.994844 S    
H22   C100  1.084407 S    
N9    O65   1.301572 A    
C14   C51   1.452872 S    
C168  O96   1.399285 S    
C131  C139  1.196669 T    
C129  C137  1.196700 T    
C48   H16   1.083161 S    
C73   C161  1.493834 S    
C171  O102  1.399327 S    
C148  C155  1.418101 S    
C76   C92   1.421554 A    
C20   N4    1.438144 S    
N10   O67   1.301385 A    
C85   C93   1.421523 A    
C83   C171  1.493879 S    
C84   C110  1.399092 A    
C119  C135  1.425443 S    
C116  C132  1.425542 S    
H28   C110  1.084394 S    
O16   Zn8   1.990294 S    
O38   C154  1.280625 A    
C33   C49   1.399341 A    
C32   C64   1.413371 A    
N13   O73   1.301387 A    
C89   C121  1.433176 S    
H20   C102  1.084424 S    
O6    Zn2   1.990304 S    
O3    C3    1.271639 A    
N5    O58   1.301121 A    
H24   C98   1.084409 S    
C5    C141  1.419166 S    
C46   H14   1.083192 S    
C29   C45   1.396503 A    
C18   C34   1.396546 A    
O21   Zn3   2.006142 S    
O108  H46   1.014096 S    
C36   C50   1.395898 A    
C81   C93   1.421602 A    
O47   Zn12  1.994832 S    
C22   C38   1.394040 A    
O42   Zn11  1.994500 S    
C92   C124  1.433221 S    
C78   C166  1.493842 S    
N4    O55   1.301388 A    
C78   C92   1.421622 A    
C40   C52   1.399173 A    
O1    C1    1.271661 A    
C6    C142  1.419170 S    
C145  C156  1.418056 S    
C75   C91   1.421643 A    
C8    C144  1.418825 S    
N8    O64   1.301354 A    
C88   C176  1.493870 S    
C17   N1    1.442054 S    
C103  C115  1.391694 A    
O29   Zn7   2.006142 S    
C57   C65   1.423254 S    
N11   O69   1.301584 A    
C18   C58   1.413289 A    
C95   C127  1.433114 S    
C61   C69   1.423254 S    
C63   C71   1.430282 S    
C24   C60   1.413373 A    
O102  H43   1.014118 S    
C19   N3    1.442165 S    
C174  O107  1.222572 D    
C86   C96   1.422551 A    
O10   C6    1.271785 A    
C85   C173  1.493776 S    
C176  O112  1.399291 S    
O18   C10   1.273435 A    
H29   C105  1.084423 S    
O15   Zn5   1.992489 S    
C1    C137  1.419159 S    
C106  C118  1.391707 A    
C75   C103  1.399145 A    
C47   C55   1.395878 A    
O33   C153  1.280624 A    
C115  C131  1.425447 S    
C113  C129  1.425499 S    
C165  O90   1.399284 S    
H21   C97   1.084420 S    
C45   H13   1.083932 S    
C109  C117  1.391730 A    
C117  C133  1.425502 S    
O32   Zn8   2.007526 S    
O33   Zn9   1.995978 S    
O112  H48   1.014091 S    
O45   Zn12  1.995955 S    
H23   C99   1.084424 S    
C172  O104  1.399383 S    
C81   C109  1.399170 A    
C12   C53   1.462252 S    
C161  O82   1.399285 S    
O22   Zn2   2.005874 S    
C133  C141  1.196705 T    
O88   H36   1.014086 S    
C175  O110  1.399318 S    
C43   H11   1.083160 S    
O21   C11   1.273396 A    
C24   C40   1.396784 A    
O22   C12   1.276704 A    
N16   O80   1.301358 A    
O23   Zn1   2.007259 S    
C170  O100  1.399292 S    
C169  O98   1.399282 S    
C80   C168  1.493875 S    
O84   H34   1.014081 S    
C28   C44   1.396520 A    
N15   O77   1.301380 A    
O3    Zn3   1.990222 S    
C24   N8    1.442171 S    
C163  O85   1.222697 D    
O8    C2    1.271627 A    
O96   H40   1.014082 S    
C39   H7    1.083927 S    
O28   Zn8   2.005882 S    
C93   C125  1.433177 S    
C25   C41   1.394053 A    
O100  H42   1.014086 S    
O30   Zn6   2.005874 S    
C91   C123  1.433115 S    
C15   C50   1.452876 S    
C98   C114  1.391706 A    
C135  C143  1.196665 T    
C39   C51   1.395875 A    
C27   C61   1.413376 A    
C28   N12   1.438146 S    
C41   C53   1.399342 A    
O48   Zn12  1.994512 S    
C25   N9    1.442053 S    
C127  C151  1.197003 T    
O104  H44   1.014087 S    
O11   Zn7   1.990222 S    
O41   Zn11  1.995978 S    
O12   C8    1.271703 A    
O16   C6    1.271627 A    
C96   C128  1.432696 S    
O40   C156  1.280569 A    
C87   C107  1.399026 A    
C45   C55   1.395886 A    
C32   N16   1.442168 S    
C64   C72   1.423253 S    
C149  C160  1.418056 S    
O6    C4    1.271648 A    
C147  C154  1.417993 S    
O47   C157  1.279388 A    
C33   H1    1.083191 S    
O94   H39   1.014081 S    
O42   C158  1.279345 A    
C164  O87   1.222698 D    
O31   Zn5   2.007259 S    
H19   C103  1.084411 S    
C20   C36   1.396520 A    
C167  O93   1.222693 D    
O17   Zn1   2.006139 S    
O34   C154  1.279351 A    
O90   H37   1.014080 S    
C48   C56   1.399177 A    
N6    O59   1.301575 A    
C162  O83   1.222695 D    
O48   C160  1.280581 A    
C82   C94   1.421583 A    
C80   C90   1.421647 A    
O13   Zn7   1.992476 S    
O86   H35   1.014087 S    
O2    C2    1.271785 A    
C168  O95   1.222697 D    
O43   Zn11  1.994844 S    
C122  C146  1.197040 T    
C23   C39   1.396563 A    
C171  O101  1.222701 D    
O4    Zn4   1.992547 S    
C42   C54   1.395866 A    
N14   O75   1.301578 A    
C126  C150  1.197040 T    
N10   O68   1.301111 A    
O35   C155  1.280592 A    
N12   O71   1.301391 A    
O37   C155  1.279455 A    
C17   C33   1.394056 A    
C80   C98   1.399170 A    
C102  C116  1.391706 A    
C76   C164  1.493813 S    
C77   C89   1.421543 A    
C60   C68   1.423251 S    
O82   H33   1.014085 S    
C166  O92   1.399287 S    
C82   C112  1.399056 A    
C43   C53   1.399164 A    
C26   N10   1.438124 S    
C40   H8    1.083161 S    
N5    O57   1.301387 A    
C79   C167  1.493862 S    
O37   Zn10  1.995955 S    
C22   N6    1.442054 S    
O15   C7    1.271799 A    
C173  O106  1.399278 S    
C120  C136  1.425225 S    
C86   C174  1.495051 S    
C75   C163  1.493885 S    
C130  C138  1.196706 T    
C81   C169  1.493833 S    
O43   C159  1.279874 A    
C32   C48   1.396786 A    
N11   O70   1.301361 A    
O25   Zn5   2.006139 S    
C105  C117  1.391709 A    
O27   Zn7   2.007273 S    
C128  C152  1.196922 T    
C37   C51   1.395886 A    
O7    Zn1   1.992489 S    
C108  C120  1.391300 A    
C21   C37   1.396503 A    
N1    O50   1.301310 A    
N4    O56   1.301116 A    
H18   C104  1.084423 S    
C44   C54   1.395901 A    
C46   C56   1.399337 A    
C10   C55   1.452875 S    
C22   C60   1.412142 A    
C34   C50   1.395867 A    
O19   C9    1.275107 A    
O46   C158  1.280631 A    
N2    O51   1.301386 A    
C90   C122  1.433178 S    
O24   C12   1.275089 A    
C85   C105  1.399043 A    
O5    C1    1.271820 A    
C21   N5    1.438142 S    
O12   Zn8   1.992547 S    
C36   H4    1.083931 S    
O14   Zn6   1.990304 S    
C73   C101  1.399164 A    
C79   C91   1.421582 A    
N9    O66   1.301308 A    
C31   C47   1.396563 A    
O40   Zn10  1.994512 S    
O44   Zn11  1.996145 S    
N3    O53   1.301583 A    
C30   C46   1.394040 A    
C19   C35   1.396764 A    
H27   C111  1.084402 S    
C37   H5    1.083936 S    
N7    O62   1.301116 A    
C112  C118  1.391687 A    
C25   C61   1.412148 A    
N6    O60   1.301303 A    
C111  C119  1.391708 A    
C104  C114  1.391688 A    
C176  O111  1.222699 D    
C99   C115  1.391672 A    
C97   C113  1.391703 A    
O20   Zn4   2.005882 S    
C41   H9    1.083191 S    
C100  C116  1.391724 A    
O20   C10   1.273354 A    
N13   O74   1.301123 A    
C29   N13   1.438142 S    
C165  O89   1.222698 D    
O10   Zn6   1.992556 S    
O46   Zn12  1.996166 S    
C58   C66   1.430282 S    
O9    Zn5   1.990238 S    
C136  C144  1.196508 T    
C26   C62   1.413290 A    
C62   C70   1.430282 S    
C35   C49   1.399165 A    
C172  O103  1.222575 D    
O38   Zn10  1.996166 S    
O39   Zn10  1.994832 S    
O1    Zn1   1.990238 S    
C68   C69   1.193221 T    
