data_mof_unit_67812.cif
_audit_creation_date              2013-03-05T15:41:23-0500
_audit_creation_method            fapswitch 2.2
_symmetry_space_group_name_H-M    P1
_symmetry_Int_Tables_number       1
_space_group_crystal_system       triclinic
_cell_length_a                    8.170519
_cell_length_b                    8.822025
_cell_length_c                    10.967886
_cell_angle_alpha                 93.851599
_cell_angle_beta                  86.440806
_cell_angle_gamma                 90.366462
_cell_volume                      787.261977698

loop_
_atom_site_label
_atom_site_type_symbol
_atom_site_description
_atom_site_fract_x
_atom_site_fract_y
_atom_site_fract_z
_atom_type_partial_charge
O1    O     O_R   0.389250 0.738570 0.508370 -0.580669
O2    O     O_R   0.678390 0.711620 0.486510 -0.570059
C1    C     C_R   0.541160 0.791817 0.496481 0.939296
O3    O     O_R   0.355430 0.513500 0.696140 -0.564521
O4    O     O_R   0.644580 0.486550 0.674270 -0.582701
C2    C     C_R   0.503006 0.506725 0.740324 0.988877
Zn1   Zn    Zn3+2 0.306940 0.517990 0.514600 1.214640
Zn2   Zn    Zn3+2 0.693060 0.482010 0.485400 1.210478
O5    O     O_R   0.321610 0.288380 0.513490 -0.573498
O6    O     O_R   0.610750 0.261430 0.491630 -0.588909
O7    O     O_R   0.355420 0.513450 0.325730 -0.572406
O8    O     O_R   0.644570 0.486500 0.303860 -0.557579
C3    C     C_R   0.458506 0.208239 0.500165 0.890461
C4    C     C_R   0.498626 0.499648 0.258612 1.022172
C5    C     C_3   0.397898 0.655876 0.938211 0.303674
C6    C     C_3   0.376096 0.639020 0.086047 0.267619
C7    C     C_3   0.432057 0.350806 0.917596 0.318624
C8    C     C_3   0.693937 0.528927 0.917728 0.267216
C9    C     C_3   0.506342 0.510845 0.876649 -0.489834
C10   C     C_3   0.499992 0.504513 0.120317 -0.537161
C11   C     C_3   0.443078 0.338575 0.063143 0.295912
C12   C     C_3   0.687140 0.535521 0.065227 0.282776
C13   C     C_2   0.560358 0.950178 0.477660 0.098375
C14   C     C_2   0.435431 0.048025 0.503611 0.067844
N1    N     N_2   0.950330 0.457950 0.465890 0.085996
N2    N     N_2   0.049670 0.542050 0.534110 0.095571
Br1   Br    Br    0.187809 0.698056 0.866726 -0.105458
Br2   Br    Br    0.842083 0.379690 0.118379 -0.097879
Br3   Br    Br    0.511426 0.179218 0.805697 -0.209726
N3    N     N_R   0.550682 0.216854 0.101305 0.262184
O9    O     O_R   0.550443 0.189919 0.216690 -0.334178
O10   O     O_R   0.636029 0.124604 0.026193 -0.152819
Br4   Br    Br    0.762571 0.996799 0.387961 -0.090628
N4    N     N_R   0.270732 0.997993 0.530344 0.233867
O11   O     O_R   0.198354 0.033075 0.637434 -0.238655
O12   O     O_R   0.182885 0.955978 0.439003 -0.230579
Br5   Br    Br    0.027525 0.271731 0.400950 -0.086165
Br6   Br    Br    0.982123 0.738199 0.584831 -0.071569
N5    N     N_R   0.473063 0.800060 0.900971 0.256456
O13   O     O_R   0.502802 0.814832 0.783994 -0.361268
O14   O     O_R   0.434481 0.925683 0.963051 -0.198129
N6    N     N_R   0.397720 0.787357 0.156614 0.275678
O15   O     O_R   0.282783 0.889367 0.155944 -0.176798
O16   O     O_R   0.486232 0.798473 0.250553 -0.381725
N7    N     N_R   0.207069 0.595540 0.124890 0.247806
O17   O     O_R   0.111988 0.529093 0.049475 -0.294739
O18   O     O_R   0.140152 0.645378 0.230808 -0.227040
Br7   Br    Br    0.210427 0.311543 0.863146 -0.106273
Br8   Br    Br    0.236530 0.262221 0.138061 -0.118356
N8    N     N_R   0.807310 0.408371 0.856081 0.269809
O19   O     O_R   0.809368 0.268813 0.884840 -0.221765
O20   O     O_R   0.913454 0.440206 0.767813 -0.273459
Br9   Br    Br    0.800342 0.715631 0.856664 -0.126758
N9    N     N_R   0.749668 0.683360 0.119831 0.263589
O21   O     O_R   0.706349 0.814833 0.085836 -0.226288
O22   O     O_R   0.835438 0.686410 0.215689 -0.211329

loop_
_geom_bond_atom_site_label_1
_geom_bond_atom_site_label_2
_geom_bond_distance
_ccdc_geom_bond_type
C6    N7    1.475809 S    
O4    Zn2   2.082502 S    
N8    O20   1.302847 A    
C13   C14   1.345437 D    
C2    C9    1.495134 S    
C4    C10   1.519639 S    
N3    O10   1.293499 A    
C7    Br3   1.970375 S    
C11   N3    1.489768 S    
C1    C13   1.432096 S    
C7    Br7   1.963211 S    
C6    C10   1.642140 S    
Zn2   O8    2.057133 S    
N1    Br5   1.845067 S    
C7    C11   1.615295 S    
C11   Br8   1.965855 S    
O2    C1    1.324471 A    
N5    O14   1.291374 A    
C12   Br2   2.013458 S    
N7    O17   1.280678 A    
C5    C9    1.643824 S    
Zn2   N1    2.110244 S    
C12   N9    1.498414 S    
C5    N5    1.480080 S    
O4    C2    1.332600 A    
Zn1   N2    2.110244 S    
N6    O16   1.293143 A    
O3    Zn1   2.057134 S    
O3    C2    1.330290 A    
C7    C9    1.613639 S    
C10   C12   1.637128 S    
Zn1   O7    2.082501 S    
N4    O12   1.300837 A    
N7    O18   1.302828 A    
N3    O9    1.303120 A    
N4    O11   1.300892 A    
O7    C4    1.344851 A    
N9    O22   1.297928 A    
N6    O15   1.305525 A    
C5    C6    1.636805 S    
C6    N6    1.490209 S    
C10   C11   1.629927 S    
C8    N8    1.511486 S    
Zn2   O6    2.058915 S    
C8    C9    1.628099 S    
N5    O13   1.305921 A    
Zn1   O5    2.029109 S    
O5    C3    1.322207 A    
N9    O21   1.299727 A    
N2    Br6   1.858281 S    
O1    Zn1   2.058916 S    
C8    Br9   1.993723 S    
N8    O19   1.291776 A    
N1    N2    1.327487 D    
C8    C12   1.612400 S    
C5    Br1   1.978417 S    
O2    Zn2   2.029109 S    
C13   Br4   1.926296 S    
C3    C14   1.427440 S    
O8    C4    1.328393 A    
O1    C1    1.326231 A    
O6    C3    1.326743 A    
C14   N4    1.432638 S    
