data_mof_unit_22456.cif
_audit_creation_date              2012-12-10T17:54:21-0500
_audit_creation_method            fapswitch 2.2
_symmetry_space_group_name_H-M    P1
_symmetry_Int_Tables_number       1
_space_group_crystal_system       triclinic
_cell_length_a                    27.73455
_cell_length_b                    10.613489
_cell_length_c                    9.91322
_cell_angle_alpha                 89.900719
_cell_angle_beta                  90.049013
_cell_angle_gamma                 91.600202
_cell_volume                      2916.91549876

loop_
_atom_site_label
_atom_site_type_symbol
_atom_type_description
_atom_site_fract_x
_atom_site_fract_y
_atom_site_fract_z
_atom_type_partial_charge
C1    C     C_R   0.501187 0.260736 0.500137 0.853949
C2    C     C_R   0.277965 0.496888 0.377128 -0.099611
C3    C     C_R   0.252943 0.493586 0.499449 0.318837
C4    C     C_R   0.101760 0.500134 0.502576 -0.054933
C5    C     C_R   0.125537 0.389007 0.536911 -0.020481
C6    C     C_R   0.098670 0.281237 0.573372 -0.134053
C7    C     C_R   0.129110 0.608689 0.466264 -0.022651
C8    C     C_R   0.353417 0.496613 0.499754 -0.040468
C9    C     C_R   0.646557 0.503445 0.501166 -0.049623
C10   C     C_R   0.972634 0.392173 0.528981 0.049399
C11   C     C_R   0.976499 0.621041 0.485718 -0.003777
C12   C     C_R   0.406102 0.499148 0.499928 0.854831
C13   C     C_R   0.949246 0.508105 0.507637 0.077327
C14   C     C_R   0.944067 0.280535 0.541523 -0.203150
C15   C     C_R   0.894262 0.283450 0.539377 -0.090136
C16   C     C_R   0.870990 0.397370 0.523828 -0.017538
C17   C     C_R   0.898134 0.510824 0.507923 -0.092067
C18   C     C_R   0.874141 0.626262 0.492127 -0.107979
C19   C     C_R   0.823241 0.622928 0.490912 0.558315
C20   C     C_R   0.820783 0.399810 0.522423 0.511996
C21   C     C_R   0.722466 0.517729 0.381446 -0.085106
C22   C     C_R   0.672352 0.514196 0.379679 -0.188330
C23   C     C_R   0.501090 0.739405 0.499821 0.877132
C24   C     C_R   0.671518 0.496481 0.624213 -0.190491
C25   C     C_R   0.721580 0.499802 0.625552 -0.056789
C26   C     C_R   0.746967 0.510313 0.504294 0.301791
C27   C     C_R   0.023642 0.391106 0.535640 0.047033
C28   C     C_R   0.050738 0.502717 0.504566 0.075332
C29   C     C_R   0.027389 0.616878 0.475377 0.066427
C30   C     C_R   0.048690 0.282069 0.573140 -0.212939
C31   C     C_R   0.105801 0.718811 0.431114 -0.134768
C32   C     C_R   0.951986 0.735324 0.476715 -0.253328
C33   C     C_R   0.901978 0.739299 0.479344 0.338635
C34   C     C_R   0.593891 0.500774 0.500165 0.847230
C35   C     C_R   0.055908 0.722958 0.434982 -0.212090
C36   C     C_R   0.583886 0.136724 0.614051 -0.235563
C37   C     C_R   0.622932 0.073448 0.667842 -0.141951
C38   C     C_R   0.623063 0.942190 0.666624 0.341529
C39   C     C_R   0.584013 0.874022 0.611958 -0.242463
C40   C     C_R   0.543993 0.936871 0.557979 0.046102
C41   C     C_R   0.543954 0.068862 0.558719 0.101122
C42   C     C_R   0.504256 0.128641 0.500038 -0.067972
C43   C     C_R   0.466548 0.062120 0.437754 -0.212674
C44   C     C_R   0.466536 0.933401 0.437438 -0.189702
C45   C     C_R   0.175962 0.388721 0.534846 0.504677
C46   C     C_R   0.504269 0.871899 0.499208 -0.076784
C47   C     C_R   0.436599 0.335394 0.140208 -0.158881
C48   C     C_R   0.405330 0.254389 0.070094 -0.193249
C49   C     C_R   0.405354 0.254286 0.930466 -0.184147
C50   C     C_R   0.436654 0.335166 0.860130 -0.156690
C51   C     C_R   0.468766 0.418824 0.927774 0.167513
C52   C     C_R   0.468757 0.418909 0.072371 0.171310
C53   C     C_R   0.529934 0.577488 0.071410 -0.104387
C54   C     C_R   0.529920 0.577468 0.928286 -0.104735
C55   C     C_R   0.179448 0.604189 0.465296 0.507550
C56   C     C_R   0.277912 0.490720 0.621883 -0.100886
C57   C     C_R   0.328002 0.492199 0.622238 -0.219543
C58   C     C_R   0.328056 0.498244 0.377075 -0.222897
H1    H     H_    0.346815 0.501068 0.281282 0.167732
H2    H     H_    0.126054 0.802699 0.400099 0.194207
H3    H     H_    0.970933 0.825138 0.471318 0.166095
H4    H     H_    0.652469 0.488257 0.719286 0.169600
H5    H     H_    0.740736 0.493989 0.720498 0.146952
H6    H     H_    0.040774 0.810180 0.402026 0.149375
H7    H     H_    0.436666 0.110146 0.391719 0.140215
H8    H     H_    0.585709 0.238565 0.614428 0.165820
H9    H     H_    0.258514 0.498836 0.282408 0.141783
H10   H     H_    0.585812 0.772398 0.610261 0.163548
H11   H     H_    0.436622 0.881356 0.391343 0.155687
H12   H     H_    0.554401 0.640810 0.125077 0.156407
H13   H     H_    0.434484 0.329643 0.247153 0.199195
H14   H     H_    0.380970 0.191206 0.124635 0.156646
H15   H     H_    0.381002 0.191037 0.876110 0.161668
H16   H     H_    0.554371 0.640800 0.874411 0.160117
H17   H     H_    0.116177 0.195325 0.602506 0.191960
H18   H     H_    0.653912 0.520092 0.283622 0.166911
H19   H     H_    0.742331 0.525543 0.287668 0.146988
H20   H     H_    0.873983 0.195259 0.549728 0.228438
H21   H     H_    0.959017 0.188274 0.549743 0.159205
H22   H     H_    0.030794 0.196113 0.606147 0.146917
H23   H     H_    0.346716 0.490284 0.718134 0.167330
N1    N     N_R   0.201611 0.495364 0.499494 -0.357869
N2    N     N_R   0.798297 0.511125 0.505848 -0.369650
N3    N     N_R   0.499540 0.498800 0.142780 -0.124470
N4    N     N_R   0.499520 0.498720 0.857170 -0.124672
O1    O     O_R   0.500000 0.316780 0.614690 -0.638930
O2    O     O_2   0.794391 0.291731 0.536725 -0.521590
O3    O     O_2   0.206150 0.707824 0.431703 -0.552801
O4    O     O_2   0.798369 0.729133 0.474911 -0.453861
O5    O     O_R   0.500000 0.316750 0.385360 -0.626815
O6    O     O_R   0.428760 0.500030 0.614650 -0.636731
O7    O     O_R   0.428750 0.500010 0.385320 -0.641743
O8    O     O_R   0.500000 0.683250 0.614640 -0.612598
O9    O     O_R   0.500000 0.683220 0.385310 -0.609666
O10   O     O_R   0.571250 0.499990 0.614680 -0.630968
O11   O     O_R   0.571240 0.499970 0.385350 -0.613096
O12   O     O_2   0.199270 0.282801 0.567051 -0.555614
Zn1   Zn    Zn3+2 0.500000 0.500020 0.653130 0.940850
Zn2   Zn    Zn3+2 0.500000 0.499980 0.346870 0.948555
H24   H     H_    0.258425 0.488366 0.716517 0.141874
Br1   Br    Br    0.876281 0.905897 0.466473 -0.423455
H25   H     H_    0.653321 0.126737 0.709225 0.182711
Br2   Br    Br    0.677032 0.855359 0.737144 -0.461536
H26   H     H_    0.434614 0.329207 0.753170 0.204068

loop_
_geom_bond_atom_site_label_1
_geom_bond_atom_site_label_2
_ccdc_geom_bond_type
C10   C27   A    
C21   C26   A    
O11   Zn2   S    
C50   H26   S    
C26   N2    S    
C41   C42   A    
C12   O6    A    
C45   N1    A    
C22   H18   S    
C51   N4    A    
O10   Zn1   S    
C6    H17   S    
C53   C54   A    
C40   C46   A    
C28   C29   A    
C38   Br2   S    
C53   N3    A    
C33   Br1   S    
C36   C37   A    
C34   O11   A    
C32   H3    S    
C25   H5    S    
C5    C6    A    
C36   H8    S    
C9    C22   A    
C15   H20   S    
C15   C16   A    
C20   O2    S    
C56   C57   A    
C18   C19   A    
C39   H10   S    
C55   O3    S    
C52   N3    A    
N4    Zn1   S    
C8    C58   A    
C54   H16   S    
C16   C17   A    
C35   H6    S    
C7    C55   A    
C8    C12   S    
C18   C33   A    
C16   C20   A    
C30   H22   S    
C23   C46   S    
C21   C22   A    
C27   C30   A    
C36   C41   A    
C48   H14   S    
C4    C7    A    
C19   N2    A    
C53   H12   S    
C4    C28   A    
C44   C46   A    
C17   C18   A    
C38   C39   A    
C7    C31   A    
C51   C52   A    
C34   O10   A    
C2    H9    S    
C10   C14   A    
C39   C40   A    
C58   H1    S    
C5    C45   A    
C23   O8    A    
C31   H2    S    
C43   C44   A    
C37   C38   A    
C19   O4    S    
C8    C57   A    
C3    C56   A    
C47   C48   A    
C43   H7    S    
C3    N1    S    
C50   C51   A    
C44   H11   S    
C14   H21   S    
C24   C25   A    
C55   N1    A    
C47   H13   S    
C48   C49   A    
C6    C30   A    
C11   C32   A    
C9    C34   S    
C31   C35   A    
C42   C43   A    
C56   H24   S    
C1    O5    A    
O5    Zn2   S    
C1    O1    A    
C40   C41   A    
C24   H4    S    
N3    Zn2   S    
C12   O7    A    
C4    C5    A    
C10   C13   A    
C54   N4    A    
C2    C58   A    
C9    C24   A    
C47   C52   A    
C29   C35   A    
C23   O9    A    
C13   C17   A    
C32   C33   A    
C2    C3    A    
C25   C26   A    
C45   O12   S    
C11   C13   A    
C37   H25   S    
O9    Zn2   S    
C49   H15   S    
O6    Zn1   S    
O1    Zn1   S    
C57   H23   S    
C1    C42   S    
C11   C29   A    
C49   C50   A    
C20   N2    A    
C21   H19   S    
C27   C28   A    
C14   C15   A    
O8    Zn1   S    
O7    Zn2   S    
