data_mof_unit_30816.cif
_audit_creation_date              2013-03-05T15:45:56-0500
_audit_creation_method            fapswitch 2.2
_symmetry_space_group_name_H-M    P1
_symmetry_Int_Tables_number       1
_space_group_crystal_system       triclinic
_cell_length_a                    18.351997
_cell_length_b                    18.408427
_cell_length_c                    18.310786
_cell_angle_alpha                 119.933546
_cell_angle_beta                  120.240254
_cell_angle_gamma                 59.62582
_cell_volume                      4355.86119209

loop_
_atom_site_label
_atom_site_type_symbol
_atom_site_description
_atom_site_fract_x
_atom_site_fract_y
_atom_site_fract_z
_atom_type_partial_charge
Zn1   Zn    Zn3+2 0.956630 0.130130 0.543370 0.983070
Zn2   Zn    Zn3+2 0.130140 0.956620 0.543380 0.956820
Zn3   Zn    Zn3+2 0.956630 0.956620 0.369870 1.001515
Zn4   Zn    Zn3+2 0.956610 0.956630 0.543370 0.958760
O1    O     O_3   0.000000 1.000000 0.500000 -0.493128
O2    O     O_R   0.055060 0.884200 0.615800 -0.646736
O3    O     O_R   0.884210 0.176520 0.444920 -0.646654
O4    O     O_R   0.176540 0.055080 0.615800 -0.659868
O5    O     O_R   0.884190 0.884200 0.323480 -0.630520
O6    O     O_R   0.176540 0.884190 0.444930 -0.627109
O7    O     O_R   0.884180 0.055090 0.615790 -0.618774
O8    O     O_R   0.055100 0.884190 0.323490 -0.640487
O9    O     O_R   0.884190 0.176530 0.615790 -0.635025
O10   O     O_R   0.055100 0.176520 0.615800 -0.615298
O11   O     O_R   0.884180 0.884200 0.444920 -0.642988
O12   O     O_R   0.176510 0.884190 0.615800 -0.653897
O13   O     O_R   0.884210 0.055080 0.323480 -0.608482
C1    C     C_R   0.140370 0.863075 0.643095 0.855854
C2    C     C_R   0.860759 0.139730 0.359926 0.898817
C3    C     C_R   0.141038 0.139597 0.642002 0.778707
C4    C     C_R   0.862741 0.857079 0.359680 0.816403
C5    C     C_R   0.140044 0.858868 0.360022 0.864199
C6    C     C_R   0.862265 0.139058 0.642250 0.803896
C7    C     C_R   0.910900 0.120969 0.817005 0.144674
C8    C     C_R   0.949641 0.138343 0.909756 -0.328223
C9    C     C_R   0.907616 0.215459 0.967482 0.496632
C10   C     C_R   0.823047 0.271112 0.931057 -0.172518
C11   C     C_R   0.782093 0.254830 0.837798 -0.053743
C12   C     C_R   0.831919 0.187031 0.781418 0.037955
C13   C     C_R   0.692429 0.305364 0.800712 -0.066003
C14   C     C_R   0.655944 0.300561 0.709485 -0.042965
C15   C     C_R   0.714005 0.246767 0.658276 -0.064737
C16   C     C_R   0.801977 0.191160 0.694583 -0.077178
C17   C     C_R   0.564353 0.348140 0.667556 0.147556
C18   C     C_R   0.534964 0.347410 0.579786 0.321413
C19   C     C_R   0.595808 0.299197 0.532452 0.360183
C20   C     C_R   0.682041 0.246839 0.570083 -0.210624
H1    H     H_    0.010642 0.089405 0.936556 0.136396
H2    H     H_    0.789986 0.328705 0.976240 0.134380
H3    H     H_    0.723791 0.206569 0.528439 0.194754
C21   C     C_R   0.931070 0.254260 0.370201 -0.180226
H4    H     H_    0.975539 0.207866 0.407131 0.143196
C22   C     C_R   0.964786 0.312860 0.381399 -0.302674
H5    H     H_    0.032336 0.310584 0.426562 0.145192
C23   C     C_R   0.912488 0.373918 0.335141 0.473174
C24   C     C_R   0.826243 0.373291 0.273497 0.205252
C25   C     C_R   0.790124 0.312308 0.260228 -0.093260
C26   C     C_R   0.843356 0.254479 0.312177 -0.017362
C27   C     C_R   0.809389 0.195595 0.303547 -0.139329
C28   C     C_R   0.725703 0.189384 0.241556 0.336463
C29   C     C_R   0.670997 0.247632 0.191364 0.329811
C30   C     C_R   0.703791 0.305898 0.198068 -0.159943
H6    H     H_    0.753776 0.842140 0.190419 0.202449
C31   C     C_R   0.872511 0.725271 0.414761 -0.131772
H7    H     H_    0.935336 0.736052 0.443269 0.153041
C32   C     C_R   0.860189 0.686968 0.454946 -0.215970
H8    H     H_    0.912046 0.670628 0.514287 0.160412
C33   C     C_R   0.778098 0.677044 0.423134 -0.130336
H9    H     H_    0.764720 0.657466 0.460762 0.165699
C34   C     C_R   0.711180 0.697734 0.346303 0.488578
C35   C     C_R   0.731350 0.718186 0.294116 -0.082271
C36   C     C_R   0.805281 0.747300 0.337622 0.065042
C37   C     C_R   0.809226 0.798115 0.303063 -0.170062
C38   C     C_R   0.752103 0.802348 0.217218 -0.180592
C39   C     C_R   0.690257 0.758175 0.165607 0.446960
C40   C     C_R   0.682637 0.710747 0.201637 -0.250461
C41   C     C_R   0.203614 0.947298 0.843943 0.163102
C42   C     C_R   0.216015 0.983785 0.936059 0.211830
C43   C     C_R   0.252181 0.928119 0.985166 -0.370417
H10   H     H_    0.261458 0.957748 0.056017 0.148134
C44   C     C_R   0.283583 0.835362 0.946583 0.426198
C45   C     C_R   0.269829 0.796543 0.853225 0.038485
C46   C     C_R   0.223092 0.852872 0.799758 -0.152159
C47   C     C_R   0.198384 0.811757 0.704423 -0.076642
C48   C     C_R   0.227153 0.718484 0.665452 0.224650
H11   H     H_    0.306504 0.593565 0.688466 0.146460
C49   C     C_R   0.282375 0.665403 0.719292 -0.297169
C50   C     C_R   0.302831 0.702785 0.811288 -0.060877
H12   H     H_    0.179194 0.908158 0.277835 0.137246
C51   C     C_R   0.224572 0.661464 0.327722 0.165858
C52   C     C_R   0.269730 0.569880 0.313960 -0.314180
H13   H     H_    0.261396 0.538434 0.344634 0.146015
C53   C     C_R   0.324035 0.518644 0.260391 0.492524
C54   C     C_R   0.333833 0.559610 0.220907 -0.161478
H14   H     H_    0.375896 0.517825 0.179412 0.154284
C55   C     C_R   0.291558 0.652206 0.235272 -0.086646
C56   C     C_R   0.236326 0.704692 0.289785 0.059187
C57   C     C_R   0.195738 0.798016 0.303887 -0.067251
C58   C     C_R   0.209365 0.836727 0.265077 -0.285393
C59   C     C_R   0.264649 0.785787 0.213363 0.222917
C60   C     C_R   0.304226 0.693411 0.196667 -0.059316
C61   C     C_R   0.313639 0.087775 0.787163 -0.338629
H15   H     H_    0.284271 0.037298 0.742064 0.193408
C62   C     C_R   0.389067 0.067537 0.860920 0.345327
C63   C     C_R   0.431060 0.131172 0.923934 0.503793
C64   C     C_R   0.400640 0.210558 0.909147 -0.221977
H16   H     H_    0.433583 0.258550 0.960460 0.214198
C65   C     C_R   0.328737 0.228571 0.831694 -0.010133
C66   C     C_R   0.280054 0.169309 0.772328 0.033408
C67   C     C_R   0.199463 0.194418 0.701397 -0.109536
C68   C     C_R   0.171890 0.275621 0.688891 0.204320
H17   H     H_    0.208601 0.387997 0.731176 0.168552
C69   C     C_R   0.225641 0.328874 0.743909 -0.242477
C70   C     C_R   0.303615 0.305371 0.813174 -0.070300
Zn5   Zn    Zn3+2 0.543340 0.369890 0.956600 0.988441
Zn6   Zn    Zn3+2 0.543340 0.543410 0.130100 1.014470
Zn7   Zn    Zn3+2 0.369830 0.543410 0.956590 1.005971
Zn8   Zn    Zn3+2 0.543370 0.543400 0.956600 1.007042
O14   O     O_3   0.499970 0.500030 0.999970 -0.505446
O15   O     O_R   0.615800 0.615830 0.055050 -0.612670
O16   O     O_R   0.444880 0.323510 0.884180 -0.636679
O17   O     O_R   0.615760 0.444950 0.176490 -0.624323
O18   O     O_R   0.323460 0.615830 0.884170 -0.609435
O19   O     O_R   0.444880 0.615840 0.176480 -0.626584
O20   O     O_R   0.615800 0.444940 0.884180 -0.629664
O21   O     O_R   0.323440 0.615840 0.055040 -0.619266
O22   O     O_R   0.615780 0.323500 0.884180 -0.641319
O23   O     O_R   0.615760 0.323500 0.055050 -0.613305
O24   O     O_R   0.444910 0.615830 0.884180 -0.632297
O25   O     O_R   0.615780 0.615830 0.176490 -0.612286
O26   O     O_R   0.323430 0.444950 0.884170 -0.649739
C71   C     C_R   0.635325 0.645106 0.141162 0.798564
C72   C     C_R   0.359850 0.360440 0.862463 0.785164
C73   C     C_R   0.643210 0.360632 0.140370 0.948445
C74   C     C_R   0.359748 0.640523 0.860668 0.912363
C75   C     C_R   0.359939 0.640872 0.140025 0.837870
C76   C     C_R   0.638072 0.360560 0.858547 0.842001
O27   O     O_3   0.573698 0.300664 0.449019 -0.742464
H18   H     H_    0.525960 0.358036 0.442689 0.347749
O28   O     O_3   0.944696 0.434068 0.347154 -0.787785
H19   H     H_    0.005513 0.426511 0.392866 0.329757
N1    N     N_2   0.777245 0.435169 0.226329 -0.291708
H20   H     H_    0.779160 0.498702 0.265810 0.269981
C77   C     C_3   0.795985 0.403830 0.145994 -0.694733
H21   H     H_    0.747167 0.450602 0.107451 0.198053
H22   H     H_    0.789263 0.337033 0.103848 0.237101
H23   H     H_    0.864821 0.400038 0.162997 0.292048
O29   O     O_3   0.583177 0.252563 0.138245 -0.728204
H24   H     H_    0.558720 0.238745 0.165461 0.377761
O30   O     O_3   0.625048 0.711468 0.333579 -0.734812
H25   H     H_    0.583136 0.753380 0.299024 0.326354
N2    N     N_2   0.943243 0.031956 0.762030 -0.277190
H26   H     H_    0.009873 0.997954 0.789891 0.227380
C78   C     C_3   0.887645 0.979747 0.727243 -0.646325
H27   H     H_    0.914548 0.913122 0.681202 0.236636
H28   H     H_    0.817723 0.012761 0.689181 0.244293
H29   H     H_    0.887574 0.970815 0.782929 0.215609
O31   O     O_3   0.635715 0.766733 0.082145 -0.722603
H30   H     H_    0.576430 0.766535 0.069058 0.345077
N3    N     N_2   0.199432 0.677212 0.571013 -0.323442
H31   H     H_    0.251572 0.626461 0.548647 0.237095
C79   C     C_3   0.124474 0.648504 0.535895 -0.806704
H32   H     H_    0.100645 0.625186 0.461700 0.242424
H33   H     H_    0.068558 0.704524 0.559346 0.251412
H34   H     H_    0.145060 0.592634 0.558117 0.244140
N4    N     N_2   0.193024 0.002586 0.803659 -0.311952
H35   H     H_    0.228805 0.973302 0.761873 0.226345
C80   C     C_3   0.108533 0.073207 0.783845 -0.719194
H36   H     H_    0.060624 0.046495 0.719176 0.223681
H37   H     H_    0.119852 0.123945 0.778652 0.223657
H38   H     H_    0.079311 0.106965 0.837516 0.250889
N5    N     N_2   0.197013 0.077186 0.981427 -0.309136
H39   H     H_    0.171024 0.101157 0.030858 0.211782
C81   C     C_3   0.270102 0.107425 0.013240 -0.670905
H40   H     H_    0.248394 0.181026 0.044737 0.231703
H41   H     H_    0.289978 0.090111 0.956988 0.275270
H42   H     H_    0.328830 0.076827 0.063726 0.235421
O32   O     O_3   0.326962 0.782376 0.999540 -0.779925
H43   H     H_    0.336386 0.820185 0.063016 0.335950
N6    N     N_2   0.168964 0.708910 0.381217 -0.305177
H44   H     H_    0.201241 0.698391 0.441895 0.244447
C82   C     C_3   0.082289 0.697764 0.335505 -0.745087
H45   H     H_    0.042383 0.740008 0.381102 0.218419
H46   H     H_    0.090065 0.627158 0.315642 0.229313
H47   H     H_    0.045517 0.718497 0.275076 0.260270
O33   O     O_3   0.368375 0.428277 0.245157 -0.751724
H48   H     H_    0.355073 0.409419 0.278008 0.331640
N7    N     N_2   0.284209 0.828825 0.182307 -0.311792
H49   H     H_    0.229386 0.879967 0.160940 0.229654
C83   C     C_3   0.361153 0.856994 0.245242 -0.808512
H50   H     H_    0.349017 0.905774 0.309128 0.249981
H51   H     H_    0.373571 0.889525 0.217378 0.220947
H52   H     H_    0.421802 0.798673 0.258679 0.270622
N8    N     N_2   0.093290 0.299205 0.616314 -0.277622
H53   H     H_    0.094845 0.254514 0.553614 0.205719
C84   C     C_3   0.045624 0.391934 0.621802 -0.750045
H54   H     H_    0.976869 0.399497 0.572110 0.254470
H55   H     H_    0.080468 0.414634 0.606368 0.213880
H56   H     H_    0.039765 0.434077 0.689336 0.256086
O34   O     O_3   0.421992 0.986774 0.873093 -0.771981
H57   H     H_    0.387163 0.948352 0.821669 0.341741
O35   O     O_3   0.502845 0.118101 0.000237 -0.739934
H58   H     H_    0.516262 0.060451 0.003800 0.379427
O36   O     O_3   0.944768 0.235223 0.059120 -0.784750
H59   H     H_    0.004564 0.189254 0.073908 0.329412
N9    N     N_2   0.499562 0.394397 0.711160 -0.287897
H60   H     H_    0.457790 0.456330 0.704396 0.257929
C85   C     C_3   0.450779 0.341845 0.692586 -0.745294
H61   H     H_    0.407307 0.380571 0.734621 0.208898
H62   H     H_    0.497954 0.279269 0.708554 0.248280
H63   H     H_    0.407868 0.325244 0.621036 0.254833
O37   O     O_3   0.445563 0.392151 0.541707 -0.797185
H64   H     H_    0.427256 0.362686 0.476009 0.338588
O38   O     O_3   0.698820 0.126560 0.232595 -0.745635
H65   H     H_    0.656684 0.109326 0.171099 0.366923

loop_
_geom_bond_atom_site_label_1
_geom_bond_atom_site_label_2
_geom_bond_distance
_ccdc_geom_bond_type
C1    C47   1.457506 S    
C56   C57   1.424704 A    
C59   N7    1.422237 S    
O34   H57   0.990832 S    
C29   C30   1.405255 A    
C60   C75   1.457231 S    
C12   C16   1.426251 A    
Zn7   O14   1.940663 S    
C46   C47   1.434216 A    
C31   H7    1.078422 S    
C63   C64   1.392180 A    
C51   N6    1.419669 S    
O27   H18   0.990232 S    
C77   H23   1.110860 S    
N7    H49   1.031920 S    
C81   H41   1.108518 S    
C70   C72   1.453960 S    
Zn6   O17   1.932959 S    
C49   C50   1.385456 A    
N8    H53   1.030711 S    
C9    C10   1.390853 A    
O4    C3    1.272818 A    
N6    C82   1.445857 S    
Zn6   O19   1.934736 S    
Zn1   O1    1.952561 S    
Zn8   O20   1.936699 S    
C11   C12   1.403737 A    
C54   C55   1.413265 A    
O17   C73   1.273083 A    
C20   H3    1.080747 S    
C55   C60   1.417048 A    
C24   N1    1.419782 S    
C13   C14   1.425621 A    
O19   C75   1.272929 A    
H6    C38   1.083954 S    
C65   C70   1.410002 A    
O18   C74   1.274885 A    
N6    H44   1.028896 S    
C48   N3    1.421242 S    
C33   C34   1.397814 A    
C65   C66   1.412065 A    
O8    C5    1.273128 A    
N9    H60   1.031634 S    
O20   C76   1.274237 A    
C32   H8    1.082572 S    
O9    C6    1.297320 A    
C17   C18   1.409479 A    
C21   H4    1.080901 S    
C43   C44   1.399253 A    
C7    C12   1.435736 A    
Zn7   O18   1.933969 S    
C45   C50   1.422675 A    
Zn3   O8    1.934881 S    
C80   H38   1.106329 S    
C13   C76   1.454030 S    
C35   C40   1.432832 A    
C53   C54   1.391372 A    
C4    C37   1.465259 S    
O25   C71   1.270716 A    
N1    H20   1.031429 S    
C6    C16   1.462818 S    
C64   C65   1.415758 A    
C40   C71   1.482360 S    
C7    C8    1.401353 A    
O33   H48   0.991943 S    
C85   H61   1.110344 S    
C41   C46   1.436395 A    
C5    C57   1.451651 S    
Zn2   O12   1.934116 S    
C35   C36   1.408317 A    
C83   H52   1.109652 S    
C57   C58   1.392837 A    
O36   H59   0.991920 S    
Zn5   O16   1.941436 S    
C23   O28   1.382625 S    
C68   C69   1.392969 A    
O21   C75   1.276399 A    
C53   O33   1.379811 S    
C80   H37   1.108726 S    
C21   C22   1.383849 A    
Zn8   O24   1.927646 S    
Zn5   O22   1.937142 S    
C19   O27   1.380232 S    
C78   H29   1.111579 S    
C52   C53   1.398474 A    
C82   H46   1.111258 S    
C52   H13   1.083751 S    
N5    C81   1.446654 S    
O30   H25   0.992006 S    
C85   H62   1.111119 S    
O2    C1    1.281500 A    
C31   C32   1.391523 A    
O26   C72   1.274312 A    
C47   C48   1.405709 A    
O16   C72   1.275658 A    
H17   C69   1.082728 S    
C25   C26   1.419610 A    
O10   C3    1.287916 A    
C54   H14   1.082533 S    
C78   H28   1.111276 S    
O37   H64   0.990085 S    
C7    N2    1.422214 S    
C55   C56   1.422507 A    
C51   C52   1.402157 A    
C77   H22   1.110513 S    
C31   C36   1.411405 A    
C33   H9    1.082857 S    
C23   C24   1.409016 A    
O6    C5    1.275412 A    
C41   C42   1.408981 A    
C41   N4    1.422151 S    
Zn4   O7    1.936700 S    
C18   C19   1.410895 A    
N4    H35   1.021615 S    
C22   H5    1.082531 S    
C62   O34   1.382638 S    
C36   C37   1.409266 A    
Zn3   O5    1.947017 S    
C81   H40   1.110302 S    
C8    H1    1.083320 S    
C22   C23   1.393649 A    
C2    C27   1.452874 S    
C14   C15   1.416988 A    
C3    C67   1.474868 S    
C79   H34   1.111722 S    
O11   C4    1.281644 A    
C64   H16   1.080914 S    
C85   H63   1.111111 S    
C61   C62   1.405870 A    
C28   C29   1.402771 A    
C14   C17   1.436781 A    
C62   C63   1.402089 A    
O23   C73   1.285107 A    
C15   C20   1.413905 A    
H11   C49   1.085406 S    
C39   O31   1.379239 S    
O22   C76   1.283871 A    
C77   H21   1.109735 S    
C68   N8    1.430707 S    
C63   O35   1.380752 S    
C34   O30   1.378584 S    
N1    C77   1.441156 S    
O24   C74   1.278170 A    
Zn4   O2    1.927703 S    
O32   H43   0.988520 S    
C79   H33   1.110219 S    
C27   C28   1.397274 A    
C28   O38   1.383422 S    
C44   O32   1.380763 S    
C80   H36   1.106555 S    
N3    C79   1.445751 S    
Zn5   O23   1.928903 S    
Zn2   O1    1.940663 S    
Zn1   O9    1.937096 S    
Zn7   O26   1.947684 S    
C84   H55   1.110627 S    
Zn2   O6    1.936966 S    
C69   C70   1.391733 A    
C82   H45   1.109127 S    
N5    H39   1.031907 S    
C17   N9    1.424854 S    
Zn5   O14   1.952710 S    
C24   C25   1.441087 A    
C19   C20   1.389285 A    
C83   H51   1.109489 S    
Zn6   O25   1.947016 S    
Zn1   O3    1.928904 S    
C42   C43   1.389141 A    
C81   H42   1.111582 S    
Zn2   O4    1.947686 S    
C45   C46   1.427342 A    
Zn3   O1    1.944834 S    
N7    C83   1.447720 S    
C82   H47   1.110978 S    
C18   O37   1.382268 S    
C25   C30   1.434674 A    
Zn1   O10   1.941685 S    
C42   N5    1.424049 S    
C51   C56   1.427752 A    
O3    C2    1.278353 A    
N8    C84   1.447902 S    
C66   C67   1.435590 A    
C78   H27   1.110722 S    
O35   H58   0.989835 S    
C84   H56   1.111197 S    
N4    C80   1.446211 S    
O28   H19   0.991901 S    
C8    C9    1.394177 A    
C11   C13   1.411061 A    
C15   C16   1.422339 A    
C30   C73   1.453889 S    
O5    C4    1.278816 A    
C59   C60   1.403027 A    
Zn8   O15   1.942758 S    
C10   H2    1.075347 S    
Zn4   O11   1.942757 S    
C26   C27   1.414808 A    
Zn4   O1    1.953142 S    
C38   C39   1.388735 A    
O7    C6    1.267253 A    
C61   H15   1.062170 S    
O13   C2    1.277520 A    
C21   C26   1.412473 A    
C32   C33   1.389449 A    
Zn3   O13   1.932960 S    
N2    C78   1.447974 S    
O31   H30   0.990800 S    
C43   H10   1.083888 S    
Zn7   O21   1.936860 S    
H12   C58   1.085181 S    
N9    C85   1.447011 S    
O29   H24   0.990826 S    
C37   C38   1.398476 A    
C29   O29   1.383105 S    
Zn8   O14   1.953292 S    
C44   C45   1.423114 A    
O38   H65   0.990489 S    
O12   C1    1.276421 A    
C39   C40   1.417158 A    
C48   C49   1.381058 A    
C10   C11   1.412444 A    
N2    H26   1.031300 S    
N3    H31   1.031982 S    
C34   C35   1.431140 A    
C67   C68   1.415245 A    
C79   H32   1.109331 S    
C84   H54   1.109843 S    
C58   C59   1.387346 A    
C50   C74   1.447249 S    
O15   C71   1.297378 A    
C83   H50   1.111858 S    
C61   C66   1.417431 A    
Zn6   O14   1.944832 S    
C9    O36   1.379144 S    
