data_mof_unit_42204.cif
_audit_creation_date              2013-03-05T15:54:29-0500
_audit_creation_method            fapswitch 2.2
_symmetry_space_group_name_H-M    P1
_symmetry_Int_Tables_number       1
_space_group_crystal_system       triclinic
_cell_length_a                    13.338023
_cell_length_b                    13.414906
_cell_length_c                    28.360408
_cell_angle_alpha                 90.053114
_cell_angle_beta                  90.170238
_cell_angle_gamma                 120.192116
_cell_volume                      4386.06007701

loop_
_atom_site_label
_atom_site_type_symbol
_atom_site_description
_atom_site_fract_x
_atom_site_fract_y
_atom_site_fract_z
_atom_type_partial_charge
O1    O     O_R   0.530190 0.870330 0.301660 -0.543382
O2    O     O_R   0.340140 0.469810 0.198340 -0.545255
O3    O     O_R   0.129670 0.659860 0.301660 -0.543637
O4    O     O_R   0.530190 0.870330 0.198340 -0.532707
O5    O     O_R   0.340140 0.469810 0.301660 -0.549778
O6    O     O_R   0.129670 0.659860 0.198340 -0.553145
O7    O     O_R   0.870330 0.530190 0.801660 -0.549595
O8    O     O_R   0.469810 0.340140 0.698340 -0.545799
O9    O     O_R   0.659860 0.129670 0.801660 -0.540618
O10   O     O_R   0.870330 0.530190 0.698340 -0.544678
O11   O     O_R   0.469810 0.340140 0.801660 -0.531953
O12   O     O_R   0.659860 0.129670 0.698340 -0.545986
O13   O     O_R   0.494300 0.651190 0.297490 -0.531840
O14   O     O_R   0.156890 0.505700 0.202510 -0.526156
O15   O     O_R   0.348810 0.843110 0.297490 -0.533571
O16   O     O_R   0.494300 0.651190 0.202510 -0.528159
O17   O     O_R   0.156890 0.505700 0.297490 -0.532864
O18   O     O_R   0.348810 0.843110 0.202510 -0.539843
O19   O     O_R   0.651190 0.494300 0.797490 -0.537002
O20   O     O_R   0.505700 0.156890 0.702510 -0.531761
O21   O     O_R   0.843110 0.348810 0.797490 -0.529050
O22   O     O_R   0.651190 0.494300 0.702510 -0.530950
O23   O     O_R   0.505700 0.156890 0.797490 -0.530318
O24   O     O_R   0.843110 0.348810 0.702510 -0.531533
C1    C     C_R   0.439951 0.549408 0.315712 0.796462
C2    C     C_R   0.109854 0.560493 0.183763 0.778886
C3    C     C_R   0.451254 0.890872 0.315637 0.801760
C4    C     C_R   0.440196 0.549513 0.183950 0.792325
C5    C     C_R   0.109669 0.560483 0.315679 0.803168
C6    C     C_R   0.449601 0.888944 0.183375 0.782792
C7    C     C_R   0.550511 0.439082 0.816833 0.784725
C8    C     C_R   0.560847 0.111177 0.683704 0.789791
C9    C     C_R   0.890613 0.451113 0.816018 0.787628
C10   C     C_R   0.549677 0.438660 0.683832 0.793378
C11   C     C_R   0.560093 0.109647 0.816207 0.795739
C12   C     C_R   0.888478 0.449872 0.683720 0.790156
Cr1   Cr    Cr6+3 0.505050 0.756260 0.250000 0.949438
Cr2   Cr    Cr6+3 0.251210 0.494950 0.250000 0.937116
Cr3   Cr    Cr6+3 0.243740 0.748790 0.250000 0.927726
Cr4   Cr    Cr6+3 0.756260 0.505050 0.750000 0.929563
Cr5   Cr    Cr6+3 0.494950 0.251210 0.750000 0.945712
Cr6   Cr    Cr6+3 0.748790 0.243740 0.750000 0.937407
O25   O     O_3   0.333333 0.666667 0.250000 -0.330189
O26   O     O_3   0.666667 0.333333 0.750000 -0.334499
C13   C     C_1   0.052358 0.521100 0.359562 -0.169284
C14   C     C_1   0.459253 0.935987 0.137008 -0.161907
C15   C     C_1   0.478588 0.531612 0.359837 -0.169065
C16   C     C_1   0.050848 0.519672 0.139417 -0.178238
C17   C     C_1   0.470408 0.949014 0.359446 -0.159690
C18   C     C_1   0.487710 0.530309 0.141708 -0.197947
C19   C     C_1   0.513868 0.043799 0.858793 -0.167169
C20   C     C_1   0.933790 0.461802 0.637594 -0.173988
C21   C     C_1   0.541117 0.475241 0.863631 -0.164176
C22   C     C_1   0.527209 0.066285 0.637467 -0.173766
C23   C     C_1   0.949384 0.470629 0.860343 -0.190814
C24   C     C_1   0.537177 0.471096 0.637717 -0.172166
C25   C     C_R   0.910178 0.383140 0.469179 0.199118
C26   C     C_R   0.385297 0.996506 0.020198 0.106217
C27   C     C_R   0.608484 0.515042 0.469325 0.174425
C28   C     C_R   0.989998 0.392982 0.024367 0.147897
C29   C     C_R   0.482840 0.094324 0.468757 0.160514
C30   C     C_R   0.629501 0.608797 0.029907 0.137738
C31   C     C_R   0.372754 0.980539 0.970810 0.110381
C32   C     C_R   0.899724 0.376044 0.518457 0.158969
C33   C     C_R   0.618707 0.610136 0.980312 0.113162
C34   C     C_R   0.484023 0.104612 0.517907 0.184001
C35   C     C_R   0.998649 0.397735 0.974885 0.093738
C36   C     C_R   0.617111 0.512153 0.518391 0.189916
C37   C     C_R   0.051579 0.578434 0.525862 0.370321
C38   C     C_R   0.526763 0.932839 0.970106 0.295688
C39   C     C_R   0.417287 0.472327 0.526221 0.348318
C40   C     C_R   0.007599 0.583638 0.975429 0.312006
C41   C     C_R   0.525556 0.947242 0.525881 0.370177
C42   C     C_R   0.487351 0.403510 0.981790 0.323460
C43   C     C_R   0.516966 0.921884 0.019699 0.301642
C44   C     C_R   0.059927 0.586989 0.476775 0.360582
C45   C     C_R   0.481453 0.405562 0.031281 0.295559
C46   C     C_R   0.528261 0.939721 0.476801 0.373477
C47   C     C_R   0.998920 0.578886 0.025009 0.277431
C48   C     C_R   0.409577 0.476712 0.477060 0.379115
C49   C     C_R   0.992235 0.488841 0.448556 -0.123492
C50   C     C_R   0.457475 0.965641 0.044784 -0.088183
C51   C     C_R   0.505646 0.500257 0.448967 -0.136778
C52   C     C_R   0.990825 0.483908 0.049445 -0.068998
C53   C     C_R   0.502250 0.009872 0.448406 -0.163857
C54   C     C_R   0.550768 0.509376 0.055430 -0.077741
C55   C     C_R   0.452910 0.960990 0.945483 -0.089809
C56   C     C_R   0.972138 0.473076 0.546621 -0.138012
C57   C     C_R   0.544633 0.506485 0.956168 -0.107443
C58   C     C_R   0.502426 0.028869 0.546373 -0.147692
C59   C     C_R   0.005552 0.492283 0.950496 -0.064799
C60   C     C_R   0.522406 0.493671 0.546744 -0.141651
C61   C     C_1   0.957151 0.467588 0.596629 0.019598
C62   C     C_1   0.480931 0.998556 0.896871 0.036927
C63   C     C_1   0.530161 0.486969 0.596707 0.011758
C64   C     C_1   0.984515 0.484221 0.900339 0.036352
C65   C     C_1   0.510186 0.043341 0.596411 0.011395
C66   C     C_1   0.541468 0.496682 0.905079 0.047791
C67   C     C_1   0.459171 0.958331 0.095777 0.035610
C68   C     C_1   0.017374 0.499433 0.399185 0.019876
C69   C     C_1   0.521925 0.518788 0.103818 0.015882
C70   C     C_1   0.485841 0.984795 0.399032 0.016455
C71   C     C_1   0.014491 0.496122 0.099560 0.094988
C72   C     C_1   0.497645 0.516392 0.399609 0.034359
N1    N     N_3   0.837510 0.281712 0.441452 -0.649423
H1    H     H_    0.752005 0.263783 0.444981 0.245828
H2    H     H_    0.856889 0.295145 0.405593 0.223184
N2    N     N_3   0.332204 0.053267 0.043492 -0.604877
H3    H     H_    0.242706 0.004133 0.039396 0.227805
H4    H     H_    0.350551 0.062528 0.079517 0.233682
N3    N     N_3   0.705103 0.533851 0.440810 -0.628131
H5    H     H_    0.731132 0.607899 0.420597 0.220974
H6    H     H_    0.677331 0.463701 0.417861 0.229513
N4    N     N_3   0.985060 0.298012 0.049457 -0.652046
H7    H     H_    0.057474 0.292110 0.039819 0.245838
H8    H     H_    0.911014 0.222545 0.038243 0.246813
N5    N     N_3   0.462078 0.170307 0.440159 -0.621142
H9    H     H_    0.533026 0.215247 0.417755 0.221756
H10   H     H_    0.388617 0.120674 0.419357 0.227538
N6    N     N_3   0.720937 0.708686 0.053422 -0.658969
H11   H     H_    0.710743 0.779837 0.047639 0.254312
H12   H     H_    0.719468 0.696348 0.089816 0.239677
N7    N     N_3   0.287283 0.998036 0.946988 -0.622277
H13   H     H_    0.205884 0.934241 0.958785 0.242799
H14   H     H_    0.287399 0.984697 0.910733 0.234529
N8    N     N_3   0.815467 0.268914 0.539379 -0.648121
H15   H     H_    0.858403 0.241676 0.562294 0.230189
H16   H     H_    0.757724 0.283212 0.559079 0.227621
N9    N     N_3   0.678583 0.718537 0.956124 -0.652416
H17   H     H_    0.767116 0.754319 0.962133 0.230290
H18   H     H_    0.664279 0.709149 0.919799 0.237345
N10   N     N_3   0.465894 0.192181 0.538350 -0.623548
H19   H     H_    0.393955 0.152447 0.560579 0.222524
H20   H     H_    0.538504 0.246625 0.558811 0.223785
N11   N     N_3   0.003518 0.307237 0.949983 -0.678492
H21   H     H_    0.934703 0.269441 0.926010 0.240030
H22   H     H_    0.080962 0.343777 0.930954 0.247724
N12   N     N_3   0.723019 0.528739 0.538871 -0.628357
H23   H     H_    0.755956 0.599822 0.561563 0.220780
H24   H     H_    0.704291 0.455889 0.558781 0.225830
O27   O     O_3   0.128519 0.671522 0.553218 -0.533217
C73   C     C_3   0.076277 0.735500 0.568164 0.111805
H25   H     H_    0.045164 0.710691 0.604938 0.134762
H26   H     H_    0.000372 0.720802 0.546186 0.090007
C74   C     C_3   0.167721 0.863910 0.567347 -0.261381
H27   H     H_    0.236452 0.881492 0.593770 0.208058
H28   H     H_    0.208806 0.887401 0.531991 0.211292
C75   C     C_3   0.114725 0.939002 0.578248 -0.881158
H29   H     H_    0.051132 0.927778 0.550402 0.234651
H30   H     H_    0.183921 0.031096 0.579181 0.235113
H31   H     H_    0.070826 0.915787 0.613035 0.245738
O28   O     O_3   0.603295 0.911865 0.944669 -0.555585
C76   C     C_3   0.717316 0.975585 0.963248 0.145789
H32   H     H_    0.728329 0.925231 0.991716 0.183694
H33   H     H_    0.737497 0.061096 0.977813 0.089761
C77   C     C_3   0.804762 0.997080 0.924169 -0.291032
H34   H     H_    0.773811 0.918605 0.902014 0.215774
H35   H     H_    0.812641 0.067465 0.901037 0.190797
C78   C     C_3   0.923697 0.029636 0.944492 -0.836071
H36   H     H_    0.951409 0.098734 0.971375 0.257671
H37   H     H_    0.988800 0.060301 0.915770 0.244590
H38   H     H_    0.920692 0.953635 0.961429 0.221817
O29   O     O_3   0.325476 0.458635 0.553741 -0.535274
C79   C     C_3   0.261402 0.343503 0.569993 0.094912
H39   H     H_    0.306014 0.330779 0.600539 0.136499
H40   H     H_    0.249569 0.279713 0.542169 0.087191
C80   C     C_3   0.141947 0.319350 0.586152 -0.265215
H41   H     H_    0.152270 0.376225 0.616530 0.210104
H42   H     H_    0.098572 0.338881 0.557073 0.201666
C81   C     C_3   0.065234 0.193661 0.600685 -0.869562
H43   H     H_    0.050521 0.135916 0.570155 0.234475
H44   H     H_    0.980013 0.179361 0.612944 0.236511
H45   H     H_    0.106584 0.171750 0.629815 0.243801
O30   O     O_3   0.033554 0.683356 0.951325 -0.559983
C82   C     C_3   0.935572 0.697170 0.947959 0.140328
H46   H     H_    0.949553 0.769451 0.971435 0.144738
H47   H     H_    0.852411 0.619264 0.958482 0.084681
C83   C     C_3   0.922069 0.726203 0.896922 -0.330454
H48   H     H_    0.904783 0.652550 0.873987 0.223013
H49   H     H_    0.846586 0.738973 0.893684 0.146096
C84   C     C_3   0.029402 0.834442 0.879123 -0.679400
H50   H     H_    0.049918 0.909009 0.902337 0.215923
H51   H     H_    0.012879 0.854383 0.842922 0.207466
H52   H     H_    0.104760 0.820668 0.877884 0.248943
O31   O     O_3   0.536948 0.868013 0.553262 -0.532644
C85   C     C_3   0.651423 0.917576 0.571113 0.113821
H53   H     H_    0.653427 0.947542 0.607824 0.136664
H54   H     H_    0.716782 0.992916 0.550311 0.091725
C86   C     C_3   0.686322 0.825060 0.571872 -0.264033
H55   H     H_    0.627936 0.754340 0.595992 0.211758
H56   H     H_    0.676735 0.788164 0.535936 0.206551
C87   C     C_3   0.811535 0.874484 0.588226 -0.874576
H57   H     H_    0.871199 0.941863 0.563270 0.234342
H58   H     H_    0.833370 0.804848 0.589343 0.234954
H59   H     H_    0.823749 0.912550 0.624047 0.243792
O32   O     O_3   0.440986 0.300855 0.957472 -0.547575
C88   C     C_3   0.516270 0.255613 0.961687 0.164882
H60   H     H_    0.478386 0.179063 0.939095 0.182937
H61   H     H_    0.520091 0.230219 0.998655 0.180840
C89   C     C_3   0.639231 0.331231 0.941963 -0.414406
H62   H     H_    0.633919 0.345443 0.903679 0.205332
H63   H     H_    0.685824 0.415888 0.960208 0.192841
C90   C     C_3   0.709559 0.271321 0.948797 -0.836991
H64   H     H_    0.738685 0.279119 0.986033 0.241437
H65   H     H_    0.784995 0.310908 0.925255 0.241767
H66   H     H_    0.659048 0.179086 0.939220 0.230469
O33   O     O_3   0.561263 0.864565 0.044661 -0.576776
C91   C     C_3   0.489439 0.744183 0.038044 0.081243
H67   H     H_    0.519999 0.703728 0.063687 0.166695
H68   H     H_    0.499411 0.719441 0.001747 0.181831
C92   C     C_3   0.360102 0.694384 0.049027 -0.375858
H69   H     H_    0.349686 0.723164 0.084440 0.203447
H70   H     H_    0.318909 0.722399 0.022024 0.184744
C93   C     C_3   0.298426 0.563508 0.048665 -0.842925
H71   H     H_    0.312478 0.530923 0.014735 0.232334
H72   H     H_    0.205253 0.528645 0.053506 0.243926
H73   H     H_    0.329282 0.532899 0.078504 0.233756
O34   O     O_3   0.142601 0.689898 0.456736 -0.535089
C94   C     C_3   0.087622 0.749689 0.439850 0.096623
H74   H     H_    0.047970 0.772336 0.469331 0.111915
H75   H     H_    0.018631 0.697481 0.413541 0.124099
C95   C     C_3   0.177981 0.860827 0.416131 -0.262628
H76   H     H_    0.248198 0.913010 0.441801 0.200220
H77   H     H_    0.216056 0.839327 0.385689 0.220724
C96   C     C_3   0.124661 0.931646 0.398869 -0.864849
H78   H     H_    0.053593 0.880929 0.373272 0.242081
H79   H     H_    0.191952 0.010795 0.381065 0.232375
H80   H     H_    0.089886 0.957335 0.429169 0.231865
O35   O     O_3   0.417672 0.304396 0.056420 -0.548787
C97   C     C_3   0.300635 0.276870 0.059958 0.145228
H81   H     H_    0.248289 0.211080 0.032795 0.161621
H82   H     H_    0.288149 0.352009 0.054495 0.092474
C98   C     C_3   0.255545 0.227272 0.109086 -0.318331
H83   H     H_    0.252621 0.143701 0.113168 0.193841
H84   H     H_    0.315437 0.287315 0.136348 0.220909
C99   C     C_3   0.134525 0.208253 0.117902 -0.812205
H85   H     H_    0.136739 0.292132 0.117712 0.259002
H86   H     H_    0.103656 0.167854 0.152995 0.234171
H87   H     H_    0.072984 0.149935 0.090616 0.230422
O36   O     O_3   0.549382 0.857798 0.456841 -0.534923
C100  C     C_3   0.666229 0.913002 0.441843 0.103364
H88   H     H_    0.726498 0.956448 0.471911 0.110040
H89   H     H_    0.683211 0.978420 0.414166 0.129406
C101  C     C_3   0.691963 0.823164 0.421237 -0.268640
H90   H     H_    0.672785 0.755681 0.448045 0.197856
H91   H     H_    0.635433 0.781961 0.389995 0.216577
C102  C     C_3   0.818769 0.877683 0.406543 -0.862299
H92   H     H_    0.840210 0.945788 0.379742 0.244791
H93   H     H_    0.834428 0.810750 0.391038 0.229257
H94   H     H_    0.876575 0.916090 0.437661 0.234305
O37   O     O_3   0.991644 0.663882 0.049759 -0.545022
C103  C     C_3   0.104250 0.754236 0.060882 0.136443
H95   H     H_    0.141158 0.811257 0.029848 0.129293
H96   H     H_    0.164054 0.722460 0.070963 0.066458
C104  C     C_3   0.098506 0.822319 0.103109 -0.302435
H97   H     H_    0.061622 0.763693 0.133814 0.218330
H98   H     H_    0.187592 0.890690 0.112896 0.143019
C105  C     C_3   0.024189 0.877016 0.093064 -0.705279
H99   H     H_    0.052103 0.929178 0.060343 0.206966
H100  H     H_    0.031385 0.933706 0.122984 0.207241
H101  H     H_    0.932187 0.808854 0.089239 0.272857
O38   O     O_3   0.310518 0.466016 0.456208 -0.534854
C106  C     C_3   0.224823 0.347988 0.451655 0.102487
H102  H     H_    0.154658 0.329206 0.477218 0.149880
H103  H     H_    0.257075 0.286733 0.458332 0.087755
C107  C     C_3   0.173893 0.325010 0.401884 -0.264431
H104  H     H_    0.151037 0.391267 0.392410 0.225098
H105  H     H_    0.239851 0.330708 0.376552 0.206422
C108  C     C_3   0.065721 0.205786 0.397928 -0.860879
H106  H     H_    0.087206 0.137937 0.406457 0.236543
H107  H     H_    0.031196 0.191790 0.361360 0.238487
H108  H     H_    0.997512 0.198448 0.422421 0.254316

loop_
_geom_bond_atom_site_label_1
_geom_bond_atom_site_label_2
_geom_bond_distance
_ccdc_geom_bond_type
O16   C4    1.290224 A    
C106  C107  1.527003 S    
C25   N1    1.440903 S    
C14   C67   1.207530 T    
C104  H98   1.109775 S    
C9    C23   1.431898 S    
N8    H15   1.045241 S    
C31   N7    1.440842 S    
C24   C63   1.194406 T    
O24   Cr6   1.900900 S    
C50   C67   1.450460 S    
C28   N4    1.432239 S    
N3    H5    1.044626 S    
C75   H31   1.110757 S    
C90   H64   1.110637 S    
O19   C7    1.287459 A    
C97   H82   1.112082 S    
C74   H27   1.111616 S    
O31   C85   1.415415 S    
N7    H13   1.044618 S    
C34   C58   1.412670 A    
C84   H50   1.109649 S    
C99   H85   1.110685 S    
C88   C89   1.537816 S    
C33   C57   1.410972 A    
C90   H65   1.098820 S    
O9    Cr6   2.020880 S    
O24   C12   1.290847 A    
C39   O29   1.386435 S    
C97   C98   1.532942 S    
C41   O31   1.385294 S    
C17   C70   1.196420 T    
C99   H86   1.110312 S    
C42   C57   1.401293 A    
C77   H34   1.110657 S    
C75   H30   1.109854 S    
C41   C58   1.404154 A    
C40   C47   1.410083 A    
N5    H10   1.044540 S    
C78   H36   1.108841 S    
C47   C52   1.406788 A    
C27   C36   1.398119 A    
C93   H72   1.094776 S    
C45   O35   1.384913 S    
N7    H14   1.043623 S    
O21   C9    1.297346 A    
C81   H43   1.110446 S    
C88   H60   1.093328 S    
C37   O27   1.385274 S    
N8    H16   1.045492 S    
C55   C62   1.452304 S    
C107  H105  1.110043 S    
C96   H80   1.111279 S    
O17   C5    1.292161 A    
N2    H3    1.039504 S    
C37   C44   1.397117 A    
O10   Cr4   2.018215 S    
C100  H88   1.112152 S    
C86   H56   1.111146 S    
O30   C82   1.412185 S    
O12   Cr6   2.013702 S    
C35   N11   1.433462 S    
C36   C60   1.412479 A    
C59   C64   1.442468 S    
C4    C18   1.439227 S    
C29   C34   1.399860 A    
C39   C60   1.406281 A    
O29   C79   1.415741 S    
C28   C35   1.407279 A    
C101  H91   1.111320 S    
C89   H62   1.110745 S    
C42   C45   1.407045 A    
C27   N3    1.434552 S    
C41   C46   1.397364 A    
C78   H37   1.110086 S    
C22   C65   1.195616 T    
O18   C6    1.285855 A    
C40   O30   1.383446 S    
C76   H33   1.116630 S    
C98   H83   1.108187 S    
C1    C15   1.417404 S    
C58   C65   1.428499 S    
C30   N6    1.441360 S    
C23   C64   1.204166 T    
C12   C20   1.417719 S    
O1    Cr1   2.019260 S    
O16   Cr1   1.900864 S    
C102  H93   1.109782 S    
C104  C105  1.527208 S    
O11   C7    1.290238 A    
C108  H106  1.109696 S    
O12   C8    1.282554 A    
C79   H40   1.114484 S    
O7    C9    1.285737 A    
C73   C74   1.530546 S    
O13   C1    1.290299 A    
C86   H55   1.111614 S    
Cr6   O26   1.992107 S    
C48   C51   1.405664 A    
C10   C24   1.414330 S    
C38   C55   1.403969 A    
C8    C22   1.416609 S    
C39   C48   1.401168 A    
C74   H28   1.111401 S    
N6    H12   1.044182 S    
O20   Cr5   1.901568 S    
C82   C83   1.532720 S    
C43   O33   1.377304 S    
C84   H51   1.110268 S    
C101  H90   1.110188 S    
O22   C10   1.284334 A    
C90   H66   1.103841 S    
C42   O32   1.376083 S    
C51   C72   1.428518 S    
C29   N5    1.434432 S    
O33   C91   1.415362 S    
C87   H59   1.110761 S    
C83   H48   1.105100 S    
N11   H21   1.043719 S    
C38   O28   1.390847 S    
O8    Cr5   2.021102 S    
C89   H63   1.109417 S    
O6    Cr3   2.010596 S    
C82   H47   1.117245 S    
N12   H23   1.045135 S    
C44   O34   1.385205 S    
C94   H74   1.111246 S    
C40   C59   1.402590 A    
C93   H71   1.111241 S    
N10   H19   1.045009 S    
O9    C11   1.287269 A    
Cr3   O25   1.991446 S    
C95   C96   1.525239 S    
C16   C71   1.206102 T    
C93   H73   1.105735 S    
C60   C63   1.426644 S    
C7    C21   1.439927 S    
C80   H42   1.110638 S    
C5    C13   1.418789 S    
N4    H8    1.045627 S    
C100  H89   1.113533 S    
C87   H58   1.110014 S    
Cr1   O25   1.980293 S    
C86   C87   1.524797 S    
C105  H100  1.110168 S    
O18   Cr3   1.899948 S    
O35   C97   1.415803 S    
C33   N9    1.435280 S    
C94   H75   1.113879 S    
N1    H2    1.043341 S    
O2    Cr2   2.019647 S    
O15   C3    1.287281 A    
C92   H69   1.109527 S    
C77   H35   1.111178 S    
O7    Cr4   2.011184 S    
O22   Cr4   1.893121 S    
C35   C59   1.407179 A    
C96   H78   1.111179 S    
O37   C103  1.410655 S    
C78   H38   1.109838 S    
C48   O38   1.385837 S    
C20   C61   1.196186 T    
N3    H6    1.045559 S    
O8    C10   1.279982 A    
O14   C2    1.295807 A    
C88   H61   1.111598 S    
C95   H77   1.111741 S    
C98   H84   1.110276 S    
O15   Cr3   1.892365 S    
C37   C56   1.402121 A    
C29   C53   1.406520 A    
C103  C104  1.530716 S    
O5    C1    1.279682 A    
C80   C81   1.525877 S    
C46   C53   1.408058 A    
N10   H20   1.045238 S    
C92   H70   1.111444 S    
C45   C54   1.400989 A    
O5    Cr2   2.014980 S    
O23   C11   1.292498 A    
C108  H107  1.110255 S    
C11   C19   1.441442 S    
Cr5   O26   1.980296 S    
C25   C49   1.412444 A    
C107  C108  1.526438 S    
C75   H29   1.110459 S    
C105  H101  1.106417 S    
C85   H54   1.116892 S    
C104  H97   1.110637 S    
C80   H41   1.111641 S    
C74   C75   1.525407 S    
N6    H11   1.042636 S    
C30   C54   1.415331 A    
C25   C32   1.403448 A    
C103  H96   1.113798 S    
N9    H17   1.040391 S    
O20   C8    1.287231 A    
C84   H52   1.110255 S    
C26   C31   1.413421 A    
N11   H22   1.045487 S    
C56   C61   1.429640 S    
C79   H39   1.110416 S    
C46   O36   1.385197 S    
C15   C72   1.195622 T    
C30   C33   1.414519 A    
C31   C55   1.419136 A    
C91   H67   1.100466 S    
C47   O37   1.382902 S    
C6    C14   1.436959 S    
C77   C78   1.528635 S    
C27   C51   1.405539 A    
O32   C88   1.415394 S    
C13   C68   1.196781 T    
C44   C49   1.409715 A    
C83   H49   1.106514 S    
C102  H92   1.110861 S    
C101  C102  1.526372 S    
C43   C50   1.396916 A    
N4    H7    1.045141 S    
O38   C106  1.417237 S    
N12   H24   1.045292 S    
C49   C68   1.431227 S    
C2    C16   1.435401 S    
C21   C66   1.209334 T    
N1    H1    1.045637 S    
C32   N8    1.435803 S    
O23   Cr5   1.902623 S    
C34   N10   1.435213 S    
C57   C66   1.453322 S    
C100  C101  1.525675 S    
C87   H57   1.110078 S    
C85   C86   1.529205 S    
C26   C50   1.407815 A    
C105  H99   1.109331 S    
C85   H53   1.111098 S    
Cr2   O25   1.992072 S    
C82   H46   1.111061 S    
C106  H103  1.118702 S    
O27   C73   1.415772 S    
C94   C95   1.525522 S    
C28   C52   1.406636 A    
O14   Cr2   1.894782 S    
O3    C5    1.284676 A    
O34   C94   1.414440 S    
O6    C2    1.289040 A    
C81   H44   1.110354 S    
O13   Cr1   1.903316 S    
C89   C90   1.523439 S    
C106  H102  1.109996 S    
C76   C77   1.530324 S    
O36   C100  1.414909 S    
C96   H79   1.110429 S    
N2    H4    1.042527 S    
O11   Cr5   2.020941 S    
C26   N2    1.435940 S    
O17   Cr2   1.899897 S    
C79   C80   1.529365 S    
C97   H81   1.111572 S    
C98   C99   1.523620 S    
O4    C6    1.290481 A    
C83   C84   1.525623 S    
O19   Cr4   1.899224 S    
C19   C62   1.209722 T    
O3    Cr3   2.018778 S    
O21   Cr6   1.893736 S    
C36   N12   1.435646 S    
Cr4   O26   1.991406 S    
C92   C93   1.518727 S    
O4    Cr1   2.022764 S    
C18   C69   1.208479 T    
C91   H68   1.110015 S    
C91   C92   1.537433 S    
C108  H108  1.110703 S    
C107  H104  1.107990 S    
C38   C43   1.413861 A    
O1    C3    1.278924 A    
C52   C71   1.446152 S    
C73   H25   1.111308 S    
O2    C4    1.288270 A    
O28   C76   1.417058 S    
O10   C12   1.285887 A    
C76   H32   1.108970 S    
N5    H9    1.045524 S    
C54   C69   1.448711 S    
C95   H76   1.110284 S    
C32   C56   1.412165 A    
C99   H87   1.110790 S    
C73   H26   1.116969 S    
C53   C70   1.430066 S    
C3    C17   1.418875 S    
C102  H94   1.111009 S    
C103  H95   1.107800 S    
N9    H18   1.043064 S    
C81   H45   1.110806 S    
