data_mof_unit_52129.cif
_audit_creation_date              2012-12-10T17:44:28-0500
_audit_creation_method            fapswitch 2.2
_symmetry_space_group_name_H-M    P1
_symmetry_Int_Tables_number       1
_space_group_crystal_system       triclinic
_cell_length_a                    10.041743
_cell_length_b                    10.586733
_cell_length_c                    15.09671
_cell_angle_alpha                 94.041916
_cell_angle_beta                  68.607717
_cell_angle_gamma                 91.95121
_cell_volume                      1490.57201839

loop_
_atom_site_label
_atom_site_type_symbol
_atom_type_description
_atom_site_fract_x
_atom_site_fract_y
_atom_site_fract_z
_atom_type_partial_charge
C1    C     C_R   0.510507 0.735987 0.484253 0.938104
C2    C     C_R   0.743558 0.421233 0.022183 0.049925
C3    C     C_R   0.599703 0.390042 0.077719 0.039601
C4    C     C_R   0.411290 0.481465 0.674039 0.839847
C5    C     C_R   0.836579 0.475127 0.065749 0.520924
C6    C     C_R   0.786111 0.498885 0.164590 -0.333230
C7    C     C_R   0.551170 0.421382 0.175956 -0.213555
C8    C     C_R   0.361040 0.860251 0.374454 0.435814
C9    C     C_R   0.238038 0.910412 0.367634 0.438635
C10   C     C_R   0.190005 0.029326 0.412802 0.052626
C11   C     C_R   0.264220 0.096307 0.463939 -0.226006
C12   C     C_R   0.442025 0.352906 0.892218 0.025288
C13   C     C_R   0.392376 0.049352 0.467369 -0.052140
C14   C     C_R   0.425672 0.923444 0.433976 -0.162191
C15   C     C_R   0.529791 0.864963 0.456363 -0.208983
C16   C     C_R   0.494885 0.258521 0.504026 0.886927
C17   C     C_R   0.637580 0.936696 0.471695 0.496951
C18   C     C_R   0.607110 0.058692 0.511219 0.076432
C19   C     C_R   0.489544 0.120365 0.502368 -0.168720
C20   C     C_R   0.788323 0.634063 0.653793 0.089217
C21   C     C_R   0.805112 0.644209 0.743731 0.495012
C22   C     C_R   0.938979 0.616553 0.744421 -0.366851
C23   C     C_R   0.303604 0.305176 0.941174 0.030650
C24   C     C_R   0.054632 0.615354 0.657897 0.183719
C25   C     C_R   0.032263 0.557788 0.576596 0.077225
C26   C     C_R   0.889098 0.560144 0.576334 -0.005162
C27   C     C_R   0.967336 0.439860 0.428471 0.200544
C28   C     C_R   0.589520 0.495804 0.323330 0.940029
C29   C     C_R   0.109166 0.440807 0.429050 -0.172681
C30   C     C_R   0.365306 0.419931 0.766292 -0.091152
C31   C     C_R   0.643590 0.473409 0.219577 -0.160904
C32   C     C_R   0.204340 0.298403 0.894347 -0.074645
C33   C     C_R   0.236615 0.350064 0.805249 0.198338
C34   C     C_R   0.547847 0.353514 0.933114 0.007679
C35   C     C_R   0.468545 0.411764 0.807431 -0.303844
C36   C     C_3   0.126261 0.202308 0.085756 -0.883984
C37   C     C_3   0.999844 0.631953 0.007138 -0.352567
C38   C     C_3   0.819512 0.882168 0.333223 -0.331645
C39   C     C_3   0.511539 0.792679 0.227258 -0.349775
C40   C     C_3   0.106765 0.736025 0.352317 -0.232111
C41   C     C_3   0.059696 0.085392 0.406442 -0.819554
C42   C     C_3   0.696557 0.116711 0.565666 -0.823493
C43   C     C_3   0.943253 0.373330 0.344678 -0.843952
C44   C     C_3   0.728742 0.750953 0.631973 -0.723734
C45   C     C_R   0.505437 0.341099 0.031813 -0.071831
C46   C     C_3   0.583343 0.692273 0.858008 -0.331476
C47   C     C_3   0.142715 0.735501 0.649326 -0.758532
C48   C     C_3   0.140785 0.317715 0.749868 -0.909997
C49   C     C_3   0.410378 0.120650 0.158384 -0.334538
C50   C     C_R   0.370921 0.281643 0.079524 0.484932
C51   C     C_R   0.270040 0.263060 0.034022 0.094821
C52   C     C_R   0.694026 0.372514 0.878978 -0.213283
C53   C     C_R   0.790389 0.404071 0.923324 -0.207682
H1    H     H_    0.213695 0.180458 0.504716 0.206629
H2    H     H_    0.115066 0.171673 0.156819 0.272404
H3    H     H_    0.039493 0.270657 0.096389 0.256781
H4    H     H_    0.111311 0.116762 0.043307 0.217821
H5    H     H_    0.997648 0.676545 0.076558 0.168440
H6    H     H_    0.920002 0.677285 0.984368 0.165122
H7    H     H_    0.107300 0.650040 0.953186 0.195211
H8    H     H_    0.936750 0.890776 0.300206 0.236750
H9    H     H_    0.776671 0.958029 0.303512 0.144480
H10   H     H_    0.787144 0.787344 0.310989 0.175354
H11   H     H_    0.596259 0.860486 0.231888 0.140472
H12   H     H_    0.439596 0.411436 0.219227 0.223236
H13   H     H_    0.447011 0.834785 0.190747 0.188793
H14   H     H_    0.565474 0.708648 0.182214 0.198683
H15   H     H_    0.036122 0.753737 0.428336 0.163595
H16   H     H_    0.188072 0.664089 0.345308 0.215866
H17   H     H_    0.039644 0.694809 0.313110 0.172253
H18   H     H_    0.967800 0.025653 0.444495 0.295088
H19   H     H_    0.039903 0.182291 0.440868 0.221708
H20   H     H_    0.070783 0.089053 0.330769 0.263832
H21   H     H_    0.628237 0.173839 0.629785 0.234564
H22   H     H_    0.746306 0.042197 0.591364 0.233188
H23   H     H_    0.959078 0.645519 0.808794 0.193075
H24   H     H_    0.783206 0.176839 0.519940 0.261145
H25   H     H_    0.035906 0.313850 0.301066 0.229629
H26   H     H_    0.848270 0.310390 0.367833 0.269522
H27   H     H_    0.932233 0.444587 0.298044 0.243786
H28   H     H_    0.786151 0.770208 0.556669 0.275073
H29   H     H_    0.750641 0.836758 0.671474 0.226606
H30   H     H_    0.611196 0.743383 0.652751 0.234360
H31   H     H_    0.531293 0.673163 0.805011 0.159618
H32   H     H_    0.523423 0.770612 0.907727 0.189344
H33   H     H_    0.574668 0.610117 0.901294 0.192306
H34   H     H_    0.194060 0.393432 0.370795 0.184631
H35   H     H_    0.240920 0.720412 0.664094 0.243240
H36   H     H_    0.163378 0.775913 0.579623 0.232760
H37   H     H_    0.083912 0.811832 0.702403 0.206085
H38   H     H_    0.203487 0.269228 0.680124 0.248387
H39   H     H_    0.052433 0.252508 0.787625 0.224043
H40   H     H_    0.093140 0.404300 0.738103 0.258667
H41   H     H_    0.528254 0.131056 0.122477 0.164031
H42   H     H_    0.368248 0.046656 0.119149 0.179236
H43   H     H_    0.390859 0.088132 0.230191 0.201710
H44   H     H_    0.857447 0.540850 0.197620 0.161827
H45   H     H_    0.899446 0.424976 0.879848 0.195988
H46   H     H_    0.101888 0.251739 0.925871 0.153618
H47   H     H_    0.570834 0.456238 0.773772 0.170223
H48   H     H_    0.735302 0.365131 0.801895 0.147808
N1    N     N_R   0.856800 0.501200 0.500850 -0.090347
N2    N     N_R   0.142390 0.501280 0.500880 -0.118303
O1    O     O_R   0.385310 0.683220 0.500000 -0.597598
O2    O     O_3   0.777375 0.895671 0.433848 -0.628950
O3    O     O_3   0.424416 0.753966 0.318049 -0.593085
O4    O     O_3   0.171103 0.848912 0.311049 -0.630988
O5    O     O_3   0.726970 0.730571 0.816439 -0.606394
O6    O     O_3   0.338940 0.236349 0.168835 -0.637391
O7    O     O_R   0.614640 0.683250 0.500010 -0.599746
O8    O     O_R   0.319840 0.499980 0.632240 -0.597845
O9    O     O_R   0.549160 0.500000 0.632250 -0.613177
O10   O     O_R   0.385360 0.316750 0.499990 -0.633389
O11   O     O_R   0.614690 0.316780 0.500000 -0.609500
O12   O     O_R   0.450840 0.500000 0.367750 -0.580318
O13   O     O_R   0.680160 0.500020 0.367760 -0.623523
O14   O     O_3   0.978283 0.499874 0.011660 -0.622077
Zn1   Zn    Zn3+2 0.346880 0.499980 0.499990 0.942807
Zn2   Zn    Zn3+2 0.653120 0.500020 0.500010 0.927819

loop_
_geom_bond_atom_site_label_1
_geom_bond_atom_site_label_2
_ccdc_geom_bond_type
C39   O3    S    
C27   C29   A    
C22   H23   S    
C44   H30   S    
C16   O10   A    
C43   H25   S    
C39   H11   S    
C12   C23   A    
C42   H22   S    
C40   H17   S    
C30   C35   A    
O8    Zn1   S    
C3    C7    A    
C18   C42   S    
C5    C6    A    
C43   H26   S    
C29   N2    A    
C18   C19   A    
C34   C52   A    
C28   O13   A    
C8    C9    A    
C48   H38   S    
C46   O5    S    
C1    C15   S    
C47   H35   S    
C49   H41   S    
C9    C10   A    
O11   Zn2   S    
C41   H18   S    
C38   H8    S    
C6    C31   A    
C4    O9    A    
C13   C14   A    
C10   C41   S    
C47   H36   S    
C20   C44   S    
C50   C51   A    
O1    Zn1   S    
C52   H48   S    
C42   H21   S    
C7    C31   A    
C48   H40   S    
C13   C19   A    
C37   H7    S    
C6    H44   S    
C24   C25   A    
C44   H28   S    
C40   H16   S    
C25   N2    A    
C43   H27   S    
C3    C45   A    
C50   O6    S    
C8    O3    S    
C36   H3    S    
C28   O12   A    
C17   O2    S    
C1    O7    A    
C7    H12   S    
C23   C51   A    
O12   Zn1   S    
C17   C18   A    
C34   C45   A    
C49   H42   S    
C12   C35   A    
C11   H1    S    
C1    O1    A    
C37   H6    S    
C36   C51   S    
C40   O4    S    
C46   H31   S    
C4    O8    A    
C36   H4    S    
C41   H19   S    
C48   H39   S    
C39   H13   S    
C22   C24   A    
N2    Zn1   S    
C12   C34   A    
C35   H47   S    
C52   C53   A    
C49   O6    S    
C38   H10   S    
C15   C17   A    
C8    C14   A    
C30   C33   A    
C24   C47   S    
C39   H14   S    
C28   C31   S    
C37   H5    S    
C2    C53   A    
C16   O11   A    
O7    Zn2   S    
O9    Zn2   S    
O13   Zn2   S    
C53   H45   S    
C9    O4    S    
C27   N1    A    
C44   H29   S    
C32   H46   S    
C32   C33   A    
C46   H32   S    
C38   O2    S    
C2    C3    A    
C25   C26   A    
C36   H2    S    
C23   C32   A    
C11   C13   A    
C20   C26   A    
C45   C50   A    
C16   C19   S    
C47   H37   S    
C49   H43   S    
C4    C30   S    
C29   H34   S    
C21   O5    S    
C10   C11   A    
C41   H20   S    
O10   Zn1   S    
C2    C5    A    
C27   C43   S    
C37   O14   S    
C20   C21   A    
C42   H24   S    
C40   H15   S    
C5    O14   S    
C33   C48   S    
C14   C15   A    
C38   H9    S    
C21   C22   A    
C26   N1    A    
N1    Zn2   S    
C46   H33   S    
