data_mof_unit_63342.cif
_audit_creation_date              2012-10-26T17:33:48-0400
_audit_creation_method            fapswitch 2.2
_symmetry_space_group_name_H-M    P1
_symmetry_Int_Tables_number       1
_space_group_crystal_system       triclinic
_cell_length_a                    18.97304
_cell_length_b                    19.088254
_cell_length_c                    18.990369
_cell_angle_alpha                 109.960147
_cell_angle_beta                  109.4291
_cell_angle_gamma                 109.673347
_cell_volume                      5251.46087389

loop_
_atom_site_label
_atom_site_type_symbol
_atom_type_description
_atom_site_fract_x
_atom_site_fract_y
_atom_site_fract_z
_atom_type_partial_charge
C1    C     C_R   0.382010 0.384613 0.501621 0.550538
C2    C     C_2   0.312887 0.322955 0.503167 -0.112462
C3    C     C_2   0.492573 0.175033 0.247825 -0.157775
C4    C     C_R   0.497604 0.615158 0.618451 0.544302
C5    C     C_2   0.508261 0.184645 0.186942 -0.113875
C6    C     C_2   0.504770 0.248226 0.321010 -0.157661
C7    C     C_2   0.490041 0.309190 0.311284 -0.116470
C8    C     C_2   0.822862 0.744289 0.499408 0.238257
C9    C     C_2   0.824594 0.818543 0.510581 -0.067234
C10   C     C_2   0.761697 0.686819 0.514854 -0.174690
C11   C     C_2   0.681868 0.675405 0.489787 -0.157120
C12   C     C_R   0.502144 0.675183 0.761004 0.024861
C13   C     C_R   0.381972 0.995151 0.878076 0.565128
C14   C     C_R   0.501497 0.878806 0.880306 0.543621
C15   C     C_R   0.618116 0.998777 0.115677 0.545018
C16   C     C_R   0.617613 0.615533 0.497993 0.566588
C17   C     C_R   0.502079 0.115462 0.116763 0.556560
C18   C     C_R   0.880763 0.998267 0.382556 0.554766
C19   C     C_R   0.119368 0.117338 0.501715 0.554702
C20   C     C_R   0.119302 0.001738 0.617393 0.563471
C21   C     C_R   0.885133 0.882715 0.502763 0.584421
C22   C     C_2   0.250631 0.993748 0.675782 -0.155418
C23   C     C_R   0.495757 0.678703 0.685994 -0.011242
C24   C     C_2   0.189692 0.008648 0.686382 -0.109336
C25   C     C_2   0.323452 0.005401 0.748271 -0.150517
C26   C     C_2   0.312759 0.988414 0.808039 -0.113764
C27   C     C_2   0.750076 0.007288 0.322683 -0.158655
C28   C     C_R   0.497466 0.379887 0.381088 0.556749
C29   C     C_2   0.810751 0.991174 0.313036 -0.113581
C30   C     C_2   0.677218 0.994030 0.248785 -0.159539
C31   C     C_2   0.687216 0.006491 0.186611 -0.116760
C32   C     C_R   0.499078 0.603672 0.769846 -0.096066
C33   C     C_R   0.510943 0.604354 0.846589 -0.122076
C34   C     C_R   0.490685 0.746161 0.675700 -0.153082
C35   C     C_R   0.525759 0.675686 0.915656 -0.118550
C36   C     C_R   0.525376 0.745249 0.907132 -0.096992
C37   C     C_R   0.510149 0.744642 0.828615 0.013943
C38   C     C_3   0.854660 0.640410 0.436117 -0.001141
C39   C     C_3   0.913603 0.628977 0.400761 -0.356855
C40   C     C_1   0.483460 0.877543 0.722802 0.218234
C41   C     C_R   0.493338 0.811820 0.739253 -0.040843
C42   C     C_R   0.503333 0.811760 0.816097 -0.009850
C43   C     C_2   0.250565 0.258633 0.574946 -0.156137
C44   C     C_2   0.189636 0.181354 0.503466 -0.112899
C45   C     C_2   0.323436 0.319512 0.575050 -0.159309
Cu1   Cu    Cu3+1 0.561020 0.499620 0.560640 0.931011
Cu2   Cu    Cu3+1 0.438980 0.500380 0.439360 0.942743
Cu3   Cu    Cu3+1 0.561070 0.057880 0.996780 0.962263
Cu4   Cu    Cu3+1 0.439050 0.935860 0.996810 0.937234
Cu5   Cu    Cu3+1 0.000000 0.061410 0.561410 0.943792
Cu6   Cu    Cu3+1 0.000000 0.938590 0.438590 0.962073
H1    H     H_    0.485128 0.747891 0.617622 0.138651
H2    H     H_    0.249925 0.977483 0.614775 0.151501
H3    H     H_    0.486014 0.545963 0.717548 0.133024
H4    H     H_    0.195597 0.034158 0.749983 0.108033
H5    H     H_    0.384850 0.023502 0.749655 0.171993
H6    H     H_    0.248971 0.961433 0.801395 0.111739
H7    H     H_    0.750878 0.025517 0.383866 0.146582
H8    H     H_    0.804661 0.963829 0.249456 0.107501
H9    H     H_    0.616343 0.978530 0.248167 0.144829
H10   H     H_    0.750601 0.031463 0.192182 0.109631
H11   H     H_    0.509149 0.549489 0.852642 0.110330
H12   H     H_    0.249111 0.284643 0.445155 0.109966
H13   H     H_    0.536651 0.676758 0.975802 0.115115
H14   H     H_    0.537902 0.799424 0.962943 0.138261
H15   H     H_    0.249913 0.275515 0.635360 0.145840
H16   H     H_    0.195609 0.160663 0.445944 0.108856
H17   H     H_    0.384754 0.364761 0.635782 0.135794
H18   H     H_    0.787502 0.605220 0.379864 0.129208
H19   H     H_    0.856484 0.611557 0.478143 0.130240
H20   H     H_    0.981062 0.662206 0.455149 0.166700
H21   H     H_    0.890557 0.559072 0.362548 0.094944
H22   H     H_    0.913025 0.656809 0.358012 0.161551
H23   H     H_    0.475662 0.114356 0.247073 0.145062
H24   H     H_    0.534307 0.247827 0.192895 0.105984
H25   H     H_    0.521475 0.249261 0.382045 0.147869
H26   H     H_    0.464208 0.303149 0.247827 0.107603
H27   H     H_    0.784671 0.836935 0.533532 0.056352
H28   H     H_    0.781094 0.651160 0.543335 0.142770
H29   H     H_    0.659928 0.705589 0.454965 0.100894
N1    N     N_1   0.475527 0.930061 0.709566 -0.308969
O1    O     O_R   0.462500 0.410660 0.551220 -0.512768
O2    O     O_R   0.910970 0.948690 0.359670 -0.513449
O3    O     O_R   0.089030 0.140870 0.551850 -0.502719
O4    O     O_R   0.359440 0.411300 0.448810 -0.505489
O5    O     O_R   0.089030 0.037160 0.448130 -0.512853
O6    O     O_R   0.089030 0.051310 0.640330 -0.511551
O7    O     O_R   0.089030 0.947590 0.536610 -0.495783
O8    O     O_R   0.910970 0.962840 0.551870 -0.522069
O9    O     O_R   0.910970 0.859130 0.448150 -0.460272
O10   O     O_R   0.551530 0.589280 0.640810 -0.514500
O11   O     O_R   0.448470 0.589920 0.538390 -0.509390
O12   O     O_R   0.359500 0.945890 0.908340 -0.503926
O13   O     O_R   0.640560 0.588700 0.551190 -0.499573
O14   O     O_R   0.537500 0.589340 0.448780 -0.505788
O15   O     O_R   0.551530 0.410080 0.461610 -0.504482
O16   O     O_R   0.448470 0.410720 0.359190 -0.506881
O17   O     O_R   0.462540 0.048930 0.908310 -0.495743
O18   O     O_3   0.885339 0.729633 0.484988 -0.529205
O19   O     O_R   0.551580 0.958790 0.907180 -0.495945
O20   O     O_R   0.448540 0.855750 0.907210 -0.515296
O21   O     O_R   0.640630 0.047850 0.085250 -0.507650
O22   O     O_R   0.537580 0.944800 0.085280 -0.516574
O23   O     O_R   0.551590 0.137990 0.086380 -0.509196
O24   O     O_R   0.448540 0.034950 0.086410 -0.504425
O25   O     O_R   0.910970 0.052410 0.463390 -0.502700

loop_
_geom_bond_atom_site_label_1
_geom_bond_atom_site_label_2
_ccdc_geom_bond_type
C28   O16   A    
C38   H19   S    
C27   C29   D    
C41   C42   A    
C31   H10   S    
C35   C36   A    
C25   H5    S    
C19   O5    A    
Cu5   O3    S    
C21   O8    A    
C2    H12   S    
C24   H4    S    
C12   C23   A    
Cu2   O4    S    
C36   C37   A    
C8    O18   S    
Cu6   O9    S    
Cu4   O20   S    
C38   C39   S    
C5    C17   S    
Cu3   O23   S    
C20   O6    A    
C12   C37   A    
C1    C2    S    
Cu2   O11   S    
C37   C42   A    
C3    H23   S    
Cu1   O1    S    
C29   H8    S    
C8    C9    D    
C22   C25   S    
C30   H9    S    
C39   H21   S    
C35   H13   S    
C7    H26   S    
C4    O10   A    
C3    C6    S    
C38   H18   S    
C12   C32   A    
C27   C30   S    
C34   C41   A    
Cu6   O5    S    
C32   H3    S    
Cu5   Cu6   S    
C22   H2    S    
C21   O9    A    
C2    C45   D    
C1    O4    A    
Cu3   O19   S    
C20   C24   S    
C11   H29   S    
C4    C23   S    
C36   H14   S    
C33   H11   S    
C14   O20   A    
Cu4   O24   S    
Cu1   O10   S    
C1    O1    A    
C7    C28   S    
C13   O12   A    
C5    H24   S    
C43   C44   D    
C18   O25   A    
C17   O24   A    
C11   C16   S    
Cu5   O8    S    
Cu1   O13   S    
C30   C31   D    
C23   C34   A    
Cu3   O21   S    
C45   H17   S    
C18   O2    A    
C18   C29   S    
C14   O19   A    
C43   C45   S    
Cu5   O6    S    
Cu3   Cu4   S    
C6    H25   S    
C22   C24   D    
C13   C26   S    
C19   O3    A    
Cu6   O2    S    
C19   C44   S    
Cu1   Cu2   S    
C40   C41   S    
C16   O14   A    
Cu2   O14   S    
C34   H1    S    
C40   N1    T    
C17   O23   A    
C38   O18   S    
C3    C5    D    
C27   H7    S    
Cu6   O7    S    
Cu4   O22   S    
C10   H28   S    
C15   C31   S    
C6    C7    D    
Cu3   O17   S    
C16   O13   A    
Cu2   O16   S    
C14   C42   S    
C28   O15   A    
Cu4   O12   S    
C32   C33   A    
C25   C26   D    
C9    C21   S    
C13   O17   A    
C43   H15   S    
C20   O7    A    
C33   C35   A    
C9    H27   S    
C39   H22   S    
C15   O21   A    
C26   H6    S    
C10   C11   D    
Cu1   O15   S    
C8    C10   S    
Cu5   O25   S    
C39   H20   S    
C44   H16   S    
C15   O22   A    
C4    O11   A    
