data_mof_unit_34067.cif
_audit_creation_date              2013-03-05T16:33:00-0500
_audit_creation_method            fapswitch 2.2
_symmetry_space_group_name_H-M    P1
_symmetry_Int_Tables_number       1
_space_group_crystal_system       triclinic
_cell_length_a                    23.445003
_cell_length_b                    10.829035
_cell_length_c                    9.582016
_cell_angle_alpha                 90.218996
_cell_angle_beta                  89.514245
_cell_angle_gamma                 90.678526
_cell_volume                      2432.47211626

loop_
_atom_site_label
_atom_site_type_symbol
_atom_site_description
_atom_site_fract_x
_atom_site_fract_y
_atom_site_fract_z
_atom_type_partial_charge
O1    O     O_R   0.500000 0.319640 0.618810 -0.533964
O2    O     O_R   0.500010 0.319680 0.381230 -0.577010
C1    C     C_R   0.498793 0.262460 0.499805 0.804333
O3    O     O_R   0.417880 0.499940 0.618820 -0.499626
O4    O     O_R   0.417880 0.499980 0.381240 -0.600616
C2    C     C_R   0.391277 0.502675 0.500614 0.873013
Cu1   Cu    Cu3+1 0.500000 0.499980 0.640670 1.072736
Cu2   Cu    Cu3+1 0.500000 0.500020 0.359330 0.984824
O5    O     O_R   0.499990 0.680320 0.618770 -0.574260
O6    O     O_R   0.500000 0.680360 0.381190 -0.593426
O7    O     O_R   0.582120 0.500020 0.618760 -0.551875
O8    O     O_R   0.582120 0.500060 0.381180 -0.580582
C3    C     C_R   0.499022 0.737636 0.500138 0.822413
C4    C     C_R   0.608742 0.500440 0.499169 0.796572
C5    C     C_R   0.880210 0.568316 0.392605 0.626145
N1    N     N_R   0.851341 0.499265 0.490109 -0.456887
C6    C     C_R   0.879440 0.427435 0.583783 0.610763
C7    C     C_R   0.939252 0.425206 0.583680 -0.013099
C8    C     C_R   0.969820 0.497395 0.485528 -0.004593
C9    C     C_R   0.940102 0.569013 0.388697 -0.080890
C10   C     C_R   0.969009 0.353596 0.679934 -0.124553
C11   C     C_R   0.028403 0.353794 0.679320 -0.117468
C12   C     C_R   0.059348 0.425475 0.582318 -0.002238
C13   C     C_R   0.030109 0.497973 0.484633 -0.043139
C14   C     C_R   0.060944 0.570887 0.386775 -0.139290
C15   C     C_R   0.030331 0.644994 0.291489 0.337726
C16   C     C_R   0.970621 0.641337 0.292170 -0.178976
C17   C     C_R   0.119054 0.427107 0.581549 0.576917
N2    N     N_R   0.148521 0.495956 0.485212 -0.469883
C18   C     C_R   0.121165 0.564555 0.387008 0.593246
O9    O     O_2   0.850987 0.636393 0.300364 -0.488786
O10   O     O_2   0.849531 0.359549 0.677542 -0.484570
O11   O     O_2   0.147587 0.361020 0.676958 -0.485110
O12   O     O_2   0.152451 0.623758 0.288746 -0.437004
H1    H     H_    0.948135 0.698740 0.218909 0.225777
C19   C     C_R   0.238306 0.606490 0.531450 -0.114723
C20   C     C_R   0.298005 0.610607 0.539151 0.303072
C21   C     C_R   0.329017 0.503780 0.501726 -0.125664
C22   C     C_R   0.300061 0.396712 0.457718 -0.207284
C23   C     C_R   0.240725 0.393836 0.452390 -0.045113
C24   C     C_R   0.209692 0.498650 0.489291 0.256768
C25   C     C_R   0.759583 0.404064 0.433633 -0.114590
H2    H     H_    0.782044 0.327809 0.385779 0.174791
C26   C     C_R   0.700216 0.403989 0.434087 -0.178370
H3    H     H_    0.677126 0.327257 0.387428 0.164217
C27   C     C_R   0.670890 0.501553 0.496442 -0.073711
C28   C     C_R   0.701002 0.601187 0.554343 -0.191733
H4    H     H_    0.677573 0.677618 0.598818 0.186672
C29   C     C_R   0.760867 0.602547 0.555491 0.395834
C30   C     C_R   0.790222 0.502038 0.494381 0.217463
C31   C     C_R   0.493919 0.064511 0.625333 0.140530
C32   C     C_R   0.493018 0.129283 0.499796 -0.167784
C33   C     C_R   0.484117 0.063645 0.374809 -0.151314
C34   C     C_R   0.484177 0.934808 0.375087 -0.165607
C35   C     C_R   0.493241 0.870764 0.500288 -0.085688
C36   C     C_R   0.494276 0.937113 0.625433 0.147577
C37   C     C_3   0.535801 0.931924 0.742611 -0.548908
C38   C     C_3   0.535932 0.072190 0.741917 0.164749
H5    H     H_    0.516190 0.890472 0.837716 0.235533
C39   C     C_R   0.548533 0.526245 0.072924 0.224307
N3    N     N_R   0.500360 0.500930 0.147930 -0.219393
C40   C     C_R   0.453910 0.460099 0.076411 -0.071091
C41   C     C_R   0.453644 0.458429 0.928385 0.437130
N4    N     N_R   0.500360 0.500890 0.852020 -0.274959
C42   C     C_R   0.549235 0.523053 0.926063 0.213122
C43   C     C_3   0.586790 0.636079 0.921753 0.091099
C44   C     C_3   0.583421 0.641411 0.080347 -0.496456
H6    H     H_    0.624726 0.626480 0.133602 0.240418
H7    H     H_    0.946531 0.297440 0.756374 0.202417
N5    N     N_R   0.790754 0.705319 0.618540 0.160308
O13   O     O_R   0.841447 0.692181 0.670225 -0.303976
O14   O     O_R   0.765585 0.811029 0.634116 -0.295309
H8    H     H_    0.479836 0.111216 0.276275 0.209658
H9    H     H_    0.479890 0.886140 0.276697 0.182569
H10   H     H_    0.577418 0.892320 0.710029 0.183731
N6    N     N_R   0.511498 0.125429 0.869384 0.172180
O15   O     O_R   0.539872 0.209959 0.937194 -0.358645
O16   O     O_R   0.462402 0.087219 0.918202 -0.305294
H11   H     H_    0.577566 0.114845 0.710916 0.120957
H12   H     H_    0.416713 0.427435 0.133257 0.181424
H13   H     H_    0.049978 0.297586 0.755303 0.203338
N7    N     N_R   0.404226 0.407842 0.862230 0.145714
O17   O     O_R   0.407749 0.303588 0.795194 -0.281882
O18   O     O_R   0.354074 0.449224 0.896012 -0.323746
N8    N     N_R   0.645074 0.611328 0.874370 0.141412
O19   O     O_R   0.682556 0.700828 0.875302 -0.301168
O20   O     O_R   0.662019 0.499017 0.850712 -0.310669
H14   H     H_    0.567227 0.714433 0.867288 0.105562
H15   H     H_    0.558646 0.721260 0.120197 0.183878
N9    N     N_R   0.058443 0.729185 0.197700 0.170867
O21   O     O_R   0.087363 0.822289 0.247933 -0.265630
O22   O     O_R   0.044600 0.729572 0.066496 -0.298883
H16   H     H_    0.213677 0.686875 0.559990 0.194549
N10   N     N_R   0.325810 0.724247 0.580118 0.119705
O23   O     O_R   0.302228 0.829572 0.552965 -0.302267
O24   O     O_R   0.370796 0.723564 0.658519 -0.328602
H17   H     H_    0.323567 0.315082 0.427703 0.174610
H18   H     H_    0.218802 0.310406 0.418979 0.175676

loop_
_geom_bond_atom_site_label_1
_geom_bond_atom_site_label_2
_geom_bond_distance
_ccdc_geom_bond_type
C35   C36   1.395806 A    
C7    C10   1.402826 A    
C8    C9    1.406077 A    
C4    C27   1.456974 S    
C43   N8    1.463716 S    
N9    O21   1.301377 A    
C38   N6    1.463873 S    
Cu1   Cu2   2.695806 S    
C28   C29   1.403576 A    
C33   C34   1.395206 A    
C26   H3    1.083511 S    
Cu1   O7    1.934939 S    
C15   C16   1.399958 A    
N2    C18   1.369492 A    
C40   H12   1.080951 S    
C19   C20   1.402385 A    
N6    O16   1.302311 A    
C31   C36   1.379727 A    
C23   H18   1.082826 S    
C21   C22   1.401955 A    
O7    C4    1.300223 A    
C22   H17   1.083862 S    
C5    N1    1.368489 A    
C44   H15   1.111965 S    
C36   C37   1.493965 S    
C7    C8    1.410737 A    
O5    C3    1.297724 A    
C27   C28   1.397989 A    
C19   H16   1.083226 S    
C39   C44   1.485131 S    
N1    C6    1.368286 A    
C12   C13   1.411267 A    
C2    C21   1.459832 S    
N5    O13   1.300994 A    
Cu2   N3    2.025644 S    
C43   C44   1.521938 S    
C34   H9    1.083165 S    
C10   C11   1.392413 A    
C19   C24   1.399810 A    
N3    C40   1.360161 A    
C25   C26   1.391829 A    
O3    Cu1   1.938413 S    
C26   C27   1.396917 A    
N8    O20   1.302388 A    
C5    C9    1.404282 A    
O2    Cu2   1.964952 S    
C18   O12   1.348076 S    
C41   N7    1.427952 S    
C31   C32   1.395224 A    
C11   H13   1.083212 S    
C13   C14   1.416319 A    
O3    C2    1.298251 A    
C22   C23   1.392465 A    
C16   H1    1.083734 S    
C14   C15   1.422364 A    
N8    O19   1.300589 A    
C44   H6    1.112227 S    
C10   H7    1.083189 S    
C39   N3    1.359299 A    
O1    C1    1.295862 A    
C20   C21   1.416979 A    
N9    O22   1.301113 A    
C28   H4    1.082816 S    
Cu2   O8    1.938413 S    
C40   C41   1.418498 A    
C6    C7    1.402762 A    
C31   C38   1.497028 S    
C12   C17   1.399646 A    
N6    O15   1.300380 A    
N10   O24   1.300180 A    
C38   H11   1.113486 S    
C25   C30   1.401694 A    
C23   C24   1.398150 A    
O8    C4    1.296018 A    
C39   C42   1.407473 A    
N7    O17   1.299900 A    
N7    O18   1.301182 A    
C29   N5    1.441564 S    
C25   H2    1.082936 S    
C32   C33   1.406164 A    
C14   C18   1.414394 A    
Cu1   O5    1.964952 S    
C34   C35   1.406965 A    
C17   N2    1.366581 A    
N2    C24   1.434952 S    
O1    Cu1   1.963313 S    
C33   H8    1.083258 S    
N1    C30   1.433858 S    
O6    C3    1.295673 A    
C17   O11   1.349879 S    
O4    Cu2   1.934943 S    
C1    C32   1.446914 S    
C5    O9    1.349558 S    
C9    C16   1.400668 A    
C15   N9    1.433609 S    
N4    C42   1.371118 A    
C37   H10   1.112286 S    
O2    C1    1.296187 A    
C43   H14   1.104236 S    
C37   C38   1.518942 S    
O4    C2    1.298580 A    
C20   N10   1.440515 S    
C8    C13   1.413369 A    
C42   C43   1.499754 S    
N10   O23   1.301502 A    
Cu1   N4    2.025235 S    
C37   H5    1.111077 S    
C41   N4    1.386894 A    
Cu2   O6    1.963312 S    
C29   C30   1.416755 A    
C6    O10   1.349611 S    
C11   C12   1.404851 A    
N5    O14   1.301580 A    
C3    C35   1.449592 S    
