data_mof_unit_66199.cif
_audit_creation_date              2012-12-10T19:57:56-0500
_audit_creation_method            fapswitch 2.2
_symmetry_space_group_name_H-M    P1
_symmetry_Int_Tables_number       1
_space_group_crystal_system       triclinic
_cell_length_a                    38.765969
_cell_length_b                    32.090175
_cell_length_c                    21.747616
_cell_angle_alpha                 89.93161
_cell_angle_beta                  124.123616
_cell_angle_gamma                 89.905969
_cell_volume                      22396.1370257

loop_
_atom_site_label
_atom_site_type_symbol
_atom_type_description
_atom_site_fract_x
_atom_site_fract_y
_atom_site_fract_z
_atom_type_partial_charge
C1    C     C_R   0.419305 0.500042 0.419209 0.907525
C2    C     C_R   0.706620 0.498907 0.707305 0.134891
C3    C     C_2   0.001001 0.992320 0.185961 -0.398581
C4    C     C_2   0.531128 0.525899 0.748224 0.189867
C5    C     C_2   0.469549 0.473138 0.252284 0.190609
C6    C     C_2   0.031127 0.025907 0.748221 0.190017
C7    C     C_2   0.969537 0.973153 0.252275 0.190619
C8    C     C_2   0.507693 0.498627 0.692712 -0.412614
C9    C     C_2   0.491900 0.501252 0.306869 -0.414379
C10   C     C_2   0.007695 0.998631 0.692715 -0.412762
C11   C     C_2   0.991907 0.001254 0.306876 -0.414362
C12   C     C_R   0.228753 0.464984 0.200121 0.181749
C13   C     C_R   0.793388 0.999258 0.292446 0.135158
C14   C     C_R   0.771495 0.462024 0.791084 0.181485
C15   C     C_R   0.728752 0.965048 0.199946 0.181788
C16   C     C_R   0.271495 0.961901 0.790554 0.181511
C17   C     C_R   0.206641 0.498108 0.205831 0.137776
C18   C     C_R   0.793375 0.497911 0.793774 0.138373
C19   C     C_R   0.706641 0.998107 0.205825 0.137859
C20   C     C_R   0.293375 0.997911 0.793755 0.138306
C21   C     C_R   0.227967 0.531212 0.254557 -0.226183
C22   C     C_R   0.771818 0.533669 0.753381 -0.226709
C23   C     C_R   0.727968 0.031148 0.254718 -0.226455
C24   C     C_R   0.206620 0.998906 0.707296 0.134835
C25   C     C_R   0.271818 0.033791 0.753871 -0.226509
C26   C     C_3   0.555873 0.560399 0.741493 -0.334526
C27   C     C_3   0.585010 0.584768 0.812949 -0.915577
C28   C     C_3   0.446395 0.437382 0.260182 -0.330258
C29   C     C_3   0.418701 0.411713 0.189713 -0.928260
C30   C     C_3   0.055871 0.060407 0.741485 -0.334589
C31   C     C_3   0.085006 0.084781 0.812938 -0.915468
C32   C     C_3   0.946357 0.937417 0.260153 -0.330114
C33   C     C_3   0.918641 0.911768 0.189667 -0.928544
C34   C     C_3   0.206728 0.428647 0.148128 -0.426001
C35   C     C_R   0.272399 0.466048 0.243932 -0.225301
C36   C     C_3   0.191014 0.397750 0.180477 -0.846182
C37   C     C_3   0.793776 0.422792 0.833965 -0.426933
C38   C     C_3   0.809733 0.397890 0.794948 -0.845054
C39   C     C_3   0.706727 0.928780 0.147771 -0.425952
C40   C     C_3   0.691013 0.897773 0.179964 -0.846392
C41   C     C_3   0.293775 0.922537 0.832879 -0.427085
C42   C     C_3   0.309733 0.897994 0.793512 -0.844876
C43   C     C_3   0.450038 0.293874 0.042307 -0.409885
C44   C     C_3   0.476882 0.309521 0.122236 -0.847081
C45   C     C_3   0.550451 0.293736 0.959213 -0.409377
C46   C     C_R   0.727840 0.463028 0.747461 -0.224440
C47   C     C_3   0.523543 0.309188 0.879028 -0.845360
C48   C     C_3   0.949456 0.793832 0.041234 -0.411245
C49   C     C_3   0.975650 0.809739 0.121054 -0.842097
C50   C     C_3   0.053097 0.793782 0.965320 -0.413085
C51   C     C_3   0.093222 0.809355 0.035178 -0.834068
C52   C     C_R   0.772399 0.966112 0.243761 -0.225424
C53   C     C_R   0.227840 0.962905 0.746942 -0.224383
C54   C     C_1   0.162130 0.499017 0.161761 -0.062360
C55   C     C_1   0.837878 0.498914 0.838092 -0.062668
C56   C     C_1   0.662130 0.999016 0.161758 -0.062527
C57   C     C_R   0.580695 0.499943 0.580801 0.907209
C58   C     C_1   0.337878 0.998914 0.838085 -0.062524
C59   C     C_1   0.337788 0.499805 0.337117 -0.055845
C60   C     C_1   0.662216 0.499442 0.662761 -0.056104
C61   C     C_1   0.837788 0.999804 0.337115 -0.055983
C62   C     C_1   0.162216 0.999442 0.662756 -0.056046
C63   C     C_1   0.375079 0.500061 0.374678 -0.188740
C64   C     C_1   0.624923 0.499765 0.625278 -0.189408
C65   C     C_1   0.875079 0.000061 0.374677 -0.188891
C66   C     C_1   0.124923 0.999765 0.625276 -0.189395
C67   C     C_1   0.124842 0.499593 0.124715 -0.186845
C68   C     C_R   0.919305 0.000042 0.419208 0.907521
C69   C     C_1   0.875161 0.499555 0.875259 -0.187182
C70   C     C_1   0.624842 0.999592 0.124715 -0.187000
C71   C     C_1   0.375161 0.999556 0.875258 -0.187019
C72   C     C_R   0.500051 0.419341 0.000103 0.914412
C73   C     C_R   0.000055 0.919339 0.000088 0.914288
C74   C     C_R   0.499912 0.501537 0.880586 0.953528
C75   C     C_R   0.500102 0.498487 0.119422 0.953989
C76   C     C_R   0.999912 0.001545 0.880587 0.953082
C77   C     C_R   0.000102 0.998485 0.119422 0.954061
C78   C     C_R   0.499948 0.580713 0.999924 0.913519
C79   C     C_R   0.080695 0.999943 0.580801 0.907280
C80   C     C_R   0.999948 0.080713 0.999925 0.913559
C81   C     C_R   0.502192 0.499887 0.621350 0.929534
C82   C     C_R   0.497677 0.500078 0.378511 0.930456
C83   C     C_R   0.002193 0.999888 0.621351 0.929546
C84   C     C_R   0.997679 0.000078 0.378513 0.930516
C85   C     C_R   0.000001 0.419398 0.000032 0.907164
C86   C     C_R   0.500001 0.919398 0.000032 0.907131
C87   C     C_R   0.080625 0.500001 0.080569 0.908281
C88   C     C_R   0.919375 0.500014 0.919429 0.907856
C89   C     C_R   0.580625 0.000000 0.080569 0.908081
C90   C     C_R   0.271293 0.531783 0.297870 -0.184946
C91   C     C_R   0.419375 0.000014 0.919429 0.907973
C92   C     C_R   0.999972 0.580661 0.999953 0.906620
C93   C     C_R   0.499981 0.080660 0.999958 0.906574
C94   C     C_R   0.976203 0.727945 0.019779 -0.229981
C95   C     C_R   0.025135 0.727941 0.983801 -0.229083
C96   C     C_R   0.476379 0.227967 0.020053 -0.229170
C97   C     C_R   0.524043 0.227920 0.981248 -0.228245
C98   C     C_R   0.000455 0.706502 0.001259 0.098929
C99   C     C_R   0.500159 0.206500 0.000515 0.098511
C100  C     C_R   0.524360 0.271479 0.980956 0.146122
C101  C     C_R   0.728489 0.534170 0.710150 -0.186220
C102  C     C_R   0.476196 0.271539 0.020692 0.146929
C103  C     C_R   0.025860 0.771497 0.984478 0.145567
C104  C     C_R   0.976235 0.771515 0.020971 0.146695
C105  C     C_R   0.500291 0.293334 0.000851 0.097981
C106  C     C_R   0.001078 0.793330 0.002822 0.099685
C107  C     C_1   0.000194 0.662126 0.000521 -0.039896
C108  C     C_1   0.500054 0.162124 0.000198 -0.039958
C109  C     C_1   0.500223 0.337934 0.000666 -0.052134
C110  C     C_1   0.000526 0.837930 0.001580 -0.054311
C111  C     C_1   0.500158 0.375191 0.000424 -0.195688
C112  C     C_R   0.771294 0.031718 0.298032 -0.185079
C113  C     C_1   0.000215 0.875188 0.000723 -0.196396
C114  C     C_2   0.533111 0.519714 0.817238 -0.148140
C115  C     C_2   0.467310 0.479465 0.183080 -0.147450
C116  C     C_2   0.033110 0.019727 0.817237 -0.148135
C117  C     C_2   0.967303 0.979478 0.183074 -0.147474
C118  C     C_1   0.000056 0.624855 0.000085 -0.187242
C119  C     C_1   0.500005 0.124853 0.999992 -0.187096
C120  C     C_R   0.963037 0.271919 0.950222 -0.183789
C121  C     C_R   0.036706 0.271630 0.049558 -0.183868
C122  C     C_R   0.462878 0.771919 0.951096 -0.183738
C123  C     C_R   0.228489 0.034291 0.710645 -0.186141
C124  C     C_R   0.536865 0.771631 0.048676 -0.183883
C125  C     C_R   0.999885 0.293404 0.999938 0.170728
C126  C     C_R   0.499886 0.793404 0.999935 0.170763
C127  C     C_R   0.536835 0.728204 0.048590 -0.183395
C128  C     C_R   0.462851 0.728490 0.951007 -0.182354
C129  C     C_R   0.036676 0.228203 0.049474 -0.183351
C130  C     C_R   0.963009 0.228490 0.950133 -0.182414
C131  C     C_R   0.499829 0.706716 0.999760 0.168731
C132  C     C_R   0.999829 0.206715 0.999765 0.168735
C133  C     C_1   0.999924 0.337830 0.000013 -0.072046
C134  C     C_R   0.293388 0.499258 0.292449 0.135083
C135  C     C_1   0.499924 0.837830 0.000012 -0.072029
C136  C     C_1   0.499810 0.662287 0.999724 -0.072207
C137  C     C_1   0.999810 0.162286 0.999727 -0.072201
C138  C     C_1   0.499843 0.624974 0.999776 -0.182334
C139  C     C_1   0.999843 0.124973 0.999777 -0.182346
C140  C     C_1   0.999962 0.375140 0.000051 -0.181001
C141  C     C_1   0.499962 0.875140 0.000051 -0.180981
C142  C     C_2   0.499100 0.507758 0.814124 -0.398883
C143  C     C_2   0.501002 0.492323 0.185963 -0.398568
C144  C     C_2   0.999099 0.007772 0.814124 -0.399394
H1    H     H_    0.957400 0.710636 0.033576 0.146850
H2    H     H_    0.712052 0.561994 0.679015 0.147804
H3    H     H_    0.787552 0.057417 0.335794 0.148260
H4    H     H_    0.212052 0.062210 0.679906 0.147888
H5    H     H_    0.562072 0.525560 0.870445 0.181114
H6    H     H_    0.438520 0.472859 0.130023 0.180867
H7    H     H_    0.062072 0.025571 0.870444 0.181152
H8    H     H_    0.938509 0.972886 0.130015 0.180871
H9    H     H_    0.434139 0.711930 0.913117 0.141482
H10   H     H_    0.565526 0.711423 0.086420 0.141072
H11   H     H_    0.934421 0.211931 0.911562 0.141451
H12   H     H_    0.043957 0.710636 0.969981 0.147012
H13   H     H_    0.065244 0.211422 0.087985 0.141116
H14   H     H_    0.934470 0.288704 0.911714 0.139080
H15   H     H_    0.065296 0.288189 0.088125 0.139342
H16   H     H_    0.434188 0.788703 0.913270 0.139045
H17   H     H_    0.565579 0.788190 0.086562 0.139275
H18   H     H_    0.469153 0.504877 0.761227 0.162680
H19   H     H_    0.530851 0.495889 0.238835 0.162772
H20   H     H_    0.969152 0.004894 0.761227 0.162667
H21   H     H_    0.030852 0.995873 0.238834 0.162811
H22   H     H_    0.567178 0.599497 0.833141 0.267417
H23   H     H_    0.458143 0.210680 0.035138 0.147000
H24   H     H_    0.609509 0.563927 0.856493 0.257715
H25   H     H_    0.600568 0.609793 0.801776 0.256744
H26   H     H_    0.575086 0.546598 0.723318 0.202299
H27   H     H_    0.533724 0.583064 0.698625 0.225533
H28   H     H_    0.393201 0.431331 0.145210 0.259018
H29   H     H_    0.437388 0.398135 0.170337 0.265789
H30   H     H_    0.404409 0.385763 0.201770 0.255388
H31   H     H_    0.469541 0.415737 0.304046 0.225195
H32   H     H_    0.426389 0.450118 0.277477 0.202698
H33   H     H_    0.067172 0.099510 0.833127 0.267424
H34   H     H_    0.542201 0.210607 0.965967 0.147270
H35   H     H_    0.109506 0.063942 0.856485 0.257730
H36   H     H_    0.100563 0.109805 0.801761 0.256756
H37   H     H_    0.075084 0.046606 0.723313 0.202309
H38   H     H_    0.033721 0.083071 0.698614 0.225516
H39   H     H_    0.893153 0.931405 0.145184 0.259013
H40   H     H_    0.937315 0.898181 0.170272 0.265801
H41   H     H_    0.904335 0.885826 0.201710 0.255354
H42   H     H_    0.969488 0.915755 0.304001 0.225205
H43   H     H_    0.926363 0.950169 0.277461 0.202642
H44   H     H_    0.494564 0.471449 0.702279 0.150349
H45   H     H_    0.290063 0.440949 0.240646 0.139925
H46   H     H_    0.503975 0.528934 0.296281 0.152140
H47   H     H_    0.994566 0.971455 0.702286 0.149974
H48   H     H_    0.004000 0.028927 0.296305 0.152131
H49   H     H_    0.217489 0.385637 0.234683 0.259866
H50   H     H_    0.168006 0.412734 0.188548 0.262803
H51   H     H_    0.175669 0.371141 0.141782 0.246842
H52   H     H_    0.180272 0.440030 0.093223 0.212610
H53   H     H_    0.228213 0.411872 0.138003 0.201729
H54   H     H_    0.783355 0.389091 0.738202 0.260200
H55   H     H_    0.832637 0.416272 0.790953 0.263536
H56   H     H_    0.710352 0.435851 0.744385 0.140870
H57   H     H_    0.825271 0.369004 0.826963 0.246231
H58   H     H_    0.820139 0.430782 0.891231 0.212055
H59   H     H_    0.772404 0.402588 0.839570 0.202237
H60   H     H_    0.717488 0.885596 0.234109 0.259801
H61   H     H_    0.668005 0.912685 0.188111 0.262827
H62   H     H_    0.675668 0.871218 0.141136 0.246798
H63   H     H_    0.680271 0.940229 0.092923 0.212617
H64   H     H_    0.728212 0.912079 0.137561 0.201676
H65   H     H_    0.283356 0.889394 0.736641 0.260250
H66   H     H_    0.332637 0.916551 0.789780 0.263598
H67   H     H_    0.790063 0.941062 0.240348 0.139877
H68   H     H_    0.325271 0.869003 0.825117 0.246156
H69   H     H_    0.320139 0.930326 0.890258 0.212019
H70   H     H_    0.272403 0.902159 0.838195 0.202255
H71   H     H_    0.211038 0.556647 0.258952 0.152716
H72   H     H_    0.788569 0.561221 0.755436 0.151794
H73   H     H_    0.711039 0.056533 0.259241 0.152525
H74   H     H_    0.288569 0.061437 0.756320 0.151965
H75   H     H_    0.493353 0.283002 0.160952 0.260613
H76   H     H_    0.500180 0.332469 0.129079 0.262305
H77   H     H_    0.456749 0.324914 0.136885 0.245397
H78   H     H_    0.210351 0.935635 0.743478 0.140871
H79   H     H_    0.432991 0.320375 0.003901 0.211861
H80   H     H_    0.425978 0.272605 0.037340 0.200976
H81   H     H_    0.507482 0.282547 0.840713 0.259458
H82   H     H_    0.499891 0.331938 0.871659 0.261455
H83   H     H_    0.543558 0.324756 0.864331 0.247679
H84   H     H_    0.567272 0.320319 0.997210 0.212762
H85   H     H_    0.574699 0.272458 0.964656 0.200965
H86   H     H_    0.992044 0.783359 0.160172 0.260661
H87   H     H_    0.998981 0.832798 0.128377 0.262529
H88   H     H_    0.955063 0.825072 0.134727 0.244248
H89   H     H_    0.287552 0.557531 0.335502 0.148365
H90   H     H_    0.932515 0.820196 0.002389 0.211046
H91   H     H_    0.925303 0.772497 0.035746 0.200667
H92   H     H_    0.086322 0.832151 0.065273 0.266402
H93   H     H_    0.111025 0.782775 0.072699 0.257727
H94   H     H_    0.112821 0.824901 0.019532 0.245822
H95   H     H_    0.061609 0.772506 0.935481 0.200948
H96   H     H_    0.035849 0.820302 0.927123 0.209085
O1    O     O_R   0.439010 0.534430 0.439020 -0.613237
O2    O     O_R   0.939020 0.499970 0.990130 -0.617026
O3    O     O_R   0.560980 0.999970 0.009870 -0.617112
O4    O     O_R   0.439020 0.999970 0.990130 -0.617013
O5    O     O_R   0.000010 0.561020 0.051000 -0.616203
O6    O     O_R   0.999990 0.561020 0.949000 -0.616795
O7    O     O_R   0.500010 0.061020 0.051000 -0.616464
O8    O     O_R   0.499990 0.061020 0.949000 -0.616454
O9    O     O_R   0.439010 0.465570 0.438980 -0.623149
O10   O     O_R   0.560990 0.465570 0.561020 -0.613712
O11   O     O_R   0.939010 0.965570 0.438980 -0.623242
O12   O     O_R   0.560990 0.534430 0.560980 -0.622887
O13   O     O_R   0.060990 0.965570 0.561020 -0.613737
O14   O     O_R   0.500010 0.534430 0.590460 -0.628391
O15   O     O_R   0.499990 0.534430 0.409540 -0.614545
O16   O     O_R   0.000010 0.034430 0.590460 -0.628370
O17   O     O_R   0.999990 0.034430 0.409540 -0.614535
O18   O     O_R   0.500010 0.465570 0.590420 -0.615356
O19   O     O_R   0.499990 0.465570 0.409580 -0.629379
O20   O     O_R   0.000010 0.965570 0.590420 -0.615561
O21   O     O_R   0.999990 0.965570 0.409580 -0.629353
O22   O     O_R   0.534430 0.439010 0.034350 -0.617625
O23   O     O_R   0.939010 0.034430 0.439020 -0.613240
O24   O     O_R   0.465570 0.439010 0.965650 -0.620532
O25   O     O_R   0.034430 0.939010 0.034350 -0.617504
O26   O     O_R   0.965570 0.939010 0.965650 -0.620631
O27   O     O_R   0.534420 0.500000 0.943920 -0.622275
O28   O     O_R   0.465580 0.500000 0.056080 -0.621747
O29   O     O_R   0.034420 1.000000 0.943920 -0.622232
O30   O     O_R   0.965580 1.000000 0.056080 -0.621738
O31   O     O_R   0.465560 0.500000 0.875080 -0.622063
O32   O     O_R   0.534440 0.500000 0.124920 -0.622040
O33   O     O_R   0.965560 0.000000 0.875080 -0.622117
O34   O     O_R   0.060990 0.034430 0.560980 -0.622859
O35   O     O_R   0.034440 1.000000 0.124920 -0.621991
O36   O     O_R   0.534430 0.560990 0.034430 -0.619788
O37   O     O_R   0.465570 0.560990 0.965570 -0.616630
O38   O     O_R   0.034430 0.060990 0.034430 -0.619705
O39   O     O_R   0.965570 0.060990 0.965570 -0.616640
O40   O     O_R   0.000000 0.439050 0.051090 -0.615776
O41   O     O_R   1.000000 0.439050 0.948910 -0.615775
O42   O     O_R   0.500000 0.939050 0.051090 -0.615770
O43   O     O_R   0.500000 0.939050 0.948910 -0.615759
O44   O     O_R   0.060990 0.500040 0.112010 -0.615791
O45   O     O_R   0.939010 0.500040 0.887990 -0.616038
O46   O     O_R   0.560990 0.000040 0.112010 -0.615870
O47   O     O_R   0.439010 0.000040 0.887990 -0.615912
O48   O     O_R   0.060980 0.499970 0.009870 -0.617099
Zn1   Zn    Zn3+2 0.500000 0.545980 0.500000 0.950773
Zn2   Zn    Zn3+2 0.999990 0.500050 0.931820 0.964561
Zn3   Zn    Zn3+2 0.500010 0.000050 0.068180 0.965156
Zn4   Zn    Zn3+2 0.499990 0.000050 0.931820 0.964964
Zn5   Zn    Zn3+2 1.000000 0.045980 0.500000 0.950722
Zn6   Zn    Zn3+2 0.500000 0.454020 0.500000 0.948310
Zn7   Zn    Zn3+2 0.000000 0.954020 0.500000 0.947895
Zn8   Zn    Zn3+2 0.545980 0.500000 0.045940 0.954960
Zn9   Zn    Zn3+2 0.454020 0.500000 0.954060 0.955384
Zn10  Zn    Zn3+2 0.045980 0.000000 0.045940 0.955086
Zn11  Zn    Zn3+2 0.954020 0.000000 0.954060 0.955118
Zn12  Zn    Zn3+2 0.000010 0.500050 0.068180 0.965302

loop_
_geom_bond_atom_site_label_1
_geom_bond_atom_site_label_2
_ccdc_geom_bond_type
C19   C56   S    
C120  H14   S    
C23   H73   S    
C122  C126  A    
O10   Zn6   S    
C22   H72   S    
C41   C42   S    
C7    C117  S    
C91   O47   A    
C44   H76   S    
C78   O36   A    
C29   H30   S    
C4    C8    D    
C129  H13   S    
C97   H34   S    
C95   C98   A    
C73   C113  S    
C14   C46   A    
O38   Zn10  S    
C16   C53   A    
C15   C19   A    
O9    Zn6   S    
C137  C139  T    
C3    H21   S    
C81   O18   A    
O28   Zn9   S    
C22   C101  A    
O46   Zn3   S    
C31   H33   S    
C120  C130  A    
C114  C142  D    
C11   C84   S    
C4    C114  S    
C28   C29   S    
O13   Zn7   S    
O34   Zn5   S    
C11   H48   S    
C13   C112  A    
C96   C102  A    
C109  C111  T    
C88   O2    A    
C30   C31   S    
C90   C134  A    
C2    C60   S    
C58   C71   T    
C75   O32   A    
C94   C98   A    
C34   H52   S    
C48   C104  S    
C96   C99   A    
C1    C63   S    
C10   C83   S    
O39   Zn11  S    
C35   C134  A    
C102  C105  A    
C44   H77   S    
C95   H12   S    
C143  H19   S    
C49   H86   S    
C92   C118  S    
C36   H49   S    
C73   O25   A    
C26   H27   S    
C127  C131  A    
C3    C117  D    
C116  C144  D    
O6    Zn2   S    
C40   H60   S    
O19   Zn6   S    
C38   H57   S    
C39   H63   S    
C12   C17   A    
O2    Zn12  S    
C52   H67   S    
C24   C62   S    
C86   O43   A    
C89   O3    A    
C130  H11   S    
C7    C32   S    
C81   O14   A    
C51   H94   S    
O14   Zn1   S    
C93   O7    A    
C123  H4    S    
C27   H25   S    
C107  C118  T    
C34   C36   S    
C42   H66   S    
O35   Zn10  S    
O17   Zn5   S    
C27   H24   S    
C21   C90   A    
C129  C132  A    
C94   H1    S    
C74   C142  S    
C72   C111  S    
C94   C104  A    
C50   C103  S    
C35   H45   S    
C85   O41   A    
C5    C115  S    
C92   O5    A    
C80   O38   A    
C30   H38   S    
C108  C119  T    
C25   H74   S    
O27   Zn8   S    
C44   H75   S    
C45   H85   S    
C34   H53   S    
C78   C138  S    
C127  H10   S    
C104  C106  A    
O29   Zn10  S    
C97   C99   A    
C95   C103  A    
C117  H8    S    
C7    C11   D    
C40   H62   S    
C75   O28   A    
C45   C47   S    
C86   O42   A    
C115  C143  D    
C101  H2    S    
O23   Zn5   S    
C72   O24   A    
O8    Zn4   S    
C13   C52   A    
C8    C81   S    
C84   O17   A    
O24   Zn9   S    
O31   Zn9   S    
O40   Zn12  S    
C136  C138  T    
C131  C136  S    
C121  H15   S    
C29   H29   S    
C39   C40   S    
C2    C46   A    
C62   C66   T    
C120  C125  A    
C28   H32   S    
C54   C67   T    
C2    C101  A    
C53   H78   S    
O45   Zn2   S    
O44   Zn12  S    
C24   C123  A    
C8    H44   S    
C98   C107  S    
C90   H89   S    
C31   H35   S    
C51   H92   S    
C57   O12   A    
C45   H84   S    
O48   Zn2   S    
C49   H87   S    
C130  C132  A    
C43   C44   S    
O33   Zn11  S    
C121  C125  A    
C37   C38   S    
C66   C79   S    
C93   O8    A    
C80   O39   A    
C5    C28   S    
C41   H69   S    
C74   O27   A    
O18   Zn6   S    
O4    Zn3   S    
C46   H56   S    
C47   H81   S    
O20   Zn7   S    
C135  C141  T    
C16   C20   A    
C65   C68   S    
C15   C39   S    
C76   O29   A    
C33   H40   S    
C21   H71   S    
C50   C51   S    
C37   H59   S    
C85   O40   A    
C71   C91   S    
C83   O20   A    
C51   H93   S    
C15   C52   A    
C87   O48   A    
C12   C35   A    
C69   C88   S    
C110  C113  T    
C6    C116  S    
C84   O21   A    
C55   C69   T    
C42   H65   S    
C75   C143  S    
C18   C55   S    
O32   Zn8   S    
C124  C127  A    
O37   Zn9   S    
C128  H9    S    
C68   O11   A    
C48   C49   S    
C6    C30   S    
C99   C108  S    
C126  C135  S    
C79   O34   A    
C56   C70   T    
O21   Zn7   S    
C26   C27   S    
O12   Zn1   S    
C30   H37   S    
O22   Zn8   S    
C82   O15   A    
C70   C89   S    
C12   C34   S    
C77   O35   A    
C3    C77   S    
C128  C131  A    
C76   C144  S    
C97   C100  A    
C42   H68   S    
C19   C23   A    
C57   C64   S    
C124  C126  A    
C124  H17   S    
C106  C110  S    
C125  C133  S    
O3    Zn4   S    
C39   H64   S    
C105  C109  S    
C40   H61   S    
C50   H95   S    
C92   O6    A    
C91   O4    A    
C59   C134  S    
C32   H43   S    
C23   C112  A    
C82   O19   A    
C77   O30   A    
C67   C87   S    
C14   C18   A    
C100  C105  A    
C78   O37   A    
C121  C129  A    
C45   C100  S    
C6    C10   D    
C4    C26   S    
C74   O31   A    
C28   H31   S    
C87   O44   A    
O43   Zn4   S    
C24   C53   A    
C80   C139  S    
O41   Zn2   S    
C37   H58   S    
C59   C63   T    
C10   H47   S    
C112  H3    S    
C32   H42   S    
C83   O16   A    
C60   C64   T    
O11   Zn7   S    
C9    C82   S    
C96   H23   S    
O26   Zn11  S    
C18   C22   A    
C43   H80   S    
C132  C137  S    
C36   H51   S    
O15   Zn1   S    
C1    O1    A    
C88   O45   A    
C32   C33   S    
C14   C37   S    
C41   H70   S    
O5    Zn12  S    
C33   H39   S    
O16   Zn5   S    
C47   H82   S    
C49   H88   S    
O36   Zn8   S    
C16   C41   S    
C115  H6    S    
C50   H96   S    
C85   C140  S    
C76   O33   A    
C48   H90   S    
C103  C106  A    
C1    O9    A    
O25   Zn10  S    
C68   O23   A    
C29   H28   S    
C122  C128  A    
C72   O22   A    
C142  H18   S    
C36   H50   S    
C43   C102  S    
C48   H91   S    
C73   O26   A    
C38   H55   S    
C27   H22   S    
O1    Zn1   S    
C61   C65   T    
O42   Zn3   S    
C31   H36   S    
C47   H83   S    
C79   O13   A    
C26   H26   S    
C133  C140  T    
C89   O46   A    
C20   C25   A    
C25   C123  A    
O7    Zn3   S    
C13   C61   S    
C122  H16   S    
O47   Zn4   S    
C33   H41   S    
C5    C9    D    
C93   C119  S    
C114  H5    S    
C57   O10   A    
C20   C58   S    
C17   C54   S    
C116  H7    S    
C144  H20   S    
C43   H79   S    
C9    H46   S    
C86   C141  S    
C38   H54   S    
O30   Zn11  S    
C17   C21   A    
