data_mof_unit_54612.cif
_audit_creation_date              2012-10-26T19:05:05-0400
_audit_creation_method            fapswitch 2.2
_symmetry_space_group_name_H-M    P1
_symmetry_Int_Tables_number       1
_space_group_crystal_system       triclinic
_cell_length_a                    15.875869
_cell_length_b                    10.860065
_cell_length_c                    9.622122
_cell_angle_alpha                 89.666168
_cell_angle_beta                  90.346411
_cell_angle_gamma                 94.177689
_cell_volume                      1654.51621881

loop_
_atom_site_label
_atom_site_type_symbol
_atom_type_description
_atom_site_fract_x
_atom_site_fract_y
_atom_site_fract_z
_atom_type_partial_charge
C1    C     C_R   0.494164 0.261586 0.499850 0.526741
C2    C     C_R   0.356673 0.051459 0.824373 -0.156731
C3    C     C_R   0.352563 0.923716 0.823934 0.449348
C4    C     C_R   0.340394 0.499224 0.499708 0.552568
C5    C     C_R   0.387199 0.861321 0.714477 0.430032
C6    C     C_R   0.433883 0.926909 0.608032 -0.061293
C7    C     C_R   0.437751 0.058419 0.608289 -0.058272
C8    C     C_R   0.479265 0.125615 0.496970 0.013331
C9    C     C_R   0.499775 0.061030 0.375276 0.081315
C10   C     C_R   0.486316 0.933619 0.370777 0.112568
C11   C     C_R   0.469581 0.866325 0.494265 0.024366
C12   C     C_3   0.948974 0.458079 0.652241 0.524106
C13   C     C_R   0.641278 0.622299 0.139757 0.103763
C14   C     C_R   0.717638 0.635741 0.066652 0.015017
C15   C     C_R   0.714199 0.641680 0.923349 0.413927
C16   C     C_R   0.489057 0.735284 0.499028 0.636433
C17   C     C_R   0.636559 0.625131 0.857418 0.407270
C18   C     C_R   0.566603 0.562063 0.925195 0.052181
C19   C     C_R   0.567617 0.561501 0.074595 0.081648
C20   C     C_R   0.437489 0.438653 0.073263 0.210695
C21   C     C_R   0.437538 0.439899 0.925469 0.041126
C22   C     C_R   0.659504 0.499135 0.500408 0.563892
C23   C     C_3   0.916896 0.500330 0.505884 -0.003920
C24   C     C_3   0.047548 0.445321 0.647236 0.441034
C25   C     C_3   0.043935 0.419978 0.382512 0.145932
C26   C     C_3   0.946224 0.413474 0.390407 -0.324710
C27   C     C_1   0.749099 0.499838 0.501540 0.055662
C28   C     C_3   0.083023 0.499417 0.504509 0.020238
C29   C     C_3   0.956946 0.632412 0.473008 0.273419
C30   C     C_3   0.055445 0.634002 0.481302 0.015351
C31   C     C_1   0.824618 0.500417 0.503098 0.086745
C32   C     C_1   0.175349 0.499761 0.500762 0.074353
C33   C     C_1   0.250841 0.499608 0.499319 0.060803
C34   C     C_R   0.395504 0.117906 0.715607 -0.183930
Cu1   Cu    Cu3+1 0.499990 0.499990 0.640660 1.091301
Cu2   Cu    Cu3+1 0.500010 0.500010 0.359340 1.038470
F1    F     F_    0.085455 0.513368 0.755364 -0.518827
F2    F     F_    0.933341 0.549045 0.747684 -0.462835
F3    F     F_    0.309005 0.859558 0.925051 -0.565450
F4    F     F_    0.364488 0.739034 0.705624 -0.573820
F5    F     F_    0.783153 0.685082 0.850335 -0.504570
F6    F     F_    0.629890 0.690763 0.739411 -0.567000
F7    F     F_    0.069906 0.470343 0.255564 -0.598475
F8    F     F_    0.925193 0.719607 0.559522 -0.546276
H1    H     H_    0.938823 0.658012 0.365204 0.139738
H2    H     H_    0.907290 0.271143 0.632953 0.194374
H3    H     H_    0.591078 0.174585 0.280274 0.258822
H4    H     H_    0.491829 0.171956 0.203444 0.262714
H5    H     H_    0.430921 0.901430 0.183626 0.270862
H6    H     H_    0.536661 0.903040 0.180106 0.255752
H7    H     H_    0.313853 0.403564 0.114817 0.257617
H8    H     H_    0.370088 0.277520 0.111129 0.188529
H9    H     H_    0.134323 0.312823 0.673058 0.251708
H10   H     H_    0.044714 0.257756 0.592912 0.170186
H11   H     H_    0.645231 0.795118 0.213024 0.218004
H12   H     H_    0.386843 0.215144 0.714528 0.153114
H13   H     H_    0.684823 0.697248 0.322537 0.266771
H14   H     H_    0.839678 0.609144 0.109606 0.284903
H15   H     H_    0.816915 0.758960 0.105864 0.289262
H16   H     H_    0.057801 0.713583 0.678005 0.374735
H17   H     H_    0.087633 0.810513 0.548652 0.251223
H18   H     H_    0.325669 0.099400 0.905729 0.141667
H19   H     H_    0.386389 0.390496 0.869814 0.110246
H20   H     H_    0.065939 0.325328 0.384707 0.150353
H21   H     H_    0.921351 0.316630 0.408797 0.101633
H22   H     H_    0.919957 0.440682 0.288092 0.194251
H23   H     H_    0.080522 0.667283 0.378693 0.188517
H24   H     H_    0.923239 0.320289 0.798232 0.296913
N1    N     N_R   0.500800 0.501210 0.147910 -0.184496
N2    N     N_3   0.092262 0.720558 0.585887 -0.508218
N3    N     N_R   0.500820 0.501290 0.852040 -0.236692
N4    N     N_3   0.900935 0.344818 0.700144 -0.564992
N5    N     N_3   0.536195 0.120620 0.253648 -0.638555
N6    N     N_3   0.483553 0.873378 0.237880 -0.549087
N7    N     N_3   0.371100 0.369022 0.144636 -0.558204
N8    N     N_3   0.068741 0.316897 0.670747 -0.587375
N9    N     N_3   0.634782 0.705777 0.252935 -0.502167
N10   N     N_3   0.795090 0.670354 0.138483 -0.620792
O1    O     O_R   0.499990 0.319640 0.618810 -0.532282
O2    O     O_R   0.500000 0.319660 0.381240 -0.506283
O3    O     O_R   0.379430 0.499990 0.618840 -0.465822
O4    O     O_R   0.379440 0.500020 0.381260 -0.470748
O5    O     O_R   0.500000 0.680340 0.618760 -0.372748
O6    O     O_R   0.500010 0.680360 0.381190 -0.442102
O7    O     O_R   0.620560 0.499980 0.618740 -0.439843
O8    O     O_R   0.620570 0.500010 0.381160 -0.509015

loop_
_geom_bond_atom_site_label_1
_geom_bond_atom_site_label_2
_ccdc_geom_bond_type
H17   N2    S    
C34   H12   S    
C1    C8    S    
C10   N6    S    
Cu1   Cu2   S    
H8    N7    S    
C25   F7    S    
Cu1   O3    S    
C7    C8    A    
C25   C28   S    
C12   C23   S    
C21   N3    A    
C23   C29   S    
H7    N7    S    
H6    N6    S    
C5    C6    A    
H11   N9    S    
C22   O7    A    
C16   O6    A    
C18   C19   A    
C23   C26   S    
C17   F6    S    
C4    O3    A    
Cu2   O4    S    
C8    C9    A    
C9    C10   A    
H2    N4    S    
C30   H23   S    
C2    C34   A    
C22   O8    A    
C12   N4    S    
C3    F3    S    
C13   C14   A    
C9    N5    S    
H15   N10   S    
C30   N2    S    
C24   F1    S    
C13   N9    S    
C13   C19   A    
C27   C31   T    
C26   H22   S    
H13   N9    S    
C28   C32   S    
H3    N5    S    
Cu2   O2    S    
C6    C11   A    
Cu1   O5    S    
C24   N8    S    
Cu2   O8    S    
C25   C26   S    
C16   O5    A    
C20   N7    S    
C29   H1    S    
C25   H20   S    
C23   C31   S    
C29   C30   S    
C11   C16   S    
H16   N2    S    
H24   N4    S    
C17   C18   A    
C15   F5    S    
H10   N8    S    
C22   C27   S    
C29   F8    S    
C1    O1    A    
C7    C34   A    
C20   N1    A    
C19   N1    A    
H9    N8    S    
Cu2   N1    S    
C18   N3    A    
C15   C17   A    
C4    C33   S    
H5    N6    S    
C26   H21   S    
H4    N5    S    
C24   C28   S    
C3    C5    A    
C6    C7    A    
C12   C24   S    
C32   C33   T    
C28   C30   S    
C2    C3    A    
Cu1   O7    S    
Cu2   O6    S    
Cu1   O1    S    
C14   N10   S    
C12   F2    S    
C21   H19   S    
C10   C11   A    
H14   N10   S    
Cu1   N3    S    
C4    O4    A    
C20   C21   A    
C5    F4    S    
C1    O2    A    
C14   C15   A    
C2    H18   S    
