data_mof_unit_34974.cif
_audit_creation_date              2012-12-11T14:30:19-0500
_audit_creation_method            fapswitch 2.2
_symmetry_space_group_name_H-M    P1
_symmetry_Int_Tables_number       1
_space_group_crystal_system       triclinic
_cell_length_a                    12.609407
_cell_length_b                    12.612437
_cell_length_c                    27.040465
_cell_angle_alpha                 89.999587
_cell_angle_beta                  90.000609
_cell_angle_gamma                 119.986317
_cell_volume                      3724.76024795

loop_
_atom_site_label
_atom_site_type_symbol
_atom_type_description
_atom_site_fract_x
_atom_site_fract_y
_atom_site_fract_z
_atom_type_partial_charge
C1    C     C_R   0.557521 0.457248 0.822071 0.563403
C2    C     C_R   0.457225 0.557428 0.177964 0.562070
C3    C     C_R   0.995617 0.305450 0.474014 -0.131385
C4    C     C_R   0.312251 0.008042 0.026405 -0.111031
C5    C     C_R   0.694384 0.690346 0.474102 -0.130676
C6    C     C_R   0.310395 0.005740 0.524750 -0.144900
C7    C     C_R   0.997722 0.306242 0.974798 -0.130966
C8    C     C_R   0.693604 0.691638 0.525284 -0.130643
C9    C     C_R   0.310281 0.005513 0.975220 -0.144902
C10   C     C_R   0.997653 0.306206 0.525195 -0.130962
C11   C     C_R   0.693566 0.691671 0.974709 -0.130641
C12   C     C_R   0.442544 0.899936 0.322010 0.542946
C13   C     C_R   0.100144 0.542767 0.177980 0.565963
C14   C     C_R   0.994236 0.497336 0.974189 0.044250
C15   C     C_R   0.504070 0.007097 0.525664 0.041329
C16   C     C_R   0.502375 0.497225 0.974106 0.043968
C17   C     C_R   0.994206 0.497319 0.525807 0.044248
C18   C     C_R   0.504028 0.007011 0.974323 0.041328
C19   C     C_R   0.502383 0.497222 0.525891 0.043969
C20   C     C_R   0.499997 0.998115 0.473711 0.036999
C21   C     C_R   0.899667 0.442435 0.677911 0.563504
C22   C     C_R   0.003505 0.502139 0.026158 0.044312
C23   C     C_R   0.497593 0.501697 0.473922 0.043028
C24   C     C_R   0.499944 0.998031 0.026275 0.036996
C25   C     C_R   0.003476 0.502125 0.473837 0.044314
C26   C     C_R   0.497587 0.501706 0.026076 0.043027
C27   C     C_R   0.991995 0.689087 0.974327 -0.119882
C28   C     C_R   0.696708 0.006584 0.525707 -0.118395
C29   C     C_R   0.310427 0.303471 0.974240 -0.120392
C30   C     C_R   0.992001 0.689088 0.525671 -0.119879
C31   C     C_R   0.696740 0.006642 0.974296 -0.118393
C32   C     C_R   0.542808 0.100400 0.822118 0.563142
C33   C     C_R   0.310401 0.303502 0.525763 -0.120398
C34   C     C_R   0.687648 0.988227 0.474433 -0.119091
C35   C     C_R   0.010231 0.698297 0.025578 -0.119925
C36   C     C_R   0.301221 0.312539 0.474512 -0.112355
C37   C     C_R   0.687675 0.988287 0.025570 -0.119090
C38   C     C_R   0.010238 0.698300 0.474420 -0.119929
C39   C     C_R   0.301247 0.312512 0.025490 -0.112351
C40   C     C_R   0.962186 0.576583 0.897198 -0.167109
C41   C     C_R   0.614318 0.037424 0.602797 -0.167083
C42   C     C_R   0.423123 0.385892 0.897129 -0.166973
C43   C     C_R   0.557522 0.457249 0.677929 0.563396
C44   C     C_R   0.962179 0.576577 0.602799 -0.167097
C45   C     C_R   0.614331 0.037430 0.897200 -0.167090
C46   C     C_R   0.423114 0.385909 0.602872 -0.166968
C47   C     C_R   0.576273 0.960918 0.397065 -0.159618
C48   C     C_R   0.038300 0.614976 0.102880 -0.167446
C49   C     C_R   0.384790 0.423681 0.397192 -0.160553
C50   C     C_R   0.576267 0.960931 0.102932 -0.159615
C51   C     C_R   0.038298 0.614977 0.397118 -0.167453
C52   C     C_R   0.384800 0.423677 0.102808 -0.160571
C53   C     C_R   0.040623 0.519487 0.128858 0.031395
C54   C     C_R   0.899670 0.442437 0.822088 0.563508
C55   C     C_R   0.479000 0.959958 0.371034 0.001771
C56   C     C_R   0.480412 0.521324 0.128798 0.030027
C57   C     C_R   0.040613 0.519485 0.371139 0.031396
C58   C     C_R   0.478961 0.959921 0.128956 0.001777
C59   C     C_R   0.480412 0.521314 0.371200 0.030031
C60   C     C_R   0.519667 0.042105 0.628482 0.031995
C61   C     C_R   0.958373 0.477863 0.871397 0.032062
C62   C     C_R   0.521984 0.480650 0.628662 0.032108
C63   C     C_R   0.519661 0.042062 0.871508 0.031995
C64   C     C_R   0.958357 0.477851 0.628600 0.032062
C65   C     C_R   0.542809 0.100408 0.677879 0.563132
C66   C     C_R   0.521977 0.480646 0.871337 0.032107
C67   C     C_R   0.984597 0.589287 0.948273 0.008500
C68   C     C_R   0.604875 0.015271 0.551693 0.009481
C69   C     C_R   0.410352 0.395708 0.948192 0.008212
C70   C     C_R   0.984585 0.589279 0.551723 0.008504
C71   C     C_R   0.604875 0.015260 0.948302 0.009474
C72   C     C_R   0.410343 0.395723 0.551808 0.008221
C73   C     C_R   0.589785 0.984376 0.448084 0.007614
C74   C     C_R   0.015462 0.604954 0.051843 0.008564
C75   C     C_R   0.394711 0.410946 0.448240 0.012264
C76   C     C_R   0.457226 0.557426 0.322035 0.562075
C77   C     C_R   0.589772 0.984370 0.051911 0.007623
C78   C     C_R   0.015453 0.604950 0.448154 0.008555
C79   C     C_R   0.394721 0.410940 0.051760 0.012257
C80   C     C_R   0.988776 0.397845 0.896444 0.097274
C81   C     C_R   0.409753 0.012957 0.603260 0.099329
C82   C     C_R   0.601984 0.591078 0.896363 0.097262
C83   C     C_R   0.988738 0.397819 0.603551 0.097280
C84   C     C_R   0.409713 0.012834 0.896719 0.099321
C85   C     C_R   0.602008 0.591072 0.603632 0.097267
C86   C     C_R   0.402455 0.995764 0.395943 0.095925
C87   C     C_R   0.442537 0.899929 0.177987 0.542950
C88   C     C_R   0.007895 0.408204 0.104112 0.096246
C89   C     C_R   0.591690 0.599843 0.395961 0.096843
C90   C     C_R   0.402359 0.995643 0.104035 0.095933
C91   C     C_R   0.007865 0.408194 0.395883 0.096241
C92   C     C_R   0.591681 0.599872 0.104034 0.096852
C93   C     C_R   0.995052 0.400606 0.948282 0.022713
C94   C     C_R   0.406772 0.007253 0.551421 0.021867
C95   C     C_R   0.599174 0.594673 0.948198 0.022879
C96   C     C_R   0.995005 0.400579 0.551712 0.022712
C97   C     C_R   0.406704 0.007103 0.948557 0.021871
C98   C     C_R   0.100143 0.542767 0.322019 0.565969
C99   C     C_R   0.599199 0.594658 0.551798 0.022879
C100  C     C_R   0.405721 0.002730 0.447536 0.060838
C101  C     C_R   0.000766 0.403898 0.052286 0.022728
C102  C     C_R   0.595930 0.597080 0.447793 0.022851
C103  C     C_R   0.405624 0.002582 0.052442 0.060842
C104  C     C_R   0.000723 0.403879 0.447709 0.022729
C105  C     C_R   0.595913 0.597107 0.052202 0.022850
C106  C     C_R   0.995683 0.305481 0.025980 -0.131385
C107  C     C_R   0.312384 0.008270 0.473565 -0.111036
C108  C     C_R   0.694351 0.690387 0.025891 -0.130671
Cr1   Cr    Cr6+3 0.487630 0.241180 0.750000 1.038416
Cr2   Cr    Cr6+3 0.753550 0.512370 0.750000 1.038240
Cr3   Cr    Cr6+3 0.758820 0.246450 0.750000 1.038309
Cr4   Cr    Cr6+3 0.241180 0.487630 0.250000 1.036301
Cr5   Cr    Cr6+3 0.512370 0.753550 0.250000 1.039290
Cr6   Cr    Cr6+3 0.246450 0.758820 0.250000 1.000623
H1    H     H_    0.059438 0.698994 0.121870 0.119856
H2    H     H_    0.697132 0.055764 0.877881 0.121321
H3    H     H_    0.942893 0.640519 0.622000 0.121831
H4    H     H_    0.359145 0.302696 0.877935 0.121558
H5    H     H_    0.018935 0.777733 0.044734 0.094114
H6    H     H_    0.757744 0.978301 0.455339 0.090804
H7    H     H_    0.221747 0.241879 0.044646 0.097979
H8    H     H_    0.018958 0.777745 0.455265 0.094124
H9    H     H_    0.757800 0.978422 0.044671 0.090795
H10   H     H_    0.221708 0.241919 0.455358 0.097957
H11   H     H_    0.774583 0.012291 0.545113 0.090154
H12   H     H_    0.638145 0.938223 0.378158 0.124247
H13   H     H_    0.985191 0.760711 0.954993 0.090476
H14   H     H_    0.238663 0.225193 0.545101 0.089657
H15   H     H_    0.774647 0.012408 0.954896 0.090159
H16   H     H_    0.985212 0.760719 0.545005 0.090478
H17   H     H_    0.238705 0.225145 0.954904 0.089680
H18   H     H_    0.994347 0.228736 0.044407 0.096180
H19   H     H_    0.237317 0.009468 0.454615 0.134076
H20   H     H_    0.771149 0.765733 0.044315 0.095839
H21   H     H_    0.994267 0.228699 0.455586 0.096184
H22   H     H_    0.237149 0.009185 0.045348 0.134066
H23   H     H_    0.300772 0.360846 0.121807 0.125860
H24   H     H_    0.771192 0.765678 0.455676 0.095836
H25   H     H_    0.234300 0.006385 0.542882 0.094907
H26   H     H_    0.997352 0.229792 0.956536 0.095558
H27   H     H_    0.770089 0.767663 0.543548 0.095299
H28   H     H_    0.234164 0.006105 0.957082 0.094905
H29   H     H_    0.997268 0.229746 0.543457 0.095561
H30   H     H_    0.770038 0.767705 0.956443 0.095306
H31   H     H_    0.053523 0.279788 0.123275 0.222618
H32   H     H_    0.899926 0.228537 0.122170 0.223314
H33   H     H_    0.239140 0.942398 0.361305 0.249426
H34   H     H_    0.059451 0.699001 0.378129 0.119877
H35   H     H_    0.361696 0.074477 0.338233 0.250556
H36   H     H_    0.771406 0.671451 0.122049 0.223373
H37   H     H_    0.720190 0.773815 0.123209 0.221712
H38   H     H_    0.053478 0.279767 0.376721 0.222614
H39   H     H_    0.899884 0.228533 0.377817 0.223325
H40   H     H_    0.239031 0.942206 0.138675 0.249443
H41   H     H_    0.361541 0.074372 0.161721 0.250564
H42   H     H_    0.771406 0.671386 0.377941 0.223381
H43   H     H_    0.720222 0.773775 0.376784 0.221706
H44   H     H_    0.283780 0.062209 0.622105 0.222167
H45   H     H_    0.638177 0.938301 0.121847 0.124227
H46   H     H_    0.228999 0.908022 0.620318 0.222886
H47   H     H_    0.094749 0.323371 0.879035 0.222843
H48   H     H_    0.940708 0.223073 0.877437 0.222048
H49   H     H_    0.776847 0.717679 0.622627 0.221920
H50   H     H_    0.676538 0.771442 0.621082 0.222792
H51   H     H_    0.283681 0.062000 0.877864 0.222177
H52   H     H_    0.228979 0.907825 0.879638 0.222901
H53   H     H_    0.094695 0.323323 0.620954 0.222835
H54   H     H_    0.940650 0.223042 0.622557 0.222053
H55   H     H_    0.776812 0.717707 0.877367 0.221920
H56   H     H_    0.300752 0.360864 0.378195 0.125875
H57   H     H_    0.676478 0.771440 0.878905 0.222803
H58   H     H_    0.697090 0.055697 0.622123 0.121305
H59   H     H_    0.942882 0.640516 0.877999 0.121837
H60   H     H_    0.359120 0.302725 0.622069 0.121533
N1    N     N_3   0.985857 0.301688 0.131812 -0.599204
N2    N     N_3   0.303166 0.992596 0.869474 -0.597236
N3    N     N_3   0.009560 0.312124 0.630960 -0.597599
N4    N     N_3   0.687711 0.697517 0.868938 -0.597611
N5    N     N_3   0.319537 0.023429 0.370011 -0.651027
N6    N     N_3   0.698267 0.684259 0.131723 -0.599179
N7    N     N_3   0.985822 0.301679 0.368181 -0.599207
N8    N     N_3   0.319392 0.023258 0.129954 -0.651050
N9    N     N_3   0.698277 0.684213 0.368269 -0.599188
N10   N     N_3   0.303209 0.992765 0.630493 -0.597216
N11   N     N_3   0.009607 0.312158 0.869033 -0.597607
N12   N     N_3   0.687751 0.697510 0.631054 -0.597604
O1    O     O_R   0.460870 0.120930 0.805240 -0.470056
O2    O     O_R   0.120930 0.460870 0.194760 -0.470313
O3    O     O_R   0.539130 0.660060 0.305240 -0.470890
O4    O     O_R   0.339940 0.879070 0.194760 -0.523275
O5    O     O_R   0.498910 0.350470 0.801870 -0.512618
O6    O     O_R   0.851560 0.501090 0.698130 -0.512683
O7    O     O_R   0.649530 0.148440 0.801870 -0.512594
O8    O     O_R   0.498910 0.350470 0.698130 -0.512610
O9    O     O_R   0.851560 0.501090 0.801870 -0.512685
O10   O     O_R   0.649530 0.148440 0.698130 -0.512589
O11   O     O_R   0.350470 0.498910 0.301870 -0.514301
O12   O     O_R   0.660060 0.539130 0.694760 -0.470185
O13   O     O_R   0.501090 0.851560 0.198130 -0.500227
O14   O     O_R   0.148440 0.649530 0.301870 -0.512011
O15   O     O_R   0.350470 0.498910 0.198130 -0.514299
O16   O     O_R   0.501090 0.851560 0.301870 -0.500233
O17   O     O_R   0.148440 0.649530 0.198130 -0.512018
O18   O     O_3   0.666667 0.333333 0.750000 -0.252538
O19   O     O_3   0.333333 0.666667 0.250000 -0.241620
O20   O     O_R   0.879070 0.339940 0.805240 -0.470154
O21   O     O_R   0.460870 0.120930 0.694760 -0.470037
O22   O     O_R   0.660060 0.539130 0.805240 -0.470189
O23   O     O_R   0.879070 0.339940 0.694760 -0.470148
O24   O     O_R   0.120930 0.460870 0.305240 -0.470318
O25   O     O_R   0.539130 0.660060 0.194760 -0.470881
O26   O     O_R   0.339940 0.879070 0.305240 -0.523272

loop_
_geom_bond_atom_site_label_1
_geom_bond_atom_site_label_2
_ccdc_geom_bond_type
C3    C104  A    
C35   C74   A    
Cr6   O4    S    
C89   C102  A    
Cr2   O12   S    
H55   N4    S    
C35   H5    S    
C87   O13   A    
C91   C104  A    
C58   C87   S    
C15   C94   A    
C88   C101  A    
H41   N8    S    
C5    H24   S    
C64   C83   A    
C90   N8    S    
C44   C64   A    
H51   N2    S    
C106  H18   S    
C98   O24   A    
C39   C79   A    
C2    O25   A    
C22   C101  A    
C46   C62   A    
C43   O8    A    
C18   C24   A    
C84   C97   A    
C89   N9    S    
C47   C55   A    
C28   C68   A    
C8    C99   A    
Cr4   O19   S    
H50   N12   S    
C76   O11   A    
C7    H26   S    
C23   C102  A    
C45   C71   A    
C83   C96   A    
C61   C80   A    
H54   N3    S    
C4    C103  A    
H35   N5    S    
C33   C36   A    
C30   C38   A    
Cr2   O18   S    
C59   C89   A    
C12   O26   A    
Cr6   O26   S    
C6    H25   S    
Cr1   O21   S    
C1    O22   A    
C40   H59   S    
C21   C64   S    
H47   N11   S    
C76   O3    A    
C92   N6    S    
C33   C72   A    
C37   H9    S    
C27   H13   S    
H31   N1    S    
C6    C94   A    
C40   C67   A    
C14   C67   A    
C46   H60   S    
H57   N4    S    
C44   C70   A    
C8    H27   S    
C51   C57   A    
C18   C97   A    
C12   O16   A    
C53   C88   A    
C52   C79   A    
C86   C100  A    
C11   H30   S    
C14   C93   A    
C46   C72   A    
Cr3   O10   S    
C4    H22   S    
C65   O10   A    
C11   C108  A    
C31   C71   A    
C6    C107  A    
C28   C34   A    
C17   C70   A    
C13   O2    A    
Cr6   O14   S    
C34   H6    S    
C29   C39   A    
C19   C72   A    
C15   C20   A    
C2    O15   A    
Cr4   O15   S    
C26   C105  A    
C30   C70   A    
H42   N9    S    
C1    C66   S    
C41   C68   A    
C29   C69   A    
C16   C26   A    
C48   C53   A    
C7    C93   A    
C62   C85   A    
C83   N3    S    
C25   C78   A    
C50   C58   A    
C48   C74   A    
C18   C71   A    
C47   C73   A    
Cr5   O16   S    
C19   C99   A    
C42   H4    S    
C21   O6    A    
C38   C78   A    
C27   C35   A    
C30   H16   S    
C37   C77   A    
C45   C63   A    
C33   H14   S    
Cr1   O1    S    
C40   C61   A    
C13   O17   A    
Cr5   O19   S    
C19   C23   A    
Cr3   O23   S    
C13   C53   S    
C108  H20   S    
C85   C99   A    
C36   C75   A    
H33   N5    S    
C66   C82   A    
C60   C81   A    
C24   C77   A    
C20   C100  A    
C10   C96   A    
C80   N11   S    
H32   N1    S    
C82   N4    S    
C49   C75   A    
C52   H23   S    
Cr5   O13   S    
C7    C106  A    
Cr1   O8    S    
C54   O20   A    
C17   C96   A    
C105  C108  A    
C58   C90   A    
Cr3   O20   S    
Cr5   O25   S    
C38   H8    S    
Cr3   O7    S    
C87   O4    A    
C1    O5    A    
H53   N3    S    
H39   N7    S    
C60   C65   S    
H49   N12   S    
C49   H56   S    
C50   H45   S    
C5    C8    A    
C22   C74   A    
C48   H1    S    
C50   C77   A    
Cr4   O11   S    
C101  C106  A    
C28   H11   S    
C47   H12   S    
H36   N6    S    
C11   C95   A    
C85   N12   S    
C5    C102  A    
C100  C107  A    
C9    C97   A    
C54   O9    A    
C57   C91   A    
C32   O1    A    
C36   H10   S    
H38   N7    S    
Cr1   O18   S    
C16   C69   A    
C41   C60   A    
C23   C75   A    
C32   O7    A    
C39   H7    S    
Cr3   O18   S    
Cr4   O2    S    
H48   N11   S    
C9    H28   S    
C25   C104  A    
C65   O21   A    
C54   C61   S    
C82   C95   A    
C32   C63   S    
Cr5   O3    S    
H52   N2    S    
C26   C79   A    
C49   C59   A    
Cr6   O19   S    
C98   O14   A    
C63   C84   A    
C24   C103  A    
C17   C25   A    
C14   C22   A    
C55   C86   A    
C91   N7    S    
C80   C93   A    
C51   C78   A    
C107  H19   S    
C3    C10   A    
C2    C56   S    
C41   H58   S    
C81   C94   A    
C16   C95   A    
C45   H2    S    
H37   N6    S    
C29   H17   S    
C51   H34   S    
Cr1   O5    S    
C15   C68   A    
H40   N8    S    
Cr2   O6    S    
C86   N5    S    
C21   O23   A    
C20   C73   A    
C43   O12   A    
C3    H21   S    
C10   H29   S    
C42   C69   A    
C57   C98   S    
C90   C103  A    
C12   C55   S    
C27   C67   A    
C34   C73   A    
C88   N1    S    
C31   C37   A    
C92   C105  A    
C56   C92   A    
C44   H3    S    
C31   H15   S    
Cr2   O9    S    
C42   C66   A    
Cr6   O17   S    
Cr2   O22   S    
H43   N9    S    
C81   N10   S    
C4    C9    A    
C84   N2    S    
H44   N10   S    
C59   C76   S    
H46   N10   S    
C52   C56   A    
C43   C62   S    
Cr4   O24   S    
