data_mof_unit_7178.cif
_audit_creation_date              2012-12-10T18:43:33-0500
_audit_creation_method            fapswitch 2.2
_symmetry_space_group_name_H-M    P1
_symmetry_Int_Tables_number       1
_space_group_crystal_system       triclinic
_cell_length_a                    19.428457
_cell_length_b                    18.200105
_cell_length_c                    10.90043
_cell_angle_alpha                 90.008214
_cell_angle_beta                  90.734092
_cell_angle_gamma                 89.953869
_cell_volume                      3854.07394453

loop_
_atom_site_label
_atom_site_type_symbol
_atom_type_description
_atom_site_fract_x
_atom_site_fract_y
_atom_site_fract_z
_atom_type_partial_charge
C1    C     C_R   0.367542 0.500049 0.499750 0.814934
C2    C     C_R   0.632451 0.499979 0.499875 0.815369
C3    C     C_R   0.708031 0.499760 0.498400 -0.063508
C4    C     C_R   0.291932 0.500126 0.498194 -0.063506
C5    C     C_R   0.962675 0.498081 0.373441 -0.020947
C6    C     C_R   0.035407 0.499419 0.373330 -0.020453
C7    C     C_R   0.071763 0.501115 0.486433 0.046408
C8    C     C_R   0.928024 0.498060 0.486665 0.045869
C9    C     C_R   0.036399 0.501192 0.597247 -0.165063
C10   C     C_R   0.965059 0.499523 0.597365 -0.163135
C11   C     C_R   0.467390 0.720809 0.407887 0.029365
C12   C     C_R   0.532560 0.720783 0.592153 0.029517
C13   C     C_R   0.466390 0.798225 0.405231 -0.095159
C14   C     C_R   0.533487 0.798197 0.594852 -0.095149
C15   C     C_R   0.499934 0.838499 0.500040 -0.003425
C16   C     C_R   0.471423 0.960952 0.597889 -0.164257
C17   C     C_R   0.528471 0.960862 0.402155 -0.163909
C18   C     C_R   0.471357 0.038194 0.597779 -0.161050
C19   C     C_R   0.528577 0.038104 0.402254 -0.161350
C20   C     C_R   0.499977 0.077729 0.500013 0.140253
C21   C     C_R   0.498954 0.499995 0.265134 0.865329
C22   C     C_R   0.501058 0.500001 0.734868 0.863364
C23   C     C_R   0.499938 0.921251 0.500027 0.113536
C24   C     C_R   0.460290 0.200389 0.413612 -0.136729
C25   C     C_R   0.539703 0.200334 0.586382 -0.136978
C26   C     C_R   0.459587 0.278351 0.417471 0.097343
C27   C     C_R   0.540419 0.278294 0.582511 0.098384
C28   C     C_R   0.499992 0.160461 0.500001 -0.014196
C29   C     C_2   0.498416 0.439371 0.932927 -0.137358
C30   C     C_2   0.501741 0.439368 0.067055 -0.136901
C31   C     C_2   0.505109 0.500979 0.866979 -0.314726
C32   C     C_2   0.494925 0.500970 0.133027 -0.312069
C33   C     C_R   0.744424 0.434064 0.517494 -0.211859
C34   C     C_R   0.255671 0.565951 0.515139 -0.232028
C35   C     C_R   0.816172 0.433297 0.515353 -0.014304
C36   C     C_R   0.183876 0.566524 0.512747 -0.009203
C37   C     C_R   0.852336 0.498773 0.491770 0.008131
C38   C     C_R   0.147528 0.500674 0.491388 0.007679
C39   C     C_R   0.815932 0.564957 0.473281 0.010142
C40   C     C_R   0.183821 0.434369 0.475189 0.005048
C41   C     C_R   0.744187 0.565095 0.477047 -0.230846
C42   C     C_R   0.255599 0.434452 0.479098 -0.209691
Cu1   Cu    Cu3+1 0.500000 0.573360 0.500000 0.935819
Cu2   Cu    Cu3+1 0.500000 0.426640 0.500000 0.956004
H1    H     H_    0.491330 0.386617 0.887845 0.167706
H2    H     H_    0.508918 0.386616 0.112116 0.167126
H3    H     H_    0.448709 0.932030 0.674144 0.132872
H4    H     H_    0.551169 0.931869 0.325905 0.132989
H5    H     H_    0.448564 0.067243 0.673861 0.126793
H6    H     H_    0.551387 0.067081 0.326168 0.126598
H7    H     H_    0.515284 0.553933 0.908515 0.140367
H8    H     H_    0.484669 0.553923 0.091513 0.139776
H9    H     H_    0.717054 0.383260 0.534401 0.165851
H10   H     H_    0.283209 0.616980 0.530675 0.159983
H11   H     H_    0.716586 0.616202 0.462232 0.159291
H12   H     H_    0.283040 0.383182 0.466443 0.164295
H13   H     H_    0.064354 0.502149 0.683908 0.140999
H14   H     H_    0.938411 0.499821 0.684100 0.142573
H15   H     H_    0.440902 0.690084 0.336602 0.133841
H16   H     H_    0.559044 0.690039 0.663457 0.133985
N1    N     N_R   0.500000 0.683620 0.500000 -0.184616
N2    N     N_R   0.500000 0.316380 0.500000 -0.224462
O1    O     O_R   0.400190 0.561980 0.499980 -0.586879
O2    O     O_R   0.599810 0.561980 0.500020 -0.586542
O3    O     O_R   0.400190 0.438070 0.500040 -0.585161
O4    O     O_R   0.599810 0.438070 0.499960 -0.584842
O5    O     O_R   0.500000 0.561940 0.321950 -0.596235
O6    O     O_R   0.500000 0.561940 0.678050 -0.596724
O7    O     O_R   0.500010 0.438030 0.322010 -0.578878
O8    O     O_R   0.499990 0.438030 0.677990 -0.578506
C43   C     C_R   0.427769 0.834839 0.304768 0.102597
C44   C     C_R   0.447217 0.824227 0.182369 -0.179697
C45   C     C_R   0.409565 0.857153 0.087011 -0.132520
C46   C     C_R   0.351712 0.899744 0.113110 -0.102778
C47   C     C_R   0.331632 0.909778 0.234640 -0.116877
C48   C     C_R   0.369746 0.877954 0.330390 -0.110838
H17   H     H_    0.491534 0.790651 0.161058 0.117246
H18   H     H_    0.424871 0.849214 0.992851 0.123259
H19   H     H_    0.322227 0.924612 0.039132 0.114219
H20   H     H_    0.286234 0.941809 0.254634 0.121864
H21   H     H_    0.353451 0.885846 0.424133 0.124020
C49   C     C_R   0.572003 0.834782 0.695414 0.102536
C50   C     C_R   0.552380 0.824311 0.817740 -0.179567
C51   C     C_R   0.589912 0.857235 0.913203 -0.131415
C52   C     C_R   0.647821 0.899677 0.887284 -0.101704
C53   C     C_R   0.668075 0.909567 0.765827 -0.116165
C54   C     C_R   0.630075 0.877754 0.669968 -0.110467
H22   H     H_    0.508017 0.790851 0.838910 0.116811
H23   H     H_    0.574471 0.849410 0.007305 0.123521
H24   H     H_    0.677214 0.924542 0.961345 0.114278
H25   H     H_    0.713517 0.941475 0.745977 0.121970
H26   H     H_    0.646494 0.885543 0.576283 0.124164
C55   C     C_R   0.418056 0.161198 0.320459 0.116823
C56   C     C_R   0.353666 0.132437 0.351572 -0.119531
C57   C     C_R   0.312282 0.099109 0.261756 -0.130851
C58   C     C_R   0.335344 0.093549 0.141092 -0.096589
C59   C     C_R   0.399838 0.121395 0.109976 -0.120177
C60   C     C_R   0.440999 0.155602 0.199205 -0.155121
H27   H     H_    0.335257 0.136845 0.444656 0.121757
H28   H     H_    0.262253 0.077730 0.285632 0.123281
H29   H     H_    0.303228 0.067658 0.071749 0.113562
H30   H     H_    0.417690 0.117003 0.016589 0.117173
H31   H     H_    0.490513 0.177922 0.174001 0.111315
C61   C     C_R   0.581929 0.161086 0.679544 0.117065
C62   C     C_R   0.646276 0.132114 0.648398 -0.119846
C63   C     C_R   0.687665 0.098748 0.738224 -0.131246
C64   C     C_R   0.664649 0.093356 0.858930 -0.097784
C65   C     C_R   0.600193 0.121406 0.890077 -0.121171
C66   C     C_R   0.559028 0.155652 0.800838 -0.154979
H32   H     H_    0.664651 0.136392 0.555281 0.121415
H33   H     H_    0.737663 0.077209 0.714321 0.123391
H34   H     H_    0.696769 0.067436 0.928280 0.113451
H35   H     H_    0.582376 0.117142 0.983498 0.117045
H36   H     H_    0.509546 0.178133 0.826067 0.111631
C67   C     C_1   0.414233 0.317546 0.334308 0.302657
N3    N     N_1   0.377533 0.348118 0.267121 -0.304962
C68   C     C_1   0.585793 0.317428 0.665628 0.303067
N4    N     N_1   0.622506 0.347953 0.732785 -0.312645
C69   C     C_1   0.851745 0.364583 0.536104 0.212417
N5    N     N_1   0.880301 0.309581 0.552666 -0.277749
C70   C     C_1   0.148407 0.635399 0.530917 0.207464
N6    N     N_1   0.119916 0.690523 0.545391 -0.278624
C71   C     C_1   0.851317 0.633367 0.451040 0.226824
N7    N     N_1   0.879739 0.688108 0.433176 -0.285465
C72   C     C_1   0.148319 0.365592 0.455230 0.231300
N8    N     N_1   0.119821 0.310548 0.439176 -0.284857
C73   C     C_R   0.923079 0.498355 0.256075 0.097631
C74   C     C_R   0.924302 0.560360 0.179466 -0.114842
C75   C     C_R   0.887672 0.560353 0.068227 -0.133864
C76   C     C_R   0.849651 0.498551 0.032830 -0.108619
C77   C     C_R   0.848273 0.436630 0.108601 -0.124110
C78   C     C_R   0.884946 0.436378 0.219805 -0.148165
H37   H     H_    0.953548 0.608564 0.206061 0.139437
H38   H     H_    0.888779 0.608243 0.009441 0.134026
H39   H     H_    0.821371 0.498596 0.946621 0.132116
H40   H     H_    0.818995 0.388715 0.080934 0.136731
H41   H     H_    0.884182 0.387769 0.276952 0.136648
C79   C     C_R   0.073243 0.497469 0.255930 0.096560
C80   C     C_R   0.070891 0.434391 0.181780 -0.113524
C81   C     C_R   0.105912 0.432791 0.070563 -0.124915
C82   C     C_R   0.143433 0.494048 0.032729 -0.106996
C83   C     C_R   0.145930 0.557028 0.106048 -0.125692
C84   C     C_R   0.110871 0.558886 0.217224 -0.144578
H42   H     H_    0.042026 0.386593 0.210279 0.139391
H43   H     H_    0.103945 0.384076 0.013677 0.134365
H44   H     H_    0.170458 0.492759 0.946530 0.127339
H45   H     H_    0.174826 0.604515 0.076507 0.132584
H46   H     H_    0.112494 0.608288 0.272464 0.137080

loop_
_geom_bond_atom_site_label_1
_geom_bond_atom_site_label_2
_ccdc_geom_bond_type
C38   C40   A    
C62   H32   S    
C55   C56   A    
C64   H34   S    
C35   C69   S    
C57   C58   A    
C17   H4    S    
Cu1   Cu2   S    
C74   C75   A    
C59   C60   A    
Cu1   O1    S    
C71   N7    T    
C39   C41   A    
C52   C53   A    
C25   C28   A    
C17   C23   A    
C5    C6    A    
C10   H14   S    
C24   C26   A    
C53   H25   S    
C61   C66   A    
C63   C64   A    
C3    C33   A    
C60   H31   S    
C39   C71   S    
C65   C66   A    
C45   C46   A    
C26   C67   S    
C41   H11   S    
C44   H17   S    
C42   H12   S    
C73   C78   A    
Cu2   O4    S    
C32   H8    S    
C76   H39   S    
Cu1   O6    S    
C1    O3    A    
C64   C65   A    
Cu2   O8    S    
C47   H20   S    
C18   C20   A    
C59   H30   S    
C40   C42   A    
C50   H22   S    
C36   C70   S    
C58   H29   S    
C21   O5    A    
C29   C31   D    
Cu2   O3    S    
C82   C83   A    
C74   H37   S    
C11   H15   S    
C1    O1    A    
C16   H3    S    
C61   C62   A    
C2    O2    A    
Cu1   O2    S    
C63   H33   S    
C27   C68   S    
C33   H9    S    
C84   H46   S    
C21   C32   S    
C4    C34   A    
C22   C31   S    
C81   C82   A    
C77   H40   S    
C46   C47   A    
C53   C54   A    
C17   C19   A    
C13   C43   S    
Cu2   N2    S    
C78   H41   S    
C21   O7    A    
C65   H35   S    
C6    C79   S    
C47   C48   A    
C29   C30   S    
C27   N2    A    
C80   H42   S    
C50   C51   A    
C14   C15   A    
C45   H18   S    
C58   C59   A    
C5    C73   S    
C49   C54   A    
Cu2   O7    S    
C51   C52   A    
C69   N5    T    
C22   O6    A    
C70   N6    T    
C82   H44   S    
C66   H36   S    
C16   C18   A    
C12   C14   A    
C34   H10   S    
C16   C23   A    
C46   H19   S    
C13   C15   A    
C72   N8    T    
C52   H24   S    
C8    C37   S    
C14   C49   S    
C73   C74   A    
Cu1   N1    S    
C75   C76   A    
C9    C10   A    
C7    C9    A    
C3    C41   A    
C35   C37   A    
C57   H28   S    
C83   H45   S    
C30   H2    S    
C8    C10   A    
C24   C28   A    
C31   H7    S    
C44   C45   A    
C11   N1    A    
C77   C78   A    
C48   H21   S    
C5    C8    A    
C80   C81   A    
C25   C61   S    
C2    O4    A    
C6    C7    A    
C25   C27   A    
C20   C28   S    
C62   C63   A    
C81   H43   S    
C68   N4    T    
C79   C84   A    
C1    C4    S    
C19   C20   A    
C36   C38   A    
C2    C3    S    
C26   N2    A    
C43   C44   A    
C37   C39   A    
C24   C55   S    
C30   C32   D    
C12   N1    A    
C11   C13   A    
C19   H6    S    
C43   C48   A    
C4    C42   A    
C56   H27   S    
C40   C72   S    
C15   C23   S    
C33   C35   A    
C7    C38   S    
C76   C77   A    
C9    H13   S    
C56   C57   A    
C79   C80   A    
C75   H38   S    
C12   H16   S    
C34   C36   A    
Cu1   O5    S    
C49   C50   A    
C51   H23   S    
C29   H1    S    
C83   C84   A    
C54   H26   S    
C55   C60   A    
C22   O8    A    
C67   N3    T    
C18   H5    S    
