data_mof_unit_36651.cif
_audit_creation_date              2012-10-26T20:21:31-0400
_audit_creation_method            fapswitch 2.2
_symmetry_space_group_name_H-M    P1
_symmetry_Int_Tables_number       1
_space_group_crystal_system       triclinic
_cell_length_a                    10.787748
_cell_length_b                    9.533139
_cell_length_c                    11.710067
_cell_angle_alpha                 89.960234
_cell_angle_beta                  90.086866
_cell_angle_gamma                 90.234919
_cell_volume                      1204.2643938

loop_
_atom_site_label
_atom_site_type_symbol
_atom_type_description
_atom_site_fract_x
_atom_site_fract_y
_atom_site_fract_z
_atom_type_partial_charge
C1    C     C_R   0.262646 0.499635 0.499525 0.502760
C2    C     C_R   0.935362 0.542747 0.599649 -0.000532
C3    C     C_R   0.934244 0.456200 0.401014 0.001404
C4    C     C_R   0.065756 0.543800 0.598986 0.001404
C5    C     C_R   0.871439 0.501799 0.499787 -0.070337
C6    C     C_R   0.128561 0.498201 0.500213 -0.070337
C7    C     C_R   0.420958 0.074070 0.430987 0.034512
C8    C     C_R   0.579042 0.925930 0.569013 0.034512
C9    C     C_R   0.579034 0.074654 0.569017 0.036837
C10   C     C_R   0.420966 0.925346 0.430983 0.036837
C11   C     C_2   0.135791 0.426042 0.294178 0.290439
C12   C     C_R   0.737354 0.500365 0.500475 0.502760
C13   C     C_2   0.864208 0.573958 0.705822 0.290439
C14   C     C_2   0.861609 0.404595 0.300880 0.324445
C15   C     C_2   0.138390 0.595405 0.699120 0.324445
C16   C     C_R   0.499673 0.500035 0.283942 0.533787
C17   C     C_R   0.500327 0.499965 0.716058 0.533788
C18   C     C_1   0.499723 0.500072 0.162302 0.006600
C19   C     C_1   0.500276 0.499928 0.837697 0.006600
C20   C     C_1   0.499881 0.500032 0.059871 0.010151
C21   C     C_1   0.500119 0.499968 0.940129 0.010151
C22   C     C_R   0.064637 0.457253 0.400350 -0.000532
Cu1   Cu    Cu3+1 0.500000 0.640660 0.500000 0.967526
Cu2   Cu    Cu3+1 0.500000 0.359340 0.500000 0.967526
H1    H     H_    0.357607 0.129780 0.375645 0.117275
H2    H     H_    0.642393 0.870219 0.624355 0.117275
H3    H     H_    0.642369 0.130830 0.624382 0.130631
H4    H     H_    0.357630 0.869170 0.375618 0.130631
H5    H     H_    0.223354 0.370903 0.298648 0.109709
H6    H     H_    0.776645 0.629097 0.701352 0.109709
H7    H     H_    0.774044 0.453184 0.278779 0.105038
H8    H     H_    0.225956 0.546815 0.721221 0.105037
N1    N     N_R   0.500000 0.852070 0.500000 -0.226794
N2    N     N_R   0.500000 0.147930 0.500000 -0.226794
O1    O     O_R   0.319640 0.618740 0.499990 -0.492916
O2    O     O_2   0.900068 0.532739 0.798884 -0.435781
O3    O     O_2   0.896114 0.303650 0.245419 -0.440053
O4    O     O_2   0.103886 0.696350 0.754581 -0.440054
O5    O     O_R   0.680360 0.381260 0.500010 -0.492916
O6    O     O_R   0.680360 0.618740 0.500010 -0.512759
O7    O     O_R   0.319640 0.381260 0.499990 -0.512759
O8    O     O_R   0.500010 0.618790 0.337200 -0.489956
O9    O     O_R   0.499990 0.381210 0.662800 -0.489956
O10   O     O_R   0.499990 0.618790 0.662800 -0.501985
O11   O     O_R   0.500010 0.381210 0.337200 -0.501985
O12   O     O_2   0.099932 0.467262 0.201116 -0.435781

loop_
_geom_bond_atom_site_label_1
_geom_bond_atom_site_label_2
_ccdc_geom_bond_type
C16   O11   A    
C12   O6    A    
C7    C10   A    
C2    C4    A    
Cu1   Cu2   S    
C17   O9    A    
C15   O4    D    
C8    H2    S    
C11   C22   S    
Cu1   O1    S    
C7    H1    S    
C14   H7    S    
C3    C5    A    
C12   O5    A    
C17   O10   A    
C15   H8    S    
C14   O3    D    
Cu2   O7    S    
Cu1   O8    S    
C11   H5    S    
C3    C14   S    
C4    C15   S    
Cu2   O11   S    
C1    O7    A    
C19   C21   T    
Cu1   N1    S    
C10   N1    A    
C18   C20   T    
C8    N1    A    
C9    N2    A    
Cu2   O9    S    
C7    N2    A    
C2    C5    A    
Cu1   O6    S    
C6    C22   A    
C16   O8    A    
C13   H6    S    
Cu2   O5    S    
C20   C21   S    
C9    H3    S    
C5    C12   S    
C16   C18   S    
C4    C6    A    
C10   H4    S    
C2    C13   S    
C1    O1    A    
C3    C22   A    
C17   C19   S    
Cu2   N2    S    
Cu1   O10   S    
C1    C6    S    
C13   O2    D    
C8    C9    A    
C11   O12   D    
