data_mof_unit_17878.cif
_audit_creation_date              2012-10-26T19:19:36-0400
_audit_creation_method            fapswitch 2.2
_symmetry_space_group_name_H-M    P1
_symmetry_Int_Tables_number       1
_space_group_crystal_system       triclinic
_cell_length_a                    15.849814
_cell_length_b                    10.975149
_cell_length_c                    9.730609
_cell_angle_alpha                 90.724167
_cell_angle_beta                  87.180365
_cell_angle_gamma                 88.942725
_cell_volume                      1690.18641874

loop_
_atom_site_label
_atom_site_type_symbol
_atom_type_description
_atom_site_fract_x
_atom_site_fract_y
_atom_site_fract_z
_atom_type_partial_charge
C1    C     C_R   0.499126 0.265548 0.499550 0.553481
C2    C     C_2   0.504233 0.866463 0.503401 -0.126481
C3    C     C_2   0.503197 0.065502 0.386878 -0.172957
C4    C     C_R   0.340333 0.502610 0.503271 0.550961
C5    C     C_2   0.495188 0.133859 0.501897 -0.119092
C6    C     C_2   0.449386 0.433449 0.924559 0.185154
C7    C     C_2   0.441690 0.450612 0.079297 -0.025634
C8    C     C_R   0.500837 0.734533 0.500614 0.549476
C9    C     C_R   0.659718 0.497134 0.496481 0.545546
C10   C     C_3   0.043421 0.433173 0.600999 -0.242073
C11   C     C_3   0.061988 0.454607 0.339655 0.029642
C12   C     C_3   0.948106 0.420818 0.584347 -0.246004
C13   C     C_3   0.960249 0.469714 0.333047 -0.031269
C14   C     C_1   0.749433 0.496760 0.486980 -0.035835
C15   C     C_3   0.083933 0.513609 0.485912 0.028737
C16   C     C_R   0.895266 0.749083 0.441752 0.060422
C17   C     C_R   0.931454 0.825008 0.338156 -0.122555
C18   C     C_R   0.882509 0.911562 0.271772 -0.123208
C19   C     C_R   0.797341 0.928900 0.309630 -0.109404
C20   C     C_R   0.760888 0.860861 0.415525 -0.122672
C21   C     C_R   0.809146 0.773834 0.481681 -0.077349
C22   C     C_R   0.584185 0.503348 0.098596 0.184168
C23   C     C_3   0.917139 0.513239 0.477359 0.082113
C24   C     C_R   0.626625 0.614494 0.099939 -0.078690
C25   C     C_R   0.711169 0.619860 0.052317 -0.136544
C26   C     C_R   0.754168 0.514102 0.004525 -0.105086
C27   C     C_R   0.713087 0.402487 0.006219 -0.122249
C28   C     C_R   0.628656 0.396607 0.054302 -0.065923
C29   C     C_R   0.106607 0.512454 0.208969 0.040516
C30   C     C_R   0.095347 0.454910 0.080086 -0.066214
C31   C     C_R   0.147987 0.479656 0.964999 -0.140152
C32   C     C_R   0.209773 0.567557 0.972542 -0.125839
C33   C     C_R   0.218646 0.631684 0.095115 -0.128325
C34   C     C_3   0.944017 0.647911 0.521358 0.134444
C35   C     C_R   0.168223 0.604681 0.212207 -0.121727
C36   C     C_R   0.096391 0.318630 0.332259 0.022055
C37   C     C_R   0.184244 0.296406 0.301363 -0.088037
C38   C     C_R   0.217423 0.179471 0.275637 -0.121478
C39   C     C_R   0.164619 0.080180 0.281095 -0.119544
C40   C     C_R   0.079276 0.097472 0.318039 -0.116981
C41   C     C_R   0.045226 0.214240 0.343962 -0.111136
C42   C     C_R   0.091350 0.740194 0.586791 0.028820
C43   C     C_R   0.100872 0.727562 0.729468 -0.087946
C44   C     C_R   0.141942 0.816154 0.804649 -0.116590
C45   C     C_3   0.044261 0.647861 0.498898 -0.069777
C46   C     C_R   0.177532 0.916050 0.738575 -0.108367
C47   C     C_R   0.171951 0.927840 0.597031 -0.102653
C48   C     C_R   0.129235 0.841044 0.521924 -0.099651
C49   C     C_1   0.824999 0.501763 0.479457 -0.055626
C50   C     C_1   0.175367 0.512336 0.504310 -0.071057
C51   C     C_1   0.250724 0.508614 0.509599 -0.043149
C52   C     C_2   0.499917 0.931773 0.388064 -0.170514
Cu1   Cu    Cu3+1 0.500020 0.500020 0.638630 0.968384
Cu2   Cu    Cu3+1 0.499980 0.499980 0.361370 0.928710
H1    H     H_    0.934157 0.326386 0.552232 0.104848
H2    H     H_    0.073600 0.340860 0.600980 0.133397
H3    H     H_    0.932714 0.381366 0.308390 0.144457
H4    H     H_    0.054797 0.679294 0.394581 0.084584
H5    H     H_    0.996484 0.818989 0.302140 0.072764
H6    H     H_    0.911075 0.965931 0.190554 0.104476
H7    H     H_    0.759909 0.996292 0.258213 0.107475
H8    H     H_    0.695130 0.876108 0.447488 0.116264
H9    H     H_    0.778510 0.726703 0.566716 0.143071
H10   H     H_    0.412118 0.260088 0.905086 0.195239
H11   H     H_    0.334915 0.366082 0.889365 0.205054
H12   H     H_    0.053802 0.471937 0.703474 0.105672
H13   H     H_    0.593929 0.696856 0.137014 0.112046
H14   H     H_    0.743414 0.705948 0.052763 0.117388
H15   H     H_    0.819534 0.518459 0.967312 0.129895
H16   H     H_    0.746800 0.320422 0.970869 0.103997
H17   H     H_    0.597776 0.309419 0.056975 0.096228
H18   H     H_    0.049654 0.383347 0.071608 0.128552
H19   H     H_    0.142475 0.427991 0.870820 0.100036
H20   H     H_    0.250625 0.586288 0.883148 0.135905
H21   H     H_    0.266391 0.700627 0.100560 0.110337
H22   H     H_    0.181576 0.654357 0.304219 0.108824
H23   H     H_    0.913213 0.431525 0.685907 0.131349
H24   H     H_    0.227663 0.370441 0.288336 0.129014
H25   H     H_    0.284081 0.166361 0.248532 0.107030
H26   H     H_    0.190199 0.989734 0.258133 0.097725
H27   H     H_    0.038870 0.020000 0.326224 0.111592
H28   H     H_    0.978951 0.217868 0.372205 0.085431
H29   H     H_    0.869384 0.566114 0.228176 0.249561
H30   H     H_    0.966460 0.627247 0.214892 0.244780
H31   H     H_    0.076920 0.650910 0.785167 0.106449
H32   H     H_    0.146439 0.807217 0.914608 0.116060
H33   H     H_    0.209931 0.983846 0.796916 0.105566
H34   H     H_    0.495058 0.886115 0.289140 0.142408
H35   H     H_    0.200784 0.004525 0.545679 0.124761
H36   H     H_    0.126435 0.852081 0.412268 0.076356
H37   H     H_    0.930641 0.761071 0.695570 0.236824
H38   H     H_    0.949418 0.615296 0.735812 0.222971
H39   H     H_    0.512284 0.908126 0.603075 0.098011
H40   H     H_    0.511380 0.108405 0.287212 0.139947
H41   H     H_    0.484221 0.094603 0.602428 0.104735
H42   H     H_    0.522491 0.576258 0.889701 0.196143
H43   H     H_    0.384210 0.419397 0.131542 0.129955
N1    N     N_2   0.499090 0.498660 0.846910 -0.302334
N2    N     N_2   0.499070 0.498630 0.153040 -0.274396
N3    N     N_3   0.398078 0.344457 0.862181 -0.548502
N4    N     N_3   0.934094 0.545966 0.218717 -0.672001
N5    N     N_3   0.918546 0.670790 0.668073 -0.652959
O1    O     O_R   0.500010 0.321960 0.617040 -0.459598
O2    O     O_R   0.499990 0.321920 0.382900 -0.506665
O3    O     O_R   0.379450 0.500030 0.617120 -0.467348
O4    O     O_R   0.379420 0.499980 0.382980 -0.508865
O5    O     O_R   0.500010 0.678080 0.617100 -0.507480
O6    O     O_R   0.499990 0.678040 0.382960 -0.502318
O7    O     O_R   0.620580 0.500020 0.617020 -0.488262
O8    O     O_R   0.620550 0.499970 0.382880 -0.491288

loop_
_geom_bond_atom_site_label_1
_geom_bond_atom_site_label_2
_ccdc_geom_bond_type
C16   C21   A    
C19   C20   A    
C43   C44   A    
Cu1   Cu2   S    
C12   C23   S    
C13   C23   S    
C26   C27   A    
C34   N5    S    
C7    N2    D    
C1    C5    S    
C6    N1    D    
Cu2   O2    S    
C11   C36   S    
C37   C38   A    
C19   H7    S    
C10   C15   S    
C32   H20   S    
C30   C31   A    
C31   H19   S    
C14   C49   T    
C13   H3    S    
C38   H25   S    
C8    O6    A    
Cu2   O8    S    
C18   C19   A    
C15   C50   S    
C24   H13   S    
C16   C34   S    
C11   C15   S    
C33   H21   S    
C47   C48   A    
C16   C17   A    
H42   N1    S    
C10   H2    S    
C1    O1    A    
H38   N5    S    
C22   C28   A    
H30   N4    S    
C47   H35   S    
C36   C41   A    
C25   H14   S    
C44   H32   S    
C10   C12   S    
C5    H41   S    
C44   C46   A    
C50   C51   T    
C10   H12   S    
C9    O7    A    
C45   H4    S    
C35   H22   S    
Cu2   O4    S    
C4    C51   S    
C43   H31   S    
C52   H34   S    
C24   C25   A    
C39   C40   A    
C25   C26   A    
C4    O4    A    
C42   C45   S    
C6    N3    S    
C9    C14   S    
C29   C30   A    
Cu1   O5    S    
C31   C32   A    
C23   C34   S    
C12   H23   S    
C17   C18   A    
C34   C45   S    
C42   C48   A    
C1    O2    A    
C27   H16   S    
C2    C52   D    
C17   H5    S    
C18   H6    S    
C40   C41   A    
C22   C24   A    
Cu2   N2    S    
C28   H17   S    
C42   C43   A    
C15   C45   S    
H37   N5    S    
C13   N4    S    
C8    O5    A    
C46   H33   S    
C4    O3    A    
Cu1   O7    S    
C9    O8    A    
C46   C47   A    
C36   C37   A    
C22   N2    S    
C7    H43   S    
C40   H27   S    
C2    H39   S    
C2    C8    S    
H11   N3    S    
C3    C5    D    
C30   H18   S    
C3    C52   S    
C6    C7    S    
Cu1   N1    S    
C37   H24   S    
C29   C35   A    
Cu2   O6    S    
C32   C33   A    
C39   H26   S    
C11   C13   S    
C38   C39   A    
Cu1   O1    S    
C41   H28   S    
C33   C35   A    
C3    H40   S    
C20   H8    S    
C21   H9    S    
C12   H1    S    
C23   C49   S    
Cu1   O3    S    
H10   N3    S    
C20   C21   A    
C11   C29   S    
C27   C28   A    
C26   H15   S    
H29   N4    S    
C48   H36   S    
