data_mof_unit_11256.cif
_audit_creation_date              2013-03-05T16:44:39-0500
_audit_creation_method            fapswitch 2.2
_symmetry_space_group_name_H-M    P1
_symmetry_Int_Tables_number       1
_space_group_crystal_system       triclinic
_cell_length_a                    27.442648
_cell_length_b                    10.666884
_cell_length_c                    9.846652
_cell_angle_alpha                 89.893399
_cell_angle_beta                  90.240188
_cell_angle_gamma                 90.007233
_cell_volume                      2882.35590972

loop_
_atom_site_label
_atom_site_type_symbol
_atom_site_description
_atom_site_fract_x
_atom_site_fract_y
_atom_site_fract_z
_atom_type_partial_charge
O1    O     O_R   0.500010 0.316790 0.614690 -0.622364
O2    O     O_R   0.500000 0.316760 0.385350 -0.625475
C1    C     C_R   0.501605 0.260003 0.500328 0.896969
O3    O     O_R   0.428760 0.500040 0.614660 -0.636802
O4    O     O_R   0.428750 0.500000 0.385310 -0.571660
C2    C     C_R   0.405811 0.498703 0.499786 0.918066
Zn1   Zn    Zn3+2 0.500000 0.500020 0.653130 0.956568
Zn2   Zn    Zn3+2 0.500000 0.499980 0.346870 0.987422
O5    O     O_R   0.500000 0.683240 0.614650 -0.615404
O6    O     O_R   0.499990 0.683210 0.385310 -0.552403
O7    O     O_R   0.571250 0.500000 0.614690 -0.602934
O8    O     O_R   0.571240 0.499960 0.385340 -0.627843
C3    C     C_R   0.502345 0.740042 0.499815 0.926333
C4    C     C_R   0.594065 0.500105 0.500378 0.893293
C5    C     C_R   0.178102 0.347856 0.426854 0.515011
O9    O     O_2   0.204027 0.288168 0.330391 -0.556784
N1    N     N_R   0.201093 0.425875 0.516471 -0.346933
C6    C     C_R   0.176220 0.487113 0.616317 0.515902
C7    C     C_R   0.272770 0.510977 0.400865 -0.211565
C8    C     C_R   0.323277 0.532090 0.396038 0.414540
C9    C     C_R   0.332120 0.413974 0.606944 -0.314626
C10   C     C_R   0.282317 0.393639 0.610487 -0.094239
C11   C     C_R   0.252579 0.442375 0.508068 0.275615
C12   C     C_R   0.101329 0.390898 0.538100 -0.053547
C13   C     C_R   0.127665 0.329468 0.435383 -0.024185
C14   C     C_R   0.103180 0.251573 0.343808 -0.131498
C15   C     C_R   0.125949 0.470357 0.629477 -0.025233
C16   C     C_R   0.352928 0.483235 0.500705 -0.081218
H1    H     H_    0.354530 0.373484 0.686330 0.171865
H2    H     H_    0.266657 0.340250 0.693177 0.156523
H3    H     H_    0.122771 0.200983 0.265896 0.190362
C17   C     C_R   0.646537 0.481562 0.503125 -0.119715
C18   C     C_R   0.973600 0.308086 0.444104 0.062503
C19   C     C_R   0.973677 0.413563 0.667207 0.003217
C20   C     C_R   0.948164 0.363528 0.554043 0.037540
C21   C     C_R   0.946466 0.262589 0.332197 -0.216459
C22   C     C_R   0.896173 0.275744 0.326391 -0.132817
C23   C     C_R   0.871086 0.332277 0.433091 -0.025954
C24   C     C_R   0.896815 0.372388 0.549158 -0.055043
C25   C     C_R   0.871225 0.424577 0.658825 -0.061814
C26   C     C_R   0.820914 0.442921 0.647095 0.550903
N2    N     N_R   0.797117 0.409308 0.530573 -0.331282
C27   C     C_R   0.820723 0.352079 0.425729 0.575342
C28   C     C_R   0.713738 0.361330 0.593428 -0.194471
C29   C     C_R   0.664312 0.385112 0.586121 -0.261927
C30   C     C_R   0.678868 0.557062 0.427180 0.044186
C31   C     C_R   0.729495 0.532629 0.435479 0.491073
C32   C     C_R   0.746185 0.434208 0.518762 0.241210
O10   O     O_2   0.795517 0.315448 0.314676 -0.545950
C33   C     C_R   0.025202 0.305164 0.446943 0.046552
C34   C     C_R   0.050255 0.375213 0.547605 0.069200
C35   C     C_R   0.024523 0.433297 0.655107 0.037907
C36   C     C_R   0.052802 0.239806 0.348970 -0.229650
H4    H     H_    0.639665 0.327002 0.644627 0.172017
H5    H     H_    0.727059 0.286079 0.657569 0.170823
H6    H     H_    0.877115 0.243142 0.236560 0.188061
H7    H     H_    0.963220 0.221407 0.244283 0.138914
H8    H     H_    0.036498 0.177726 0.275453 0.145482
O11   O     O_2   0.200149 0.564606 0.701950 -0.555360
C37   C     C_R   0.099787 0.534243 0.729033 -0.152213
H9    H     H_    0.249006 0.549059 0.322962 0.144638
H10   H     H_    0.117634 0.599469 0.797237 0.192795
C38   C     C_R   0.946781 0.445102 0.785950 0.187664
C39   C     C_R   0.896118 0.455379 0.778153 -0.199187
O12   O     O_2   0.796009 0.495833 0.750118 -0.549678
C40   C     C_R   0.049880 0.517373 0.740503 -0.180277
H11   H     H_    0.876169 0.485293 0.867152 0.194309
H12   H     H_    0.031462 0.576726 0.812440 0.180702
C41   C     C_R   0.503108 0.063416 0.623108 0.134566
C42   C     C_R   0.509754 0.128929 0.502651 -0.144819
C43   C     C_R   0.526847 0.066985 0.386967 -0.337442
H13   H     H_    0.536616 0.119218 0.296574 0.169145
C44   C     C_R   0.527802 0.936114 0.385258 0.437222
C45   C     C_R   0.510818 0.871576 0.501148 -0.161066
C46   C     C_R   0.503446 0.935881 0.622211 0.045416
C47   C     C_3   0.462571 0.927407 0.721914 -0.436248
C48   C     C_3   0.462344 0.069502 0.723080 -0.470040
H14   H     H_    0.428930 0.886041 0.677281 0.207919
H15   H     H_    0.474343 0.885751 0.820250 0.204624
H16   H     H_    0.428549 0.111067 0.679423 0.197483
H17   H     H_    0.474251 0.109799 0.821841 0.203258
C49   C     C_R   0.475216 0.409706 0.071182 0.189375
N3    N     N_R   0.499670 0.499140 0.142800 -0.116755
C50   C     C_R   0.528250 0.581344 0.072718 -0.164800
H18   H     H_    0.550171 0.648302 0.128244 0.188835
C51   C     C_R   0.528851 0.580757 0.928188 0.228863
N4    N     N_R   0.499670 0.499180 0.857150 -0.119132
C52   C     C_R   0.475073 0.409999 0.928569 0.162525
C53   C     C_3   0.421590 0.386282 0.922756 -0.513205
C54   C     C_3   0.421813 0.385168 0.076853 -0.455341
H19   H     H_    0.400965 0.466654 0.879218 0.228820
H20   H     H_    0.412864 0.293478 0.877736 0.196924
H21   H     H_    0.401090 0.464329 0.121577 0.259116
H22   H     H_    0.413524 0.291558 0.120836 0.203122
N5    N     N_2   0.969496 0.457774 0.915753 -0.320072
H23   H     H_    0.949806 0.509010 0.985370 0.233680
C55   C     C_3   0.988122 0.342079 0.972654 -0.770618
H24   H     H_    0.007113 0.362095 0.070031 0.242361
H25   H     H_    0.014692 0.297771 0.902848 0.256907
H26   H     H_    0.957657 0.275877 0.992123 0.235971
N6    N     N_2   0.661392 0.659652 0.347954 -0.327412
H27   H     H_    0.632488 0.638817 0.284899 0.257556
C56   C     C_3   0.654359 0.774175 0.423768 -0.740637
H28   H     H_    0.624553 0.762383 0.498809 0.228729
H29   H     H_    0.644404 0.851192 0.352923 0.257985
H30   H     H_    0.688522 0.800755 0.477443 0.253092
O13   O     O_3   0.763742 0.602505 0.365816 -0.749806
H31   H     H_    0.747286 0.664992 0.307148 0.362954
O14   O     O_3   0.542474 0.871210 0.271175 -0.777627
H32   H     H_    0.553079 0.931735 0.200669 0.322383
N7    N     N_2   0.558314 0.667844 0.856967 -0.263270
H33   H     H_    0.549918 0.759518 0.880258 0.209712
C57   C     C_3   0.610115 0.644290 0.867699 -0.722499
H34   H     H_    0.623224 0.663756 0.972521 0.217570
H35   H     H_    0.629838 0.706504 0.796011 0.239141
H36   H     H_    0.618551 0.545418 0.841355 0.261953
O15   O     O_3   0.343986 0.602046 0.293181 -0.770421
H37   H     H_    0.318087 0.628451 0.228672 0.337012

loop_
_geom_bond_atom_site_label_1
_geom_bond_atom_site_label_2
_geom_bond_distance
_ccdc_geom_bond_type
C40   H12   1.078328 S    
N4    C52   1.362521 A    
N6    H27   1.029739 S    
Zn2   N3    2.009425 S    
C26   N2    1.366245 A    
C41   C48   1.494689 S    
N5    H23   1.032060 S    
C12   C15   1.407862 A    
C55   H24   1.110463 S    
N7    C57   1.447024 S    
Zn1   O7    1.993145 S    
N1    C11   1.426534 S    
C21   C22   1.388243 A    
C47   H14   1.112367 S    
C15   C37   1.396192 A    
C23   C24   1.408095 A    
O7    C4    1.290298 A    
C5    C13   1.400777 A    
C5    O9    1.349721 S    
C38   N5    1.426332 S    
C18   C21   1.413933 A    
C37   H10   1.083450 S    
C19   C20   1.418554 A    
C44   C45   1.412375 A    
O5    C3    1.283700 A    
C22   H6    1.083551 S    
C50   H18   1.081455 S    
Zn1   N4    2.008976 S    
C31   C32   1.406494 A    
O13   H31   0.989134 S    
C47   H15   1.111392 S    
C41   C46   1.360476 A    
C42   C43   1.400544 A    
C53   H19   1.111695 S    
C57   H36   1.111196 S    
C12   C34   1.414986 A    
C37   C40   1.386386 A    
C14   H3    1.083463 S    
N6    C56   1.446211 S    
C9    C10   1.384400 A    
O3    Zn1   1.989814 S    
C8    O15   1.381125 S    
C55   H25   1.110405 S    
C54   H22   1.111539 S    
C30   N6    1.424757 S    
C2    C16   1.460623 S    
C33   C36   1.413898 A    
C45   C46   1.391967 A    
C34   C35   1.418402 A    
C39   H11   1.083803 S    
C1    C42   1.416078 S    
C12   C13   1.408324 A    
O3    C2    1.292430 A    
C21   H7    1.076351 S    
C24   C25   1.406358 A    
C43   C44   1.396373 A    
C51   N4    1.373005 A    
C27   O10   1.349829 S    
C26   O12   1.350096 S    
C8    C16   1.409600 A    
C33   C34   1.417862 A    
C18   C33   1.416627 A    
C9    H1    1.081927 S    
O1    C1    1.280563 A    
C20   C24   1.412949 A    
C46   C47   1.496376 S    
C22   C23   1.396414 A    
N3    C50   1.364676 A    
C48   H17   1.111786 S    
Zn2   O8    1.989814 S    
N1    C6    1.366500 A    
C56   H29   1.110180 S    
C17   C29   1.399268 A    
N2    C32   1.426980 S    
C47   C48   1.515799 S    
C53   H20   1.111081 S    
C25   C26   1.398755 A    
C9    C16   1.402938 A    
O8    C4    1.292101 A    
C29   H4    1.084155 S    
C31   O13   1.382997 S    
N2    C27   1.366063 A    
C14   C36   1.389323 A    
C55   H26   1.111340 S    
C35   C40   1.411851 A    
C28   C29   1.381468 A    
C7    C11   1.399542 A    
C54   H21   1.110845 S    
C57   H34   1.111531 S    
C48   H16   1.112465 S    
C5    N1    1.366497 A    
C30   C31   1.415591 A    
C10   H2    1.083101 S    
N7    H33   1.031140 S    
O1    Zn1   1.991499 S    
C17   C30   1.413573 A    
O2    Zn2   1.990084 S    
C6    C15   1.397605 A    
C4    C17   1.453637 S    
O6    C3    1.282515 A    
C49   C54   1.489928 S    
O4    Zn2   1.993147 S    
C36   H8    1.077831 S    
N5    C55   1.446853 S    
C44   O14   1.382049 S    
C19   C35   1.416569 A    
C25   C39   1.396379 A    
C7    C8    1.405175 A    
O2    C1    1.283463 A    
C13   C14   1.397324 A    
C43   H13   1.083804 S    
O15   H37   0.991744 S    
C28   H5    1.083099 S    
O4    C2    1.293428 A    
C7    H9    1.083247 S    
C49   C52   1.404246 A    
C19   C38   1.426125 A    
C18   C20   1.420446 A    
C51   N7    1.417967 S    
C56   H30   1.111303 S    
C41   C42   1.388223 A    
C38   C39   1.396420 A    
Zn1   O5    1.990083 S    
C6    O11   1.350292 S    
C23   C27   1.399727 A    
C52   C53   1.490188 S    
Zn2   O6    1.991498 S    
C49   N3    1.362400 A    
C56   H28   1.111554 S    
C10   C11   1.394462 A    
C50   C51   1.423332 A    
C53   C54   1.517346 S    
O14   H32   0.991712 S    
C28   C32   1.393174 A    
C3    C45   1.422233 S    
C57   H35   1.110410 S    
