data_mof_unit_56670.cif
_audit_creation_date              2012-12-10T16:41:52-0500
_audit_creation_method            fapswitch 2.2
_symmetry_space_group_name_H-M    P1
_symmetry_Int_Tables_number       1
_space_group_crystal_system       triclinic
_cell_length_a                    10.859058
_cell_length_b                    8.689684
_cell_length_c                    7.455726
_cell_angle_alpha                 102.896056
_cell_angle_beta                  94.542163
_cell_angle_gamma                 92.403716
_cell_volume                      682.348401392

loop_
_atom_site_label
_atom_site_type_symbol
_atom_type_description
_atom_site_fract_x
_atom_site_fract_y
_atom_site_fract_z
_atom_type_partial_charge
C1    C     C_R   0.496269 0.199761 0.453314 0.870402
C2    C     C_2   0.505440 0.968096 0.572958 -0.370518
C3    C     C_R   0.264842 0.489736 0.499797 0.850309
C4    C     C_R   0.503661 0.800235 0.546683 0.884509
C5    C     C_R   0.734674 0.501405 0.498530 0.859587
C6    C     C_2   0.918759 0.416370 0.355770 -0.192318
C7    C     C_2   0.867112 0.506231 0.496190 -0.363849
C8    C     C_2   0.053800 0.418532 0.344277 0.305979
C9    C     C_2   0.131341 0.468537 0.500257 -0.400435
C10   C     C_2   0.494436 0.031907 0.427035 -0.368349
Cu1   Cu    Cu3+1 0.513740 0.517380 0.684380 0.948759
Cu2   Cu    Cu3+1 0.486260 0.482620 0.315620 0.955433
H1    H     H_    0.859376 0.340502 0.243970 0.171972
H2    H     H_    0.920479 0.584695 0.612161 0.145067
H3    H     H_    0.097173 0.493680 0.635661 0.129391
H4    H     H_    0.484033 0.960465 0.286340 0.180029
H5    H     H_    0.515837 0.039545 0.713653 0.178526
H6    H     H_    0.403316 0.377722 0.948469 0.227052
H7    H     H_    0.596608 0.622332 0.051580 0.225192
N1    N     N_2   0.465540 0.456420 0.038510 -0.214245
N2    N     N_2   0.534460 0.543580 0.961490 -0.217221
O1    O     O_R   0.508930 0.286130 0.619780 -0.585836
O2    O     O_R   0.485720 0.256780 0.308360 -0.594932
O3    O     O_R   0.333540 0.514670 0.655670 -0.589482
O4    O     O_R   0.310330 0.485320 0.344250 -0.549697
O5    O     O_R   0.514280 0.743220 0.691640 -0.587267
O6    O     O_R   0.491070 0.713870 0.380220 -0.582439
O7    O     O_R   0.689670 0.514680 0.655750 -0.582269
O8    O     O_R   0.666460 0.485330 0.344330 -0.585896
N3    N     N_2   0.101777 0.359415 0.169987 -0.393137
H8    H     H_    0.153458 0.261821 0.164870 0.249123
C11   C     C_3   0.026427 0.359436 0.000898 -0.678194
H9    H     H_    0.085600 0.340292 0.884093 0.222018
H10   H     H_    0.984424 0.475059 0.009988 0.240426
H11   H     H_    0.953113 0.261938 0.972235 0.212311

loop_
_geom_bond_atom_site_label_1
_geom_bond_atom_site_label_2
_ccdc_geom_bond_type
C2    C4    S    
Cu1   Cu2   S    
C6    C7    D    
C3    C9    S    
Cu2   O8    S    
C5    O7    A    
Cu1   O1    S    
C4    O5    A    
Cu2   O4    S    
C8    N3    S    
C11   H9    S    
Cu2   N1    S    
C9    H3    S    
C1    O1    A    
C10   H4    S    
C2    H5    S    
N3    C11   S    
Cu2   O2    S    
C3    O3    A    
Cu1   O7    S    
H7    N2    S    
C1    O2    A    
C5    O8    A    
N3    H8    S    
Cu2   O6    S    
C2    C10   D    
C11   H11   S    
Cu1   O3    S    
C3    O4    A    
C4    O6    A    
N1    N2    D    
H6    N1    S    
C5    C7    S    
C6    C8    S    
Cu1   O5    S    
Cu1   N2    S    
C7    H2    S    
C1    C10   S    
C8    C9    D    
C6    H1    S    
C11   H10   S    
