data_mof_unit_7695.cif
_audit_creation_date              2012-12-11T17:41:21-0500
_audit_creation_method            fapswitch 2.2
_symmetry_space_group_name_H-M    P1
_symmetry_Int_Tables_number       1
_space_group_crystal_system       triclinic
_cell_length_a                    15.547552
_cell_length_b                    14.847572
_cell_length_c                    15.071457
_cell_angle_alpha                 109.826612
_cell_angle_beta                  121.361737
_cell_angle_gamma                 59.016134
_cell_volume                      2534.84243408

loop_
_atom_site_label
_atom_site_type_symbol
_atom_type_description
_atom_site_fract_x
_atom_site_fract_y
_atom_site_fract_z
_atom_type_partial_charge
C1    C     C_R   0.755517 0.993396 0.790809 -0.072977
C2    C     C_R   0.196427 0.064165 0.228256 -0.134113
C3    C     C_R   0.214912 0.300864 0.568409 0.118071
C4    C     C_R   0.866724 0.728893 0.526688 0.107944
C5    C     C_R   0.503655 0.298420 0.430906 0.090252
C6    C     C_R   0.498025 0.673707 0.446599 0.025963
C7    C     C_R   0.497615 0.934596 0.797488 -0.005036
C8    C     C_R   0.494523 0.960346 0.172749 -0.046035
C9    C     C_R   0.711722 0.592508 0.802640 -0.215001
C10   C     C_R   0.232764 0.297997 0.089528 -0.211088
C11   C     C_R   0.627025 0.679797 0.826464 0.500138
C12   C     C_R   0.322735 0.207162 0.077775 0.512744
C13   C     C_R   0.654249 0.745259 0.920694 -0.058629
C14   C     C_R   0.306702 0.117157 0.014821 -0.035934
C15   C     C_R   0.766708 0.719784 0.990240 -0.173451
C16   C     C_R   0.199164 0.121144 0.961732 -0.204680
C17   C     C_R   0.850430 0.632084 0.965861 -0.043334
C18   C     C_R   0.109861 0.212137 0.973934 -0.116410
C19   C     C_R   0.822993 0.568848 0.872013 -0.180742
C20   C     C_R   0.126702 0.300324 0.038089 -0.176262
C21   C     C_R   0.563838 0.851776 0.041223 -0.187668
C22   C     C_R   0.405174 0.010233 0.907588 -0.154613
C23   C     C_R   0.245275 0.291225 0.492429 -0.117945
C24   C     C_R   0.802635 0.726997 0.563187 -0.127333
C25   C     C_R   0.483645 0.942739 0.068284 0.122497
C26   C     C_R   0.489760 0.924286 0.883775 0.139482
C27   C     C_R   0.399131 0.020179 0.997583 0.083472
C28   C     C_R   0.567327 0.840830 0.947549 0.092754
C29   C     C_2   0.155158 0.398738 0.618192 -0.205500
C30   C     C_2   0.982960 0.658122 0.548579 -0.175169
C31   C     C_2   0.137713 0.492081 0.604757 -0.087499
C32   C     C_2   0.042855 0.585547 0.615893 -0.096178
C33   C     C_2   0.848116 0.118827 0.898557 -0.204787
C34   C     C_2   0.014905 0.051181 0.158669 -0.151378
C35   C     C_R   0.090682 0.718237 0.192515 -0.199835
C36   C     C_R   0.815900 0.122657 0.360277 -0.169408
C37   C     C_R   0.191294 0.656659 0.267735 -0.200270
C38   C     C_R   0.717403 0.213065 0.349065 -0.149517
C39   C     C_R   0.292703 0.631703 0.269674 0.101011
C40   C     C_R   0.710428 0.289052 0.434094 0.091682
C41   C     C_R   0.291430 0.673094 0.197569 -0.220987
C42   C     C_R   0.805258 0.275686 0.529934 -0.279452
C43   C     C_R   0.190537 0.734603 0.122338 -0.182333
C44   C     C_R   0.903823 0.184213 0.541388 -0.204824
C45   C     C_R   0.593721 0.215891 0.488299 -0.118096
C46   C     C_R   0.406360 0.768541 0.443630 -0.012643
C47   C     C_R   0.090157 0.755338 0.118438 0.515261
C48   C     C_R   0.908592 0.107201 0.456691 0.548655
C49   C     C_R   0.403488 0.459898 0.343008 -0.183187
C50   C     C_R   0.599949 0.480287 0.425422 -0.227480
C51   C     C_R   0.505039 0.377870 0.394153 0.101050
C52   C     C_R   0.498088 0.569470 0.397725 0.054588
C53   C     C_R   0.604261 0.382960 0.420374 0.045489
C54   C     C_R   0.398994 0.554880 0.339745 0.060032
C55   C     C_2   0.863869 0.105400 0.990225 -0.052879
C56   C     C_2   0.958687 0.116175 0.084405 -0.124798
C57   C     C_R   0.407190 0.983422 0.711743 0.428896
C58   C     C_R   0.589470 0.954195 0.265349 0.490160
C59   C     C_R   0.410324 0.289282 0.411052 -0.106766
C60   C     C_R   0.591406 0.693781 0.516173 -0.100711
C61   C     C_R   0.591034 0.915527 0.791646 -0.222562
C62   C     C_R   0.405693 0.015140 0.196431 -0.202858
C63   C     C_R   0.244890 0.200167 0.584323 -0.102462
C64   C     C_R   0.804848 0.818003 0.474820 -0.077119
C65   C     C_R   0.757038 0.085288 0.700597 -0.130240
C66   C     C_R   0.195381 0.972012 0.316641 -0.125904
C67   C     C_R   0.787104 0.069589 0.800569 0.133364
C68   C     C_R   0.132069 0.026907 0.229437 0.122501
H1    H     H_    0.767555 0.960617 0.852240 0.151486
H2    H     H_    0.168999 0.122584 0.180893 0.101963
H3    H     H_    0.978732 0.005847 0.159911 0.182046
H4    H     H_    0.891580 0.155679 0.896012 0.123636
H5    H     H_    0.888026 0.501062 0.853264 0.134112
H6    H     H_    0.057338 0.370899 0.047100 0.131753
H7    H     H_    0.691307 0.542362 0.730457 0.152585
H8    H     H_    0.244646 0.367347 0.137566 0.146126
H9    H     H_    0.789590 0.768811 0.062787 0.181505
H10   H     H_    0.184830 0.053428 0.911388 0.165830
H11   H     H_    0.936746 0.613303 0.019595 0.131766
H12   H     H_    0.027449 0.214549 0.933160 0.115969
H13   H     H_    0.625143 0.790904 0.094349 0.155544
H14   H     H_    0.346647 0.075348 0.859091 0.146573
H15   H     H_    0.011133 0.584451 0.664666 0.133195
H16   H     H_    0.178176 0.497058 0.566816 0.137553
H17   H     H_    0.015445 0.657732 0.499576 0.149608
H18   H     H_    0.113476 0.394632 0.655503 0.137065
H19   H     H_    0.233290 0.353537 0.459922 0.095749
H20   H     H_    0.830178 0.677382 0.619474 0.099612
H21   H     H_    0.013175 0.734949 0.190390 0.164457
H22   H     H_    0.819955 0.064469 0.294010 0.200504
H23   H     H_    0.189963 0.626914 0.323221 0.147986
H24   H     H_    0.647020 0.224571 0.273772 0.218045
H25   H     H_    0.368348 0.654697 0.197274 0.146795
H26   H     H_    0.801837 0.334421 0.596005 0.145269
H27   H     H_    0.190456 0.763807 0.065502 0.164136
H28   H     H_    0.975928 0.172956 0.616025 0.174748
H29   H     H_    0.326877 0.451553 0.307252 0.106582
H30   H     H_    0.676963 0.486133 0.454323 0.129292
H31   H     H_    0.679866 0.188864 0.508726 0.126787
H32   H     H_    0.319907 0.784000 0.402368 0.125116
H33   H     H_    0.325570 0.331491 0.357579 0.086850
H34   H     H_    0.677340 0.638425 0.540135 0.093469
H35   H     H_    0.676446 0.869434 0.841084 0.167266
H36   H     H_    0.320092 0.032342 0.144014 0.142223
H37   H     H_    0.233484 0.180082 0.638699 0.144482
H38   H     H_    0.839281 0.852647 0.456491 0.184588
H39   H     H_    0.770328 0.138814 0.680317 0.106794
H40   H     H_    0.164575 0.945965 0.348649 0.169918
H41   H     H_    0.993446 0.162532 0.082746 0.125166
H42   H     H_    0.820972 0.068605 0.993765 0.161237
N1    N     N_R   0.705410 0.966550 0.689210 -0.051411
N2    N     N_R   0.294590 0.033450 0.310790 -0.050928
N3    N     N_R   0.294590 0.188320 0.465660 -0.051549
N4    N     N_R   0.705410 0.811680 0.534340 -0.054407
N5    N     N_R   0.556610 0.157790 0.497330 -0.047421
N6    N     N_R   0.443390 0.842210 0.502670 -0.036847
N7    N     N_R   0.443390 0.997080 0.657540 -0.088474
N8    N     N_R   0.556610 0.002920 0.342460 -0.078343
N9    N     N_R   0.443390 0.203250 0.451380 -0.046446
N10   N     N_R   0.556610 0.796750 0.548620 -0.044208
N11   N     N_R   0.556610 0.951620 0.703500 -0.067917
N12   N     N_R   0.443390 0.048380 0.296500 -0.055729
N13   N     N_R   0.294590 0.131500 0.522480 -0.038943
N14   N     N_R   0.705410 0.868500 0.477520 -0.060298
N15   N     N_R   0.705410 0.023370 0.632390 -0.048080
N16   N     N_R   0.294590 0.976630 0.367610 -0.052256
Ni1   Ni    Ni4+2 0.629830 0.882720 0.617850 0.227478
Ni2   Ni    Ni4+2 0.370170 0.117280 0.382150 0.210375
Ni3   Ni    Ni4+2 0.629830 0.013030 0.487540 0.247230
Ni4   Ni    Ni4+2 0.370170 0.986970 0.512460 0.298039
Cl1   Cl    Cl    0.488484 0.701827 0.738330 -0.619527
Cl2   Cl    Cl    0.453514 0.209002 0.140385 -0.718575
Cl3   Cl    Cl    0.963793 0.823356 0.017852 -0.767895
Cl4   Cl    Cl    0.029658 0.990575 0.470324 -0.599243
Cl5   Cl    Cl    0.277120 0.981165 0.656941 -0.594594
Cl6   Cl    Cl    0.717951 0.925841 0.274261 -0.725334

loop_
_geom_bond_atom_site_label_1
_geom_bond_atom_site_label_2
_ccdc_geom_bond_type
C33   C55   D    
C66   C68   A    
C55   C56   S    
C24   N4    A    
C3    C23   A    
C58   N8    A    
C35   C47   A    
C49   C51   A    
N10   Ni1   S    
C39   C41   A    
N3    Ni2   S    
C34   C56   D    
C2    N2    A    
C7    C26   S    
C22   H14   S    
C48   Cl4   S    
C35   C37   A    
N11   Ni1   S    
C2    C68   A    
C4    C24   A    
C39   C54   S    
N16   Ni4   S    
C49   C54   A    
C38   H24   S    
C17   H11   S    
C18   C20   A    
C61   N11   A    
N8    N12   A    
C3    C29   S    
N7    N11   A    
C7    C61   A    
C46   H32   S    
C33   H4    S    
C8    C58   A    
C10   H8    S    
C55   H42   S    
C9    C19   A    
C41   H25   S    
C10   C20   A    
C65   C67   A    
N1    N15   A    
C43   H27   S    
C13   C28   S    
C36   C48   A    
C14   C27   S    
C63   H37   S    
C12   Cl2   S    
N2    N16   A    
N4    N14   A    
N9    Ni2   S    
C40   C42   A    
C38   C40   A    
C23   H19   S    
C47   Cl3   S    
C8    C25   S    
C41   C43   A    
C42   C44   A    
C60   H34   S    
C52   C54   A    
C62   H36   S    
C50   H30   S    
C50   C53   A    
C5    C59   A    
C59   H33   S    
C6    C60   A    
C19   H5    S    
C45   H31   S    
C34   C68   S    
C37   H23   S    
C17   C19   A    
C58   Cl6   S    
C64   N14   A    
C5    C45   A    
C1    H1    S    
C31   H16   S    
C66   N16   A    
C51   C53   A    
C65   N15   A    
C44   H28   S    
N15   Ni3   S    
C23   N3    A    
C9    C11   A    
C45   N5    A    
C50   C52   A    
C31   C32   S    
N3    N13   A    
C20   H6    S    
C30   H17   S    
N7    Ni4   S    
C24   H20   S    
C29   H18   S    
C10   C12   A    
C35   H21   S    
C16   C18   A    
C21   C28   A    
C21   H13   S    
N5    N9    A    
C22   C27   A    
C13   C15   A    
N13   Ni4   S    
N1    Ni1   S    
C14   C16   A    
C56   H41   S    
C62   N12   A    
C33   C67   S    
C57   N7    A    
N5    Ni3   S    
C36   H22   S    
C15   C17   A    
C32   H15   S    
C21   C25   A    
C59   N9    A    
C6    C46   A    
C61   H35   S    
C42   H26   S    
C57   Cl5   S    
C66   H40   S    
C11   Cl1   S    
C63   N13   A    
C64   H38   S    
C3    C63   A    
C25   C27   A    
C4    C64   A    
C26   C28   A    
C46   N6    A    
C36   C38   A    
C12   C14   A    
C37   C39   A    
N8    Ni3   S    
C1    N1    A    
C30   C32   D    
N4    Ni1   S    
C11   C13   A    
C18   H12   S    
C15   H9    S    
C1    C67   A    
C65   H39   S    
N14   Ni3   S    
C60   N10   A    
C16   H10   S    
N12   Ni2   S    
N2    Ni2   S    
C49   H29   S    
N6    N10   A    
N6    Ni4   S    
C29   C31   D    
C40   C53   S    
C22   C26   A    
C5    C51   S    
C9    H7    S    
C6    C52   S    
C2    H2    S    
C43   C47   A    
C34   H3    S    
C7    C57   A    
C4    C30   S    
C44   C48   A    
C8    C62   A    
