data_mof_unit_55050.cif
_audit_creation_date              2012-12-10T18:59:11-0500
_audit_creation_method            fapswitch 2.2
_symmetry_space_group_name_H-M    P1
_symmetry_Int_Tables_number       1
_space_group_crystal_system       triclinic
_cell_length_a                    9.899834
_cell_length_b                    10.65941
_cell_length_c                    16.668834
_cell_angle_alpha                 89.000291
_cell_angle_beta                  91.734619
_cell_angle_gamma                 90.986128
_cell_volume                      1757.68325846

loop_
_atom_site_label
_atom_site_type_symbol
_atom_type_description
_atom_site_fract_x
_atom_site_fract_y
_atom_site_fract_z
_atom_type_partial_charge
C1    C     C_R   0.499159 0.260137 0.500969 0.874800
C2    C     C_R   0.500841 0.739863 0.499033 0.874797
C3    C     C_R   0.388458 0.934878 0.466918 -0.166410
C4    C     C_R   0.611542 0.065121 0.533086 -0.166430
C5    C     C_R   0.501667 0.872403 0.498386 -0.005796
C6    C     C_R   0.498332 0.127596 0.501617 -0.005793
C7    C     C_R   0.072828 0.587197 0.456433 -0.089038
C8    C     C_R   0.927172 0.412803 0.543567 -0.089040
C9    C     C_R   0.929466 0.588295 0.456091 0.240425
C10   C     C_R   0.070534 0.411705 0.543909 0.240431
C11   C     C_R   0.514212 0.498670 0.653036 0.948462
C12   C     C_R   0.485788 0.501326 0.346964 0.948461
C13   C     C_R   0.512131 0.490568 0.739460 -0.177749
C14   C     C_R   0.487865 0.509389 0.260539 -0.177736
C15   C     C_R   0.454591 0.590403 0.779581 0.062576
C16   C     C_R   0.545347 0.409511 0.220431 0.062571
C17   C     C_R   0.422827 0.574952 0.860003 0.129965
C18   C     C_R   0.577088 0.424909 0.140001 0.129990
C19   C     C_R   0.458166 0.463730 0.901283 0.188311
C20   C     C_R   0.541786 0.536126 0.098705 0.188318
C21   C     C_R   0.503327 0.359057 0.859763 0.147103
C22   C     C_R   0.496681 0.640837 0.140211 0.147106
C23   C     C_R   0.535107 0.373575 0.778163 0.116388
C24   C     C_R   0.464925 0.626372 0.221817 0.116371
C25   C     C_R   0.386693 0.063275 0.468677 -0.163617
C26   C     C_R   0.613306 0.936724 0.531327 -0.163635
H1    H     H_    0.299919 0.112051 0.443186 0.158404
H2    H     H_    0.700080 0.887948 0.556817 0.158398
H3    H     H_    0.302336 0.884649 0.440651 0.149855
H4    H     H_    0.697664 0.115351 0.559352 0.149860
H5    H     H_    0.128792 0.656824 0.422275 0.136655
H6    H     H_    0.871208 0.343176 0.577725 0.136650
N1    N     N_2   0.459282 0.460327 0.985677 -0.129053
N2    N     N_2   0.540677 0.539507 0.014311 -0.129076
N3    N     N_R   0.857210 0.499970 0.500020 -0.096067
N4    N     N_R   0.142790 0.500030 0.499980 -0.096067
O1    O     O_R   0.614620 0.316750 0.500010 -0.613876
O2    O     O_R   0.385380 0.683250 0.499990 -0.613880
O3    O     O_R   0.385290 0.316780 0.500000 -0.629730
O4    O     O_R   0.614710 0.683220 0.500000 -0.629732
O5    O     O_R   0.627460 0.498830 0.616130 -0.608775
O6    O     O_R   0.372540 0.501170 0.383870 -0.608770
O7    O     O_R   0.398130 0.498850 0.616130 -0.607346
O8    O     O_R   0.601870 0.501150 0.383870 -0.607349
Zn1   Zn    Zn3+2 0.653130 0.499980 0.500000 0.965729
Zn2   Zn    Zn3+2 0.346870 0.500020 0.500000 0.965735
I1    I     I_    0.582453 0.234511 0.282075 -0.302820
I2    I     I_    0.417431 0.765419 0.717966 -0.302811
I3    I     I_    0.696404 0.290195 0.082434 -0.294147
I4    I     I_    0.303441 0.709589 0.917589 -0.294126
C27   C     C_3   0.510856 0.232068 0.901298 -0.772832
H7    H     H_    0.450262 0.162162 0.866340 0.243917
H8    H     H_    0.617500 0.201799 0.906689 0.258951
H9    H     H_    0.467788 0.231849 0.961910 0.262624
C28   C     C_3   0.489178 0.767810 0.098653 -0.772819
H10   H     H_    0.549812 0.837715 0.133588 0.243920
H11   H     H_    0.532211 0.767988 0.038033 0.262616
H12   H     H_    0.382544 0.798110 0.093275 0.258949
C29   C     C_3   0.588168 0.265686 0.730403 -0.848268
H13   H     H_    0.609824 0.180099 0.766662 0.255624
H14   H     H_    0.513122 0.239740 0.682426 0.221313
H15   H     H_    0.684481 0.294627 0.702506 0.239140
C30   C     C_3   0.411918 0.734301 0.269565 -0.848263
H16   H     H_    0.390287 0.819880 0.233294 0.255644
H17   H     H_    0.315603 0.705403 0.297476 0.239126
H18   H     H_    0.486986 0.760242 0.317532 0.221328
C31   C     C_3   0.860583 0.690850 0.408354 -0.808400
H19   H     H_    0.931538 0.739566 0.367348 0.201337
H20   H     H_    0.777149 0.653263 0.370097 0.269471
H21   H     H_    0.824433 0.762779 0.449318 0.242864
C32   C     C_3   0.139417 0.309150 0.591647 -0.808399
H22   H     H_    0.068462 0.260434 0.632652 0.201334
H23   H     H_    0.175568 0.237221 0.550683 0.242861
H24   H     H_    0.222850 0.346738 0.629904 0.269473

loop_
_geom_bond_atom_site_label_1
_geom_bond_atom_site_label_2
_ccdc_geom_bond_type
C17   I4    S    
C32   H24   S    
C4    C26   A    
C28   H10   S    
C30   H17   S    
C11   O7    A    
C22   C28   S    
C14   C16   A    
C5    C26   A    
C25   H1    S    
C7    N4    A    
C2    O2    A    
C26   H2    S    
C9    C31   S    
C13   C15   A    
C1    O1    A    
C3    C5    A    
C27   H9    S    
C20   N2    S    
C10   C32   S    
C31   H21   S    
C28   H11   S    
N1    N2    D    
C30   H18   S    
C29   H13   S    
C12   O8    A    
C16   C18   A    
O5    Zn1   S    
O2    Zn2   S    
C23   C29   S    
N4    Zn2   S    
C11   C13   S    
C8    H6    S    
C15   I2    S    
O3    Zn2   S    
C16   I1    S    
C4    C6    A    
C17   C19   A    
C12   C14   S    
C11   O5    A    
C24   C30   S    
C18   C20   A    
C21   C23   A    
C19   N1    S    
O4    Zn1   S    
O7    Zn2   S    
C22   C24   A    
C29   H14   S    
C6    C25   A    
C7    H5    S    
C1    O3    A    
C12   O6    A    
C27   H7    S    
C2    C5    S    
C2    O4    A    
C32   H23   S    
C21   C27   S    
C3    C25   A    
C32   H22   S    
O8    Zn1   S    
C13   C23   A    
C3    H3    S    
O6    Zn2   S    
C28   H12   S    
C14   C24   A    
C1    C6    S    
C15   C17   A    
C7    C9    A    
C9    N3    A    
C10   N4    A    
C29   H15   S    
C31   H20   S    
C19   C21   A    
O1    Zn1   S    
C8    C10   A    
C4    H4    S    
C31   H19   S    
C18   I3    S    
C20   C22   A    
C30   H16   S    
C27   H8    S    
C8    N3    A    
N3    Zn1   S    
