data_mof_unit_27752.cif
_audit_creation_date              2012-12-10T17:51:31-0500
_audit_creation_method            fapswitch 2.2
_symmetry_space_group_name_H-M    P1
_symmetry_Int_Tables_number       1
_space_group_crystal_system       triclinic
_cell_length_a                    9.971423
_cell_length_b                    10.710601
_cell_length_c                    16.713981
_cell_angle_alpha                 94.035269
_cell_angle_beta                  84.905144
_cell_angle_gamma                 90.796458
_cell_volume                      1773.5390026

loop_
_atom_site_label
_atom_site_type_symbol
_atom_type_description
_atom_site_fract_x
_atom_site_fract_y
_atom_site_fract_z
_atom_type_partial_charge
C1    C     C_R   0.501308 0.739584 0.493864 0.896081
C2    C     C_R   0.532863 0.474553 0.259957 -0.214466
C3    C     C_R   0.261355 0.884627 0.457988 -0.099966
C4    C     C_R   0.480616 0.497941 0.652764 0.825215
C5    C     C_R   0.137130 0.943361 0.473769 -0.236030
C6    C     C_R   0.126546 0.054065 0.522557 -0.108546
C7    C     C_R   0.242096 0.112844 0.549119 0.504237
C8    C     C_R   0.371263 0.061913 0.521963 -0.046417
C9    C     C_R   0.378119 0.938379 0.489182 -0.019142
C10   C     C_R   0.501923 0.874108 0.489003 -0.151043
C11   C     C_R   0.622728 0.940799 0.499414 0.456442
C12   C     C_R   0.370037 0.525072 0.793258 0.470622
C13   C     C_R   0.617098 0.068983 0.513494 -0.293722
C14   C     C_R   0.493573 0.130113 0.521051 -0.194046
C15   C     C_R   0.857760 0.684145 0.605665 0.588482
C16   C     C_R   0.497610 0.261865 0.508565 0.909497
C17   C     C_R   0.932650 0.772846 0.649727 -0.279977
C18   C     C_R   0.069603 0.765097 0.648042 -0.221326
C19   C     C_R   0.135470 0.670705 0.601175 -0.056859
C20   C     C_R   0.068545 0.586003 0.550051 0.000560
C21   C     C_R   0.924035 0.588745 0.550832 -0.012005
C22   C     C_R   0.931722 0.415410 0.452945 0.464283
C23   C     C_R   0.461758 0.515471 0.130744 -0.246251
C24   C     C_R   0.075535 0.415607 0.452237 0.371688
C25   C     C_R   0.519258 0.496398 0.347003 0.999668
C26   C     C_R   0.465771 0.466015 0.735761 -0.136636
C27   C     C_R   0.536573 0.361417 0.754668 -0.234014
C28   C     C_R   0.516754 0.317627 0.830806 -0.078454
C29   C     C_R   0.426477 0.378731 0.888735 -0.015075
C30   C     C_R   0.350196 0.479066 0.869249 -0.157806
C31   C     C_R   0.453988 0.543047 0.213674 0.383121
C32   C     C_R   0.619552 0.379167 0.224217 0.367364
C33   C     C_R   0.626298 0.351098 0.140403 0.343886
C34   C     C_R   0.545277 0.419844 0.094426 -0.096523
C35   C     C_2   0.434943 0.360015 0.973891 0.357123
C36   C     C_2   0.548272 0.398162 0.006837 0.366381
H1    H     H_    0.606879 0.313105 0.710179 0.157449
H2    H     H_    0.693269 0.761231 0.659498 0.304768
H3    H     H_    0.883310 0.846315 0.689064 0.150529
H4    H     H_    0.323312 0.675460 0.209393 0.345885
H5    H     H_    0.125089 0.830971 0.684977 0.182358
H6    H     H_    0.239863 0.666841 0.607237 0.210061
H7    H     H_    0.240966 0.343094 0.402076 0.399029
H8    H     H_    0.748303 0.248598 0.241106 0.395127
H9    H     H_    0.730646 0.464113 0.993821 0.352968
H10   H     H_    0.282763 0.527860 0.915147 0.169656
H11   H     H_    0.402370 0.568608 0.093941 0.169347
H12   H     H_    0.695857 0.237859 0.049062 0.355490
H13   H     H_    0.343796 0.669501 0.732238 0.311227
H14   H     H_    0.248977 0.305371 0.987115 0.346157
H15   H     H_    0.576770 0.240608 0.846063 0.155606
H16   H     H_    0.817823 0.941130 0.505030 0.313437
H17   H     H_    0.265194 0.798794 0.419728 0.203413
H18   H     H_    0.048378 0.900031 0.450788 0.180412
H19   H     H_    0.028324 0.094175 0.540113 0.147109
H20   H     H_    0.307532 0.224721 0.633512 0.323393
H21   H     H_    0.710788 0.121160 0.515584 0.180979
H22   H     H_    0.927136 0.270369 0.375125 0.372754
N1    N     N_R   0.857140 0.501200 0.500750 -0.144805
N2    N     N_R   0.142740 0.501280 0.500770 -0.165403
O1    O     O_R   0.385310 0.683220 0.500000 -0.678784
O2    O     O_3   0.745519 0.880571 0.492027 -0.746034
O3    O     O_3   0.224236 0.213133 0.605464 -0.747278
O4    O     O_3   0.863393 0.329762 0.405724 -0.684120
O5    O     O_3   0.721345 0.690056 0.620633 -0.710870
O6    O     O_3   0.371703 0.636926 0.250660 -0.750754
O7    O     O_3   0.144311 0.326821 0.401534 -0.776038
O8    O     O_3   0.691214 0.311645 0.273568 -0.698862
O9    O     O_3   0.660981 0.432416 0.958519 -0.779649
O10   O     O_3   0.298812 0.629792 0.779254 -0.763020
O11   O     O_3   0.322176 0.326748 0.022314 -0.763689
O12   O     O_R   0.614640 0.683250 0.500010 -0.494318
O13   O     O_R   0.371780 0.500010 0.615800 -0.624477
O14   O     O_R   0.601110 0.500030 0.615800 -0.552658
O15   O     O_R   0.385360 0.316750 0.499990 -0.610518
O16   O     O_R   0.614690 0.316780 0.500000 -0.571192
O17   O     O_R   0.398890 0.499970 0.384200 -0.614801
O18   O     O_R   0.628220 0.499990 0.384200 -0.544196
O19   O     O_3   0.709715 0.255502 0.106601 -0.762629
Zn1   Zn    Zn3+2 0.346870 0.499980 0.499990 0.977812
Zn2   Zn    Zn3+2 0.653130 0.500020 0.500010 1.072780

loop_
_geom_bond_atom_site_label_1
_geom_bond_atom_site_label_2
_ccdc_geom_bond_type
C31   O6    S    
C16   O15   A    
C11   C13   A    
C35   C36   D    
C6    H19   S    
C11   O2    S    
C7    C8    A    
C26   C27   A    
C25   O17   A    
H12   O19   S    
C28   C29   A    
C21   N1    A    
C5    C6    A    
C28   H15   S    
C13   H21   S    
O1    Zn1   S    
C15   O5    S    
C2    C32   A    
C18   C19   A    
C17   H3    S    
C24   O7    S    
C19   C20   A    
C8    C9    A    
C20   N2    A    
C9    C10   A    
C4    O14   A    
O12   Zn2   S    
C19   H6    S    
C32   O8    S    
C35   O11   S    
H4    O6    S    
C13   C14   A    
C33   C34   A    
H22   O4    S    
C1    O12   A    
C23   H11   S    
H9    O9    S    
C25   O18   A    
C5    H18   S    
C18   H5    S    
C22   N1    A    
C33   O19   S    
C12   C26   A    
C2    C31   A    
C23   C31   A    
H14   O11   S    
C29   C30   A    
C3    C9    A    
H2    O5    S    
C24   N2    A    
C23   C34   A    
C17   C18   A    
H20   O3    S    
C7    O3    S    
C4    O13   A    
H13   O10   S    
C14   C16   S    
H8    O8    S    
O14   Zn2   S    
C36   O9    S    
O15   Zn1   S    
O17   Zn1   S    
C15   C17   A    
C12   O10   S    
N2    Zn1   S    
C8    C14   A    
C12   C30   A    
C16   O16   A    
C30   H10   S    
C1    C10   S    
N1    Zn2   S    
C3    C5    A    
C1    O1    A    
O16   Zn2   S    
C4    C26   S    
C6    C7    A    
C29   C35   S    
C32   C33   A    
H16   O2    S    
C3    H17   S    
O18   Zn2   S    
C27   H1    S    
O13   Zn1   S    
C2    C25   S    
C22   C24   A    
C10   C11   A    
C22   O4    S    
C15   C21   A    
C20   C21   A    
C34   C36   S    
H7    O7    S    
C27   C28   A    
