data_mof_unit_31654.cif
_audit_creation_date              2012-12-11T15:29:27-0500
_audit_creation_method            fapswitch 2.2
_symmetry_space_group_name_H-M    P1
_symmetry_Int_Tables_number       1
_space_group_crystal_system       triclinic
_cell_length_a                    13.50804
_cell_length_b                    13.477622
_cell_length_c                    27.531481
_cell_angle_alpha                 90.743654
_cell_angle_beta                  89.983961
_cell_angle_gamma                 60.212906
_cell_volume                      4349.54590266

loop_
_atom_site_label
_atom_site_type_symbol
_atom_type_description
_atom_site_fract_x
_atom_site_fract_y
_atom_site_fract_z
_atom_type_partial_charge
C1    C     C_R   0.619904 0.101068 0.570113 0.544699
C2    C     C_1   0.624742 0.740028 0.616783 0.044175
C3    C     C_3   0.625723 0.603959 0.769379 -0.098634
C4    C     C_3   0.673104 0.659635 0.804843 0.005948
C5    C     C_3   0.550000 0.722347 0.746270 -0.148125
C6    C     C_3   0.648180 0.697853 0.711062 0.024087
C7    C     C_3   0.597126 0.777611 0.782548 -0.102096
C8    C     C_3   0.695148 0.753180 0.746428 -0.117333
C9    C     C_1   0.686006 0.635424 0.856792 -0.002976
C10   C     C_1   0.637259 0.718203 0.659119 0.027649
C11   C     C_3   0.089655 0.166105 0.741178 -0.171766
C12   C     C_R   0.598733 0.780464 0.568512 0.551295
C13   C     C_3   0.164320 0.067160 0.775585 -0.001213
C14   C     C_1   0.111637 0.191500 0.903274 0.045606
C15   C     C_1   0.236760 0.134755 0.618763 0.028462
C16   C     C_3   0.103650 0.249302 0.776071 0.032123
C17   C     C_3   0.176844 0.150266 0.810368 0.011572
C18   C     C_3   0.212128 0.227590 0.749040 0.256839
C19   C     C_3   0.199287 0.144375 0.714468 0.009803
C20   C     C_3   0.286483 0.128856 0.783580 -0.141927
C21   C     C_3   0.274026 0.044236 0.748260 -0.154242
C22   C     C_1   0.149128 0.166240 0.862483 0.026012
C23   C     C_R   0.278817 0.121239 0.569833 0.549143
C24   C     C_1   0.214991 0.140609 0.661556 0.002811
C25   C     C_3   0.572933 0.271106 0.744344 -0.052381
C26   C     C_3   0.549872 0.199216 0.781545 -0.104208
C27   C     C_1   0.688766 0.202674 0.902931 0.043919
C28   C     C_1   0.633691 0.132036 0.618668 0.031400
C29   C     C_3   0.680807 0.248700 0.772867 -0.132187
C30   C     C_3   0.657484 0.176824 0.809250 0.001007
C31   C     C_3   0.754969 0.139418 0.741713 -0.064660
C32   C     C_3   0.646976 0.161910 0.713978 0.019434
C33   C     C_3   0.730024 0.069409 0.778484 0.278619
C34   C     C_R   0.622562 0.100738 0.431681 0.523281
C35   C     C_3   0.623258 0.089756 0.750267 -0.091097
C36   C     C_1   0.669962 0.189024 0.861402 0.014576
C37   C     C_1   0.640935 0.149346 0.661247 0.017624
C38   C     C_R   0.637926 0.724877 0.382415 -0.006594
C39   C     C_R   0.580052 0.675906 0.359061 -0.083017
C40   C     C_R   0.592341 0.655076 0.308915 0.052581
C41   C     C_R   0.661025 0.688226 0.282682 0.041326
C42   C     C_R   0.725507 0.728185 0.306801 -0.112036
C43   C     C_R   0.715434 0.744850 0.356424 -0.124107
C44   C     C_R   0.577850 0.739289 0.198719 0.014951
C45   C     C_R   0.601629 0.777136 0.430382 0.547301
C46   C     C_R   0.590967 0.707454 0.149588 -0.146164
C47   C     C_R   0.791679 0.572278 0.162684 -0.113736
C48   C     C_R   0.778520 0.598489 0.211500 -0.155788
C49   C     C_R   0.671552 0.677807 0.230093 0.016972
C50   C     C_R   0.697099 0.622649 0.131989 0.018339
C51   C     C_R   0.221881 0.137969 0.383989 0.016314
C52   C     C_R   0.240420 0.042385 0.356050 -0.089828
C53   C     C_R   0.214163 0.053556 0.307002 -0.060804
C54   C     C_R   0.166517 0.161024 0.285042 0.043699
C55   C     C_R   0.137271 0.258299 0.314293 -0.116385
C56   C     C_R   0.278541 0.120055 0.431032 0.543237
C57   C     C_R   0.166093 0.246690 0.363304 -0.124012
C58   C     C_R   0.172137 0.251154 0.207114 -0.116561
C59   C     C_R   0.156638 0.264777 0.156986 0.187231
C60   C     C_R   0.125941 0.101207 0.154002 0.209150
C61   C     C_R   0.135613 0.093434 0.204339 -0.119987
C62   C     C_R   0.154509 0.170668 0.231604 -0.054345
C63   C     C_R   0.119334 0.197950 0.130745 -0.000182
C64   C     C_R   0.641518 0.140667 0.384766 -0.018553
C65   C     C_R   0.544094 0.222360 0.360071 -0.115497
C66   C     C_R   0.549395 0.241638 0.311140 -0.094061
C67   C     C_3   0.722569 0.581514 0.733614 0.296725
C68   C     C_R   0.652061 0.179788 0.285782 0.004965
C69   C     C_R   0.751899 0.105616 0.310555 -0.084616
C70   C     C_R   0.748691 0.087028 0.360416 0.005927
C71   C     C_R   0.705362 0.095280 0.202837 -0.125731
C72   C     C_R   0.714681 0.105857 0.152817 0.025304
C73   C     C_R   0.618672 0.313094 0.164133 -0.119107
C74   C     C_R   0.607137 0.301248 0.213397 -0.110901
C75   C     C_R   0.654934 0.192351 0.233221 0.019244
C76   C     C_R   0.677648 0.216070 0.133822 0.055929
C77   C     C_R   0.052453 0.233276 0.948743 0.553118
C78   C     C_3   0.771520 0.634717 0.769437 -0.067242
C79   C     C_R   0.712222 0.561519 0.946378 0.549068
C80   C     C_R   0.722158 0.223245 0.949588 0.559313
C81   C     C_R   0.052347 0.241116 0.085351 0.573241
C82   C     C_R   0.709659 0.571865 0.084212 0.542139
C83   C     C_R   0.718588 0.232382 0.086877 0.576057
C84   C     C_1   0.697090 0.607715 0.898691 0.027673
Cr1   Cr    Cr6+3 0.417550 0.169090 0.500530 1.064570
Cr2   Cr    Cr6+3 0.669180 0.913420 0.499920 1.049572
Cr3   Cr    Cr6+3 0.413260 0.917540 0.499520 1.050454
Cr4   Cr    Cr6+3 0.909770 0.175810 0.018240 1.156902
Cr5   Cr    Cr6+3 0.913300 0.427650 0.016090 1.126836
Cr6   Cr    Cr6+3 0.657770 0.431010 0.016900 1.072575
H1    H     H_    0.862017 0.601823 0.778864 0.201843
H2    H     H_    0.366935 0.112861 0.801096 0.109816
H3    H     H_    0.467185 0.222562 0.799039 0.146669
H4    H     H_    0.508534 0.354948 0.729673 0.192688
H5    H     H_    0.599276 0.024331 0.740559 0.118101
H6    H     H_    0.839351 0.114575 0.725277 0.153298
H7    H     H_    0.701955 0.315072 0.784330 0.164806
H8    H     H_    0.522139 0.658444 0.379639 0.175267
H9    H     H_    0.518952 0.747351 0.125211 0.147214
H10   H     H_    0.850833 0.552555 0.235282 0.120726
H11   H     H_    0.874196 0.505441 0.149768 0.168196
H12   H     H_    0.780778 0.750370 0.286808 0.131904
H13   H     H_    0.761682 0.782165 0.373630 0.156953
H14   H     H_    0.283728 0.957240 0.371000 0.156695
H15   H     H_    0.198770 0.303422 0.227108 0.141528
H16   H     H_    0.723236 0.814444 0.735785 0.178067
H17   H     H_    0.238435 0.976339 0.286075 0.158573
H18   H     H_    0.128112 0.026202 0.221961 0.159761
H19   H     H_    0.096267 0.342960 0.298939 0.107354
H20   H     H_    0.149726 0.321836 0.384372 0.136295
H21   H     H_    0.461129 0.266497 0.377624 0.151729
H22   H     H_    0.736859 0.011318 0.218281 0.109524
H23   H     H_    0.471887 0.300515 0.292508 0.142809
H24   H     H_    0.566426 0.376946 0.236469 0.141421
H25   H     H_    0.545557 0.858791 0.803227 0.145731
H26   H     H_    0.588793 0.398392 0.150565 0.146529
H27   H     H_    0.832199 0.062893 0.290785 0.162295
H28   H     H_    0.459535 0.756807 0.735897 0.127923
H29   H     H_    0.598138 0.541732 0.779264 0.131445
H30   H     H_    0.011393 0.177665 0.723185 0.167670
H31   H     H_    0.343985 0.959610 0.735956 0.111978
O1    O     O_R   0.301780 0.195490 0.553940 -0.476816
O2    O     O_R   0.658840 0.818280 0.449970 -0.499098
O3    O     O_R   0.503160 0.801780 0.445740 -0.512032
O4    O     O_R   0.319320 0.022190 0.450230 -0.500647
O5    O     O_3   0.499990 0.000010 0.499990 -0.259977
O6    O     O_R   0.819250 0.149410 0.965240 -0.462027
O7    O     O_R   0.006940 0.180310 0.968270 -0.480309
O8    O     O_R   0.028420 0.332670 0.963010 -0.483421
O9    O     O_R   0.810130 0.520390 0.966030 -0.482170
O10   O     O_R   0.636050 0.541380 0.962520 -0.498622
O11   O     O_R   0.666480 0.323610 0.968170 -0.499925
O12   O     O_R   0.522450 0.158840 0.550250 -0.481486
O13   O     O_R   0.817280 0.156800 0.072180 -0.433079
O14   O     O_R   0.005110 0.187160 0.067410 -0.444501
O15   O     O_R   0.026450 0.340060 0.069950 -0.450077
O16   O     O_R   0.808300 0.527240 0.065170 -0.492029
O17   O     O_R   0.634070 0.548770 0.069460 -0.506333
O18   O     O_R   0.664650 0.330470 0.067300 -0.509005
O19   O     O_3   0.826940 0.344820 0.017080 -0.302701
O20   O     O_R   0.694460 0.003360 0.553820 -0.504129
O21   O     O_R   0.657750 0.819520 0.549120 -0.490309
O22   O     O_R   0.501990 0.803120 0.552700 -0.503279
O23   O     O_R   0.318230 0.023430 0.549370 -0.502611
O24   O     O_R   0.302950 0.194150 0.446980 -0.515690
O25   O     O_R   0.523540 0.157600 0.451100 -0.498601
O26   O     O_R   0.695630 0.002030 0.446860 -0.526431
S1    S     S_3+6 0.244214 0.334435 0.729368 0.049847
O27   O     O_2   0.351662 0.278353 0.699318 -0.300745
O28   O     O_2   0.147940 0.419480 0.698871 -0.180584
O29   O     O_3   0.261692 0.403243 0.777141 -0.465925
H32   H     H_    0.264264 0.359082 0.806036 0.337307
C85   C     C_2   0.011476 0.362597 0.794917 0.279857
H33   H     H_    0.923932 0.380951 0.796156 0.138276
O30   O     O_2   0.035869 0.430990 0.812669 -0.479732
S2    S     S_3+6 0.833205 0.934508 0.801728 0.010451
O31   O     O_2   0.914129 0.950109 0.834063 -0.210336
O32   O     O_2   0.773506 0.885384 0.830476 -0.290619
O33   O     O_3   0.905899 0.845765 0.755236 -0.535688
H34   H     H_    0.951550 0.769718 0.770100 0.392041
S3    S     S_3+6 0.799910 0.454458 0.697549 -0.023949
O34   O     O_2   0.820053 0.352887 0.726545 -0.389644
O35   O     O_2   0.732097 0.460881 0.653258 -0.267008
O36   O     O_3   0.925296 0.441293 0.680424 -0.476926
H35   H     H_    0.966854 0.365574 0.663943 0.368540
C86   C     C_2   0.466419 0.835365 0.215438 0.232448
H36   H     H_    0.393176 0.868058 0.191641 0.155211
O37   O     O_2   0.455761 0.881922 0.254928 -0.512890
C87   C     C_2   0.533137 0.600202 0.284581 0.229011
H37   H     H_    0.546671 0.577974 0.246229 0.102384
O38   O     O_2   0.468975 0.578028 0.307243 -0.512464
S4    S     S_3+6 0.193385 0.359973 0.128928 0.047573
O39   O     O_2   0.240371 0.317161 0.078745 -0.199967
O40   O     O_2   0.089246 0.476405 0.125478 -0.282901
O41   O     O_3   0.293307 0.370163 0.161688 -0.500812
H38   H     H_    0.250462 0.434874 0.184711 0.347598
S5    S     S_3+6 0.131904 0.982815 0.122323 0.022910
O42   O     O_2   0.206733 0.874792 0.149317 -0.298507
O43   O     O_2   0.014012 0.998436 0.119363 -0.263782
O44   O     O_3   0.185896 0.970906 0.066089 -0.500643
H39   H     H_    0.176352 0.910329 0.049737 0.373406
C88   C     C_2   0.762174 0.000378 0.122300 0.297820
H40   H     H_    0.811455 0.917407 0.138998 0.122567
O45   O     O_2   0.742720 0.004206 0.078857 -0.451242
C89   C     C_2   0.857408 0.014342 0.386104 0.237301
H41   H     H_    0.861503 0.018147 0.425355 0.136778
O46   O     O_2   0.944795 0.950889 0.363588 -0.507497
C90   C     C_2   0.139797 0.974365 0.789206 0.269277
H42   H     H_    0.128524 0.924054 0.760973 0.134014
O47   O     O_2   0.132782 0.954588 0.831793 -0.430956

loop_
_geom_bond_atom_site_label_1
_geom_bond_atom_site_label_2
_ccdc_geom_bond_type
C44   C49   A    
C58   C62   A    
C66   C68   A    
C46   H9    S    
C8    C78   S    
C80   O11   A    
C66   H23   S    
Cr2   O5    S    
C34   O25   A    
C41   C42   A    
S1    O29   S    
C72   C76   A    
C2    C12   S    
Cr2   O26   S    
C83   O18   A    
S3    O34   D    
C33   S2    S    
C7    C8    S    
C53   C54   A    
C45   O2    A    
C68   C75   S    
C20   H2    S    
C11   C19   S    
C73   H26   S    
C63   C81   S    
C60   C63   A    
C47   H11   S    
C5    C6    S    
S2    O31   D    
C19   C21   S    
S1    O28   D    
C18   C19   S    
Cr4   O6    S    
C18   S1    S    
C79   C84   S    
C89   O46   D    
C31   H6    S    
C74   H24   S    
Cr4   O7    S    
C17   C20   S    
Cr5   O8    S    
C90   O47   D    
C51   C56   S    
C73   C74   A    
C14   C77   S    
C7    H25   S    
C56   O24   A    
C61   H18   S    
C53   H17   S    
C88   H40   S    
Cr4   O19   S    
C83   O13   A    
C70   C89   S    
Cr6   O17   S    
C65   H21   S    
C31   C32   S    
C44   C46   A    
C16   C17   S    
S5    O43   D    
C1    C28   S    
O29   H32   S    
C31   C33   S    
C51   C57   A    
C64   C70   A    
Cr3   O23   S    
C47   C50   A    
S4    O41   S    
Cr6   O11   S    
Cr5   O19   S    
C26   H3    S    
C15   C23   S    
C25   H4    S    
Cr5   O15   S    
C55   H19   S    
C86   O37   D    
C87   O38   D    
O36   H35   S    
Cr1   O5    S    
C61   C62   A    
C67   C78   S    
C4    C7    S    
C1    O12   A    
C11   H30   S    
C42   H12   S    
C76   C83   S    
C41   C49   S    
C40   C87   S    
S3    O35   D    
S4    O40   D    
C81   O14   A    
C23   O1    A    
C88   O45   D    
C45   O3    A    
C25   C29   S    
C48   H10   S    
C74   C75   A    
C51   C52   A    
C32   C35   S    
C47   C48   A    
Cr1   O25   S    
C27   C80   S    
C39   C40   A    
C5    C7    S    
C16   C85   S    
C68   C69   A    
C39   H8    S    
C77   O8    A    
C54   C62   S    
C58   C59   A    
C56   O4    A    
C79   O9    A    
Cr6   O18   S    
Cr5   O9    S    
C90   H42   S    
C4    C78   S    
C29   C30   S    
C34   O26   A    
C67   S3    S    
C13   C17   S    
Cr6   O19   S    
O33   H34   S    
C4    C9    S    
S5    O44   S    
C79   O10   A    
C71   H22   S    
C34   C64   S    
C13   C21   S    
Cr1   O1    S    
C87   H37   S    
C44   C86   S    
C32   C37   S    
S1    O27   D    
C77   O7    A    
C3    H29   S    
S5    O42   D    
Cr6   O10   S    
C15   C24   T    
C26   C30   S    
Cr5   O16   S    
C55   C57   A    
C52   H14   S    
C38   C45   S    
C27   C36   T    
C73   C76   A    
C23   O23   A    
C85   O30   D    
C42   C43   A    
C3    C4    S    
C2    C10   T    
Cr3   O4    S    
S3    O36   S    
C52   C53   A    
C50   C82   S    
C81   O15   A    
C54   C55   A    
C40   C41   A    
C30   C33   S    
S2    O33   S    
C3    C67   S    
Cr4   O14   S    
Cr1   O24   S    
C3    C5    S    
C8    H16   S    
C6    C10   S    
C6    C8    S    
C57   H20   S    
C80   O6    A    
C30   C36   S    
C78   H1    S    
C82   O16   A    
C46   C50   A    
C59   C63   A    
C17   C22   S    
C12   O22   A    
C29   H7    S    
C5    H28   S    
C58   H15   S    
C64   C65   A    
C14   C22   T    
S2    O32   D    
C19   C24   S    
C25   C26   S    
C72   C88   S    
C38   C43   A    
C29   C31   S    
O41   H38   S    
C6    C67   S    
C60   S5    S    
C82   O17   A    
C71   C75   A    
C11   C13   S    
C89   H41   S    
C38   C39   A    
C86   H36   S    
C28   C37   T    
C25   C32   S    
C48   C49   A    
C69   H27   S    
C33   C35   S    
C12   O21   A    
Cr2   O21   S    
C18   C20   S    
C21   H31   S    
C69   C70   A    
C43   H13   S    
C11   C16   S    
C1    O20   A    
C9    C84   T    
Cr4   O13   S    
S4    O39   D    
C26   C35   S    
C71   C72   A    
Cr3   O3    S    
C20   C21   S    
C16   C18   S    
C65   C66   A    
Cr2   O2    S    
C13   C90   S    
C60   C61   A    
Cr3   O22   S    
C85   H33   S    
Cr3   O5    S    
O44   H39   S    
C59   S4    S    
Cr2   O20   S    
Cr1   O12   S    
C35   H5    S    
