data_mof_unit_53057.cif
_audit_creation_date              2013-03-05T15:56:37-0500
_audit_creation_method            fapswitch 2.2
_symmetry_space_group_name_H-M    P1
_symmetry_Int_Tables_number       1
_space_group_crystal_system       triclinic
_cell_length_a                    18.957295
_cell_length_b                    18.829458
_cell_length_c                    20.465124
_cell_angle_alpha                 106.653742
_cell_angle_beta                  106.44497
_cell_angle_gamma                 111.361466
_cell_volume                      5871.18290384

loop_
_atom_site_label
_atom_site_type_symbol
_atom_site_description
_atom_site_fract_x
_atom_site_fract_y
_atom_site_fract_z
_atom_type_partial_charge
C1    C     C_R   0.037596 0.090983 0.348209 -0.095533
H1    H     H_    0.059732 0.157874 0.365589 0.104152
N1    N     N_R   0.052570 0.055840 0.395080 -0.047793
C2    C     C_R   0.766501 0.925183 0.511681 -0.016872
H2    H     H_    0.732565 0.859965 0.501089 0.183418
N2    N     N_R   0.834730 0.954500 0.499860 -0.058383
C3    C     C_R   0.837904 0.791623 0.282910 0.442316
N3    N     N_R   0.890190 0.849120 0.355200 -0.105412
C4    C     C_R   0.999313 0.235618 0.567171 -0.093412
H3    H     H_    0.974107 0.251171 0.606977 0.135952
N4    N     N_R   0.997110 0.161210 0.539740 -0.046581
C5    C     C_R   0.760958 0.792093 0.347141 0.504927
N5    N     N_R   0.841940 0.845190 0.395070 -0.105122
C6    C     C_R   0.079788 0.244134 0.506016 -0.142676
H4    H     H_    0.131322 0.269148 0.491752 0.113299
N6    N     N_R   0.045360 0.165140 0.499870 -0.049782
C7    C     C_R   0.832929 0.065079 0.572774 -0.087925
H5    H     H_    0.856630 0.129075 0.613292 0.191747
N7    N     N_R   0.877490 0.041590 0.539730 -0.069022
C8    C     C_R   0.969965 0.950681 0.282001 -0.097822
H6    H     H_    0.933096 0.888921 0.235529 0.176371
N8    N     N_R   0.009810 0.968740 0.355210 -0.041842
C9    C     C_R   0.983353 0.026078 0.276504 0.023214
C10   C     C_R   0.764094 0.992512 0.558755 0.058686
C11   C     C_R   0.755432 0.758424 0.274978 -0.261134
C12   C     C_R   0.053252 0.290641 0.549095 0.048586
C13   C     C_R   0.233421 0.223708 0.646894 -0.194075
H7    H     H_    0.277787 0.248348 0.625065 0.137245
N9    N     N_R   0.158060 0.154810 0.604930 -0.061050
C14   C     C_R   0.973656 0.797986 0.544459 -0.108705
H8    H     H_    0.949189 0.790080 0.584576 0.165514
N10   N     N_R   0.954640 0.834860 0.500130 -0.049301
C15   C     C_R   0.177371 0.931802 0.454900 -0.045153
H9    H     H_    0.159825 0.867699 0.420858 0.182072
N11   N     N_R   0.122510 0.958410 0.460270 -0.065205
C16   C     C_R   0.989233 0.051547 0.712788 -0.097951
H10   H     H_    0.008021 0.114235 0.752396 0.207483
N12   N     N_R   0.990190 0.031260 0.644790 -0.087342
C17   C     C_R   0.916991 0.911706 0.647513 0.529030
N13   N     N_R   0.947430 0.944160 0.604920 -0.095656
C18   C     C_R   0.247702 0.072310 0.523781 -0.133484
H11   H     H_    0.296309 0.137758 0.555973 0.110519
N14   N     N_R   0.165270 0.045500 0.500140 -0.046552
C19   C     C_R   0.156855 0.220236 0.711669 0.348161
N15   N     N_R   0.109810 0.150880 0.644800 -0.087127
C20   C     C_R   0.045148 0.797511 0.475161 -0.053402
H12   H     H_    0.079253 0.780836 0.445456 0.166301
N16   N     N_R   0.002890 0.838790 0.460260 -0.065362
Ni1   Ni    Ni4+2 0.104370 0.104380 0.500010 0.218666
Ni2   Ni    Ni4+2 0.895630 0.895620 0.499990 0.288765
Ni3   Ni    Ni4+2 0.006290 0.904630 0.408560 0.268118
Ni4   Ni    Ni4+2 0.993710 0.095370 0.591440 0.266381
C21   C     C_R   0.235181 0.267142 0.714680 -0.052841
C22   C     C_R   0.033343 0.776849 0.532451 0.070107
C23   C     C_R   0.257352 0.001065 0.497903 0.123200
C24   C     C_R   0.943868 0.977694 0.716460 0.028868
C25   C     C_R   0.141520 0.728815 0.561359 0.489773
C26   C     C_R   0.074524 0.738190 0.571791 0.007242
C27   C     C_R   0.043100 0.705666 0.617049 -0.197038
C28   C     C_R   0.061760 0.647054 0.635889 -0.120830
C29   C     C_R   0.112494 0.620833 0.607933 -0.012306
C30   C     C_R   0.155871 0.664280 0.573659 -0.044013
C31   C     C_R   0.024340 0.608363 0.675713 0.283646
C32   C     C_R   0.026470 0.535402 0.677270 0.391305
C33   C     C_R   0.067484 0.501877 0.639898 -0.070685
C34   C     C_R   0.114299 0.547288 0.608781 0.013672
C35   C     C_R   0.156825 0.515098 0.572551 0.008701
C36   C     C_R   0.207780 0.563472 0.546017 0.329863
C37   C     C_R   0.205995 0.637061 0.546117 -0.277916
C38   C     C_R   0.058505 0.421772 0.628705 -0.166433
C39   C     C_R   0.085972 0.382956 0.579818 0.076417
C40   C     C_R   0.139488 0.431488 0.556057 -0.155718
H13   H     H_    0.998829 0.720692 0.632643 0.183631
H14   H     H_    0.024655 0.386975 0.653235 0.142998
H15   H     H_    0.162188 0.402224 0.519641 0.156401
H16   H     H_    0.240571 0.669627 0.520435 0.208213
C41   C     C_R   0.406874 0.063463 0.586194 -0.311833
C42   C     C_R   0.335373 0.996256 0.521328 -0.004502
C43   C     C_R   0.337066 0.922306 0.482285 0.525002
C44   C     C_R   0.405584 0.911141 0.515081 -0.163740
C45   C     C_R   0.480163 0.982555 0.574797 -0.036946
C46   C     C_R   0.480768 0.058886 0.610320 0.162594
C47   C     C_R   0.402910 0.831887 0.487494 0.513075
C48   C     C_R   0.478468 0.829277 0.507832 -0.312210
C49   C     C_R   0.554517 0.904245 0.554846 0.080337
C50   C     C_R   0.555746 0.979905 0.593339 0.039055
C51   C     C_R   0.633095 0.054880 0.643462 -0.056374
C52   C     C_R   0.631818 0.128959 0.682815 -0.151772
C53   C     C_R   0.555882 0.130267 0.667196 -0.133543
C54   C     C_R   0.628142 0.906916 0.554869 -0.284487
C55   C     C_R   0.701901 0.984942 0.589734 0.087874
C56   C     C_R   0.708294 0.055591 0.644411 0.437080
H17   H     H_    0.406440 0.120758 0.616320 0.154895
H18   H     H_    0.478311 0.770169 0.482188 0.161060
H19   H     H_    0.623900 0.849694 0.518390 0.167633
H20   H     H_    0.688873 0.187997 0.721615 0.157146
H21   H     H_    0.556728 0.188987 0.695670 0.152108
C57   C     C_R   0.300506 0.354370 0.767520 0.109423
C58   C     C_R   0.280316 0.416181 0.799439 -0.093417
C59   C     C_R   0.344018 0.495703 0.855356 -0.181306
C60   C     C_R   0.428625 0.514508 0.878627 0.130656
C61   C     C_R   0.449482 0.457190 0.838374 0.311119
C62   C     C_R   0.384636 0.376532 0.783845 -0.272066
C63   C     C_R   0.596758 0.719757 0.091921 0.358220
C64   C     C_R   0.671211 0.756577 0.157644 -0.284422
C65   C     C_R   0.531354 0.639275 0.072761 0.107165
N17   N     N_2   0.491231 0.580264 0.950120 -0.009854
N18   N     N_2   0.464852 0.587921 0.999633 -0.049476
C66   C     C_R   0.679337 0.715649 0.204471 0.091275
H22   H     H_    0.722274 0.818134 0.173595 0.162091
H23   H     H_    0.399758 0.329723 0.755925 0.178762
C67   C     C_R   0.612557 0.638666 0.187243 -0.158817
C68   C     C_R   0.538714 0.601054 0.121877 -0.188178
H24   H     H_    0.618156 0.607327 0.223824 0.157316
H25   H     H_    0.327482 0.540695 0.884044 0.181287
H26   H     H_    0.488748 0.539246 0.106894 0.170488
H27   H     H_    0.215656 0.402577 0.783044 0.171118
C69   C     C_R   0.941779 0.035233 0.209297 0.115026
C70   C     C_R   0.870859 0.964907 0.146179 -0.137444
C71   C     C_R   0.839324 0.970739 0.078929 -0.060841
C72   C     C_R   0.879060 0.047207 0.073914 0.203791
C73   C     C_R   0.941759 0.119821 0.139649 -0.104913
C74   C     C_R   0.973739 0.113976 0.206854 -0.142944
C75   C     C_R   0.953744 0.015178 0.909772 0.222118
C76   C     C_R   0.978456 0.012682 0.851246 0.164547
C77   C     C_R   0.867482 0.980971 0.893220 0.068603
N19   N     N_2   0.876279 0.048967 0.004585 -0.049030
N20   N     N_2   0.842164 0.977382 0.951085 -0.040727
C78   C     C_R   0.916742 0.974967 0.776268 -0.175993
H28   H     H_    0.972795 0.179046 0.136715 0.156478
H29   H     H_    0.027252 0.169968 0.254887 0.131888
C79   C     C_R   0.830685 0.940547 0.759793 0.528272
C80   C     C_R   0.806741 0.942699 0.818859 -0.367096
H30   H     H_    0.789250 0.913672 0.029347 0.177971
H31   H     H_    0.740890 0.915383 0.807267 0.173980
H32   H     H_    0.842145 0.904223 0.147198 0.136135
O1    O     O_3   0.854694 0.829398 0.618812 -0.736730
H33   H     H_    0.848043 0.818861 0.661973 0.351246
N21   N     N_R   0.123644 0.250264 0.761322 0.208290
O2    O     O_R   0.167939 0.285682 0.834310 -0.351046
O3    O     O_R   0.049872 0.244382 0.733830 -0.446959
O4    O     O_3   0.188941 0.780504 0.536828 -0.765106
H34   H     H_    0.247739 0.792224 0.560689 0.330665
N22   N     N_R   0.977608 0.638050 0.709340 0.261121
O5    O     O_R   0.902858 0.621579 0.666547 -0.365308
O6    O     O_R   0.002167 0.665880 0.782112 -0.284564
O7    O     O_3   0.982876 0.495458 0.711186 -0.665043
H35   H     H_    0.943235 0.435834 0.673545 0.319352
N23   N     N_R   0.260019 0.537943 0.517302 0.235636
O8    O     O_R   0.304755 0.510799 0.553028 -0.380634
O9    O     O_R   0.272873 0.553671 0.462567 -0.379338
O10   O     O_3   0.276155 0.866788 0.409304 -0.730254
H36   H     H_    0.302692 0.844903 0.379226 0.356052
O11   O     O_3   0.326729 0.758642 0.440973 -0.716454
H37   H     H_    0.336624 0.709270 0.428054 0.346768
O12   O     O_3   0.864483 0.758438 0.231756 -0.745377
H38   H     H_    0.813880 0.712532 0.185152 0.343068
O13   O     O_3   0.786567 0.124651 0.693273 -0.756526
H39   H     H_    0.785498 0.151712 0.741908 0.330022
N24   N     N_R   0.587835 0.763982 0.045829 0.249981
O14   O     O_R   0.653864 0.825087 0.051655 -0.407241
O15   O     O_R   0.513724 0.749355 0.003404 -0.359487
N25   N     N_R   0.535878 0.477539 0.856951 0.248979
O16   O     O_R   0.554948 0.417887 0.834812 -0.369086
O17   O     O_R   0.595402 0.556063 0.890913 -0.340906
N26   N     N_R   0.065796 0.043998 0.867353 0.265716
O18   O     O_R   0.089988 0.995469 0.831574 -0.358307
O19   O     O_R   0.120653 0.122454 0.914612 -0.281947
N27   N     N_R   0.015410 0.045540 0.985076 0.263281
O20   O     O_R   0.065826 0.126452 0.026270 -0.319060
O21   O     O_R   0.013435 0.993707 0.015941 -0.344835
O22   O     O_3   0.771521 0.906500 0.686172 -0.742299
H40   H     H_    0.714610 0.884411 0.684581 0.326583
O23   O     O_3   0.696725 0.775944 0.368918 -0.769461
H41   H     H_    0.642700 0.738544 0.323094 0.328048

loop_
_geom_bond_atom_site_label_1
_geom_bond_atom_site_label_2
_geom_bond_distance
_ccdc_geom_bond_type
C60   N17   1.410775 S    
C14   N10   1.339117 A    
C64   H22   1.083474 S    
C17   O1    1.376127 S    
C15   C23   1.385778 A    
N3    N5    1.384108 A    
C13   N9    1.333453 A    
C18   N14   1.337223 A    
N27   O20   1.300832 A    
O7    H35   0.990187 S    
C51   C52   1.409475 A    
C9    C69   1.470948 S    
C63   C65   1.415237 A    
C45   C46   1.406683 A    
N1    Ni1   1.854257 S    
C3    N3    1.346556 A    
C47   O11   1.382785 S    
N9    Ni1   1.854178 S    
C49   C50   1.404585 A    
C71   C72   1.410491 A    
N2    N7    1.379199 A    
C14   C22   1.388733 A    
C60   C61   1.409051 A    
C46   C53   1.399862 A    
C25   O4    1.380445 S    
C28   C31   1.410457 A    
C5    O23   1.374438 S    
C16   H10   1.076584 S    
N25   O17   1.301548 A    
C72   N19   1.415194 S    
N23   O9    1.301507 A    
C22   C26   1.476983 S    
C14   H8    1.070842 S    
C2    C10   1.380023 A    
N8    Ni3   1.841669 S    
N12   Ni4   1.841669 S    
C57   C62   1.401055 A    
C57   C58   1.399334 A    
C37   H16   1.081147 S    
C56   O13   1.378981 S    
C35   C40   1.398617 A    
C18   H11   1.079570 S    
O4    H34   0.990189 S    
C69   C70   1.403188 A    
C67   C68   1.387500 A    
N4    Ni4   1.841950 S    
C15   N11   1.325702 A    
O23   H41   0.988204 S    
N7    Ni4   1.854681 S    
N16   Ni3   1.841952 S    
C18   C23   1.392825 A    
C3    O12   1.375977 S    
C47   C48   1.397429 A    
C77   C80   1.391359 A    
C36   C37   1.397744 A    
C38   H14   1.075976 S    
C31   N22   1.434018 S    
C38   C39   1.399764 A    
C36   N23   1.439286 S    
N11   N14   1.379198 A    
C4    H3    1.078592 S    
C27   H13   1.076621 S    
C24   C78   1.462302 S    
C11   C66   1.456241 S    
C78   C79   1.410054 A    
C52   C53   1.394591 A    
C34   C35   1.415585 A    
C27   C28   1.393867 A    
C31   C32   1.398138 A    
C51   C56   1.415310 A    
N26   O19   1.300638 A    
C12   C39   1.472699 S    
N10   N16   1.384110 A    
C61   C62   1.398155 A    
C59   H25   1.083163 S    
C63   N24   1.440264 S    
C40   H15   1.078502 S    
C29   C34   1.402539 A    
C67   H24   1.083429 S    
C63   C64   1.399888 A    
C4    C12   1.384873 A    
C7    H5    1.078631 S    
C49   C54   1.378063 A    
C20   N16   1.337923 A    
C7    C10   1.384411 A    
C72   C73   1.395879 A    
C75   N27   1.434074 S    
C65   C68   1.398626 A    
C35   C36   1.413188 A    
C54   H19   1.080081 S    
C48   C49   1.396579 A    
C2    N2    1.330327 A    
C66   C67   1.394866 A    
C55   C56   1.410314 A    
C23   C42   1.465154 S    
C42   C43   1.409866 A    
C79   C80   1.401723 A    
N15   Ni4   1.854238 S    
C25   C30   1.411156 A    
C26   C27   1.399843 A    
C41   C42   1.403461 A    
N2    Ni2   1.869343 S    
N5    Ni2   1.854181 S    
C30   C37   1.405616 A    
N9    N15   1.384114 A    
C28   C29   1.411281 A    
C1    N1    1.336053 A    
N24   O15   1.301521 A    
C16   C24   1.379979 A    
C58   H27   1.081608 S    
N4    N6    1.384113 A    
C17   C24   1.386099 A    
C8    C9    1.392039 A    
N17   N18   1.246316 D    
C20   C22   1.386622 A    
C15   H9    1.071084 S    
C19   C21   1.396523 A    
C61   N25   1.442450 S    
C48   H18   1.084448 S    
C6    C12   1.388049 A    
C70   C71   1.390037 A    
C4    N4    1.331589 A    
N3    Ni3   1.854241 S    
N10   Ni2   1.868899 S    
O11   H37   0.991755 S    
N22   O6    1.300650 A    
C8    N8    1.345741 A    
C1    C9    1.380798 A    
C19   N21   1.428599 S    
C32   O7    1.378995 S    
N11   Ni3   1.854678 S    
O13   H39   0.989416 S    
C6    N6    1.339125 A    
C54   C55   1.400170 A    
N19   N20   1.245810 D    
C10   C55   1.471355 S    
N6    Ni1   1.868899 S    
O22   H40   0.991699 S    
C75   C77   1.413430 A    
N27   O21   1.301175 A    
C64   C66   1.400800 A    
C20   H12   1.071047 S    
O12   H38   0.991178 S    
C77   N20   1.407587 S    
C74   H29   1.081271 S    
C50   C51   1.416210 A    
N14   Ni1   1.869346 S    
C19   N15   1.345267 A    
C45   C50   1.398085 A    
C44   C45   1.412582 A    
N21   O2    1.300741 A    
C13   C21   1.377698 A    
C62   H23   1.083357 S    
C21   C57   1.463772 S    
O1    H33   0.990334 S    
C70   H32   1.081371 S    
C3    C11   1.395577 A    
C58   C59   1.388551 A    
C5    C11   1.386112 A    
N22   O5    1.301048 A    
N24   O14   1.300967 A    
C68   H26   1.083331 S    
C16   N12   1.340669 A    
C76   N26   1.437403 S    
C39   C40   1.399813 A    
N23   O8    1.301492 A    
C32   C33   1.416149 A    
N12   N13   1.379351 A    
N21   O3    1.300229 A    
C25   C26   1.408929 A    
N26   O18   1.301307 A    
C65   N18   1.406531 S    
C41   C46   1.390777 A    
N13   Ni2   1.854257 S    
C1    H1    1.078279 S    
C41   H17   1.082651 S    
C44   C47   1.412126 A    
C7    N7    1.338170 A    
C52   H20   1.080751 S    
C71   H30   1.082562 S    
C69   C74   1.404703 A    
C29   C30   1.415210 A    
N25   O16   1.301701 A    
C43   C44   1.402869 A    
C17   N13   1.341437 A    
C76   C78   1.407585 A    
C2    H2    1.077884 S    
C8    H6    1.069094 S    
C33   C34   1.415466 A    
C53   H21   1.083880 S    
C13   H7    1.081420 S    
C80   H31   1.083450 S    
C6    H4    1.080056 S    
C43   O10   1.380628 S    
N1    N8    1.379353 A    
C59   C60   1.407791 A    
O10   H36   0.991345 S    
C79   O22   1.380148 S    
C5    N5    1.336290 A    
C73   C74   1.390884 A    
C73   H28   1.083398 S    
C33   C38   1.396198 A    
C75   C76   1.399192 A    
