data_mof_unit_7591.cif
_audit_creation_date              2012-12-10T16:50:09-0500
_audit_creation_method            fapswitch 2.2
_symmetry_space_group_name_H-M    P1
_symmetry_Int_Tables_number       1
_space_group_crystal_system       triclinic
_cell_length_a                    23.535417
_cell_length_b                    8.822758
_cell_length_c                    7.548161
_cell_angle_alpha                 103.678771
_cell_angle_beta                  93.735365
_cell_angle_gamma                 92.533237
_cell_volume                      1516.7903984

loop_
_atom_site_label
_atom_site_type_symbol
_atom_type_description
_atom_site_fract_x
_atom_site_fract_y
_atom_site_fract_z
_atom_type_partial_charge
C1    C     C_R   0.498499 0.200466 0.453418 0.848241
C2    C     C_R   0.502074 0.799611 0.546575 0.852338
C3    C     C_R   0.244701 0.637491 0.460669 0.419081
C4    C     C_R   0.754137 0.438759 0.319596 0.425389
C5    C     C_R   0.303589 0.641587 0.504305 0.310434
C6    C     C_R   0.696262 0.413882 0.343426 0.419149
C7    C     C_R   0.329472 0.502068 0.508962 -0.247663
C8    C     C_R   0.671061 0.512959 0.489489 -0.291965
C9    C     C_R   0.294868 0.365741 0.503059 -0.123465
C10   C     C_R   0.706435 0.620881 0.624905 -0.124246
C11   C     C_R   0.235945 0.378289 0.514099 -0.223567
C12   C     C_R   0.765573 0.617766 0.619978 -0.266692
C13   C     C_R   0.209575 0.510982 0.484536 0.115964
C14   C     C_R   0.790147 0.528933 0.468126 0.123743
C15   C     C_2   0.490771 0.033353 0.431624 -0.228257
C16   C     C_2   0.510130 0.966828 0.568495 -0.277584
C17   C     C_R   0.391557 0.500121 0.502961 0.935361
C18   C     C_R   0.608642 0.503791 0.497270 0.859963
C19   C     C_R   0.884254 0.665885 0.512780 0.514496
C20   C     C_R   0.114095 0.384705 0.385531 0.525970
C21   C     C_R   0.876725 0.386801 0.425588 0.589081
C22   C     C_R   0.122847 0.649378 0.559888 0.584495
C23   C     C_R   0.935643 0.382903 0.411216 -0.044955
C24   C     C_R   0.063510 0.657697 0.546332 -0.040192
C25   C     C_R   0.969544 0.523220 0.468195 -0.021552
C26   C     C_R   0.029316 0.520835 0.469151 -0.018879
C27   C     C_R   0.943905 0.665700 0.525733 -0.016839
C28   C     C_R   0.054718 0.381446 0.393798 -0.014175
C29   C     C_R   0.961419 0.242445 0.342894 -0.176973
C30   C     C_R   0.037671 0.799053 0.610099 -0.191776
C31   C     C_R   0.020248 0.242629 0.328812 -0.169468
C32   C     C_R   0.978414 0.803853 0.594548 -0.164409
Cu1   Cu    Cu3+1 0.506340 0.517380 0.684380 1.059595
Cu2   Cu    Cu3+1 0.493660 0.482620 0.315620 1.058441
H1    H     H_    0.936137 0.132870 0.296275 0.192058
H2    H     H_    0.063125 0.906788 0.668338 0.187953
H3    H     H_    0.038730 0.133200 0.272195 0.173727
H4    H     H_    0.959778 0.915049 0.641132 0.187079
H5    H     H_    0.210045 0.280308 0.534464 0.237494
H6    H     H_    0.792799 0.690244 0.731906 0.222710
N1    N     N_R   0.851532 0.527244 0.467814 -0.436895
N2    N     N_R   0.147789 0.515448 0.475512 -0.432544
N3    N     N_2   0.484110 0.456420 0.038520 -0.232699
N4    N     N_2   0.515890 0.543580 0.961480 -0.237632
O1    O     O_R   0.504120 0.286130 0.619770 -0.560834
O2    O     O_R   0.495880 0.713870 0.380230 -0.569817
O3    O     O_R   0.493410 0.256770 0.308360 -0.556820
O4    O     O_R   0.506590 0.743230 0.691640 -0.550041
O5    O     O_R   0.423230 0.514630 0.655730 -0.605624
O6    O     O_R   0.576770 0.485370 0.344270 -0.580872
O7    O     O_R   0.412530 0.485280 0.344320 -0.566979
O8    O     O_R   0.587470 0.514720 0.655680 -0.564409
O9    O     O_2   0.859308 0.803549 0.543921 -0.546153
O10   O     O_2   0.137552 0.258635 0.285875 -0.556529
O11   O     O_2   0.845103 0.251019 0.399180 -0.531899
O12   O     O_2   0.154981 0.774667 0.658562 -0.560440
O13   O     O_3   0.221877 0.758622 0.398213 -0.524822
C33   C     C_3   0.211092 0.708488 0.206290 0.059515
H7    H     H_    0.186182 0.593475 0.163594 0.140370
H8    H     H_    0.252230 0.696900 0.140704 0.119214
C34   C     C_3   0.177414 0.828156 0.133865 -0.308124
H9    H     H_    0.200571 0.944757 0.173820 0.274536
H10   H     H_    0.173564 0.791058 0.982992 0.212989
C35   C     C_3   0.117657 0.840553 0.201021 -0.690075
H11   H     H_    0.094794 0.723408 0.172254 0.218736
H12   H     H_    0.093040 0.915275 0.128688 0.232215
H13   H     H_    0.120141 0.894642 0.350048 0.287167
O14   O     O_3   0.775741 0.355335 0.161287 -0.566985
C36   C     C_3   0.799369 0.458277 0.063203 0.078070
H14   H     H_    0.816282 0.573186 0.151903 0.159733
H15   H     H_    0.765567 0.483112 0.965824 0.173895
C37   C     C_3   0.847453 0.379008 0.954877 -0.322007
H16   H     H_    0.868395 0.298963 0.028858 0.252899
H17   H     H_    0.829275 0.307704 0.819865 0.226897
C38   C     C_3   0.893091 0.497471 0.926186 -0.889198
H18   H     H_    0.873639 0.584264 0.860061 0.257467
H19   H     H_    0.924956 0.436151 0.837546 0.260215
H20   H     H_    0.915408 0.559495 0.059621 0.258399
O15   O     O_3   0.336030 0.780382 0.529810 -0.579751
C39   C     C_3   0.348660 0.844802 0.719804 0.091156
H21   H     H_    0.388289 0.921584 0.736723 0.216072
H22   H     H_    0.357860 0.754758 0.797903 0.150741
C40   C     C_3   0.300442 0.943625 0.802131 -0.368201
H23   H     H_    0.294940 0.041469 0.735667 0.260597
H24   H     H_    0.259781 0.871139 0.779957 0.264302
C41   C     C_3   0.312643 0.010927 0.006544 -0.881787
H25   H     H_    0.310360 0.914873 0.077480 0.255657
H26   H     H_    0.279982 0.094322 0.056922 0.276989
H27   H     H_    0.355383 0.073454 0.038353 0.296647
O16   O     O_3   0.665478 0.290844 0.221841 -0.556983
C42   C     C_3   0.653205 0.168269 0.309177 0.063482
H28   H     H_    0.624128 0.080312 0.211165 0.192111
H29   H     H_    0.628638 0.207459 0.430214 0.167989
C43   C     C_3   0.706533 0.084748 0.356782 -0.383070
H30   H     H_    0.695124 0.957856 0.333522 0.185778
H31   H     H_    0.740548 0.098305 0.265558 0.294139
C44   C     C_3   0.729819 0.140630 0.556768 -0.703724
H32   H     H_    0.698980 0.107199 0.647693 0.274093
H33   H     H_    0.738948 0.268788 0.596804 0.236981
H34   H     H_    0.769972 0.083421 0.577585 0.278081
C45   C     C_2   0.316838 0.207249 0.468008 0.819856
O17   O     O_2   0.367910 0.188411 0.468969 -0.619886
O18   O     O_R   0.278133 0.077273 0.422536 -0.755092
H35   H     H_    0.297803 0.976424 0.386901 0.395842
C46   C     C_2   0.683809 0.743485 0.768085 0.922837
O19   O     O_2   0.640206 0.805351 0.734954 -0.609244
O20   O     O_R   0.714183 0.794700 0.938481 -0.780400
H36   H     H_    0.695352 0.882995 0.019848 0.326173
C47   C     C_2   0.453223 0.947489 0.267946 0.956873
O21   O     O_2   0.463124 0.961069 0.115474 -0.534209
O22   O     O_R   0.406351 0.852529 0.288942 -0.712845
H37   H     H_    0.387045 0.791479 0.167690 0.337571
C48   C     C_2   0.547508 0.052285 0.732959 0.976214
O23   O     O_2   0.537493 0.037265 0.884808 -0.494321
O24   O     O_R   0.594820 0.146450 0.713610 -0.789773
H38   H     H_    0.616624 0.197288 0.834984 0.371362
C49   C     C_2   0.429684 0.401374 0.952586 1.131101
O25   O     O_2   0.389647 0.485712 0.977360 -0.646708
O26   O     O_R   0.420781 0.246023 0.855168 -0.749935
H39   H     H_    0.379271 0.218000 0.811670 0.314883
C50   C     C_2   0.570405 0.597908 0.048231 1.153893
O27   O     O_2   0.610704 0.515219 0.017989 -0.592505
O28   O     O_R   0.578835 0.749791 0.157375 -0.764772
H40   H     H_    0.619487 0.774153 0.212984 0.290767

loop_
_geom_bond_atom_site_label_1
_geom_bond_atom_site_label_2
_ccdc_geom_bond_type
C45   O17   D    
C36   C37   S    
Cu1   O1    S    
C15   C47   S    
O22   H37   S    
C38   H18   S    
C16   C48   S    
C17   O7    A    
C44   H32   S    
O16   C42   S    
C18   O8    A    
O28   H40   S    
C2    O2    A    
Cu1   O8    S    
C46   O20   S    
Cu2   O7    S    
C23   C29   A    
C24   C26   A    
C36   H14   S    
C39   C40   S    
C39   H21   S    
C41   H26   S    
C33   H8    S    
O24   H38   S    
N4    C50   S    
C36   H15   S    
C34   H10   S    
C47   O22   S    
O14   C36   S    
C7    C17   S    
O20   H36   S    
C1    C15   S    
C32   H4    S    
C5    O15   S    
C2    C16   S    
C3    C13   A    
C19   O9    S    
C33   C34   S    
C45   O18   S    
C9    C45   S    
C34   H9    S    
C37   C38   S    
C13   N2    S    
C44   H33   S    
C5    C7    A    
Cu2   O6    S    
C35   H13   S    
C37   H17   S    
C17   O5    A    
C42   H28   S    
C21   O11   S    
C41   H25   S    
C1    O3    A    
C22   O12   S    
C20   C28   A    
C43   C44   S    
C2    O4    A    
C33   H7    S    
C6    O16   S    
C8    C18   S    
C31   H3    S    
C35   H12   S    
C12   H6    S    
C34   C35   S    
C11   H5    S    
N3    N4    D    
C42   H29   S    
C38   H19   S    
C20   N2    A    
C40   H23   S    
Cu1   Cu2   S    
C43   H31   S    
C9    C11   A    
C50   O27   D    
C10   C12   A    
N3    C49   S    
C14   N1    S    
Cu2   O2    S    
C3    O13   S    
C20   O10   S    
C40   H24   S    
C12   C14   A    
C21   C23   A    
C21   N1    A    
C4    C6    A    
C44   H34   S    
C19   C27   A    
C18   O6    A    
C4    O14   S    
C48   O23   D    
C7    C9    A    
C27   C32   A    
Cu1   N4    S    
C28   C31   A    
Cu2   N3    S    
C37   H16   S    
C3    C5    A    
C41   H27   S    
C6    C8    A    
O26   H39   S    
C25   C27   A    
C46   O19   D    
C29   H1    S    
C26   C28   A    
C30   H2    S    
C35   H11   S    
C49   O26   S    
C25   C26   A    
C29   C31   A    
C49   O25   D    
C42   C43   S    
C30   C32   A    
C11   C13   A    
C1    O1    A    
O13   C33   S    
C22   N2    A    
C39   H22   S    
C22   C24   A    
C23   C25   A    
C4    C14   A    
C43   H30   S    
C38   H20   S    
C24   C30   A    
C50   O28   S    
O15   C39   S    
C19   N1    A    
C40   C41   S    
C8    C10   A    
O18   H35   S    
Cu1   O4    S    
C10   C46   S    
Cu2   O3    S    
C47   O21   D    
Cu1   O5    S    
C15   C16   D    
C48   O24   S    
