data_mof_unit_6971.cif
_audit_creation_date              2012-12-11T14:01:20-0500
_audit_creation_method            fapswitch 2.2
_symmetry_space_group_name_H-M    P1
_symmetry_Int_Tables_number       1
_space_group_crystal_system       triclinic
_cell_length_a                    19.003713
_cell_length_b                    10.948582
_cell_length_c                    18.705359
_cell_angle_alpha                 89.959697
_cell_angle_beta                  90.401554
_cell_angle_gamma                 90.039822
_cell_volume                      3891.80892106

loop_
_atom_site_label
_atom_site_type_symbol
_atom_type_description
_atom_site_fract_x
_atom_site_fract_y
_atom_site_fract_z
_atom_type_partial_charge
C1    C     C_R   0.272056 0.043765 0.852810 0.558029
C2    C     C_R   0.727946 0.043804 0.147195 0.558314
C3    C     C_R   0.772056 0.543765 0.852810 0.558029
C4    C     C_R   0.227946 0.543804 0.147195 0.558314
C5    C     C_R   0.489451 0.058189 0.073446 -0.079210
C6    C     C_R   0.510625 0.058147 0.926454 -0.079688
C7    C     C_R   0.989451 0.558189 0.073446 -0.079210
C8    C     C_R   0.010625 0.558148 0.926454 -0.079688
C9    C     C_R   0.994133 0.668367 0.036460 -0.126087
C10   C     C_R   0.006060 0.668346 0.963337 -0.126105
C11   C     C_R   0.494133 0.168367 0.036460 -0.126087
C12   C     C_R   0.506060 0.168346 0.963337 -0.126105
C13   C     C_2   0.250018 0.575997 0.920142 0.091658
C14   C     C_2   0.749992 0.576028 0.079903 0.090935
C15   C     C_2   0.750018 0.075997 0.920142 0.091658
C16   C     C_2   0.249992 0.076028 0.079903 0.090936
C17   C     C_2   0.252169 0.593012 0.079589 -0.077462
C18   C     C_2   0.747856 0.592873 0.920402 -0.077011
C19   C     C_2   0.752169 0.093012 0.079589 -0.077462
C20   C     C_2   0.247856 0.092873 0.920402 -0.077011
C21   C     C_2   0.297404 0.529275 0.039506 -0.134663
C22   C     C_2   0.702647 0.529021 0.960565 -0.133981
C23   C     C_2   0.797404 0.029275 0.039506 -0.134663
C24   C     C_2   0.202647 0.029021 0.960565 -0.133981
C25   C     C_2   0.305811 0.558171 0.963834 -0.108141
C26   C     C_2   0.694214 0.557994 0.036211 -0.108739
C27   C     C_2   0.805811 0.058171 0.963834 -0.108140
C28   C     C_2   0.194214 0.057994 0.036211 -0.108739
C29   C     C_2   0.452346 0.829871 0.565112 -0.096559
C30   C     C_2   0.481444 0.837155 0.411946 -0.103466
C31   C     C_2   0.952346 0.329871 0.565112 -0.096559
C32   C     C_2   0.981444 0.337155 0.411946 -0.103466
C33   C     C_2   0.456522 0.738177 0.445690 -0.147022
C34   C     C_2   0.432369 0.741595 0.519826 -0.161532
C35   C     C_2   0.956522 0.238177 0.445690 -0.147022
C36   C     C_2   0.932369 0.241595 0.519826 -0.161532
C37   C     C_2   0.254802 0.615261 0.568685 -0.113713
C38   C     C_2   0.729663 0.660645 0.436536 -0.107419
C39   C     C_2   0.754803 0.115261 0.568685 -0.113713
C40   C     C_2   0.229663 0.160645 0.436536 -0.107419
C41   C     C_2   0.258394 0.606182 0.413591 -0.092174
C42   C     C_2   0.741219 0.616222 0.589182 -0.088203
C43   C     C_2   0.758394 0.106182 0.413591 -0.092174
C44   C     C_2   0.241219 0.116222 0.589182 -0.088203
C45   C     C_R   0.472003 0.822437 0.852915 0.543450
C46   C     C_R   0.527951 0.822442 0.147118 0.533868
C47   C     C_R   0.972003 0.322437 0.852915 0.543450
C48   C     C_R   0.027951 0.322442 0.147118 0.533868
C49   C     C_2   0.225955 0.695440 0.449271 0.071848
C50   C     C_2   0.773713 0.710583 0.556466 0.071262
C51   C     C_2   0.725955 0.195440 0.449271 0.071848
C52   C     C_2   0.273713 0.210583 0.556466 0.071262
C53   C     C_2   0.240606 0.710529 0.525173 -0.135920
C54   C     C_2   0.755571 0.743023 0.482523 -0.150067
C55   C     C_2   0.740606 0.210529 0.525173 -0.135920
C56   C     C_2   0.255572 0.243023 0.482523 -0.150067
C57   C     C_R   0.261104 0.635481 0.851308 0.558033
C58   C     C_R   0.738889 0.635494 0.148696 0.564155
C59   C     C_R   0.761104 0.135481 0.851308 0.558033
C60   C     C_R   0.238889 0.135494 0.148696 0.564155
C61   C     C_R   0.270757 0.050548 0.650104 0.553167
C62   C     C_R   0.729401 0.049493 0.350015 0.556849
C63   C     C_R   0.770757 0.550548 0.650104 0.553167
C64   C     C_R   0.229401 0.549493 0.350015 0.556849
C65   C     C_R   0.436385 0.819621 0.640316 0.563832
C66   C     C_R   0.526962 0.824126 0.350270 0.545444
C67   C     C_R   0.936385 0.319621 0.640316 0.563832
C68   C     C_R   0.026962 0.324126 0.350270 0.545444
C69   C     C_R   0.261305 0.641209 0.644018 0.558130
C70   C     C_R   0.724805 0.690602 0.361589 0.574411
C71   C     C_R   0.761305 0.141209 0.644018 0.558130
C72   C     C_R   0.224805 0.190602 0.361589 0.574410
C73   C     C_R   0.499761 0.831686 0.074656 0.000041
C74   C     C_R   0.500005 0.831632 0.925451 -0.001584
C75   C     C_R   0.999761 0.331686 0.074656 0.000041
C76   C     C_R   0.000005 0.331632 0.925451 -0.001584
C77   C     C_R   0.497151 0.945068 0.037675 0.043006
C78   C     C_R   0.502770 0.945042 0.962325 0.041748
C79   C     C_R   0.997151 0.445068 0.037675 0.043006
C80   C     C_R   0.002770 0.445042 0.962325 0.041747
C81   C     C_R   0.501351 0.721963 0.963711 -0.158975
C82   C     C_R   0.498080 0.721998 0.036518 -0.158418
C83   C     C_R   0.001351 0.221963 0.963711 -0.158975
C84   C     C_R   0.998080 0.221998 0.036518 -0.158418
Cr1   Cr    Cr6+3 0.230530 0.836340 0.748870 1.027248
Cr2   Cr    Cr6+3 0.769470 0.836340 0.251130 1.022914
Cr3   Cr    Cr6+3 0.730530 0.336340 0.748870 1.027248
Cr4   Cr    Cr6+3 0.269470 0.336340 0.251130 1.022914
Cr5   Cr    Cr6+3 0.387420 0.989430 0.750820 1.052337
Cr6   Cr    Cr6+3 0.612580 0.989430 0.249180 1.047852
Cr7   Cr    Cr6+3 0.887420 0.489430 0.750820 1.052337
Cr8   Cr    Cr6+3 0.112580 0.489430 0.249180 1.047852
Cr9   Cr    Cr6+3 0.385640 0.677860 0.749230 1.043656
Cr10  Cr    Cr6+3 0.614360 0.677860 0.250770 1.045220
Cr11  Cr    Cr6+3 0.885640 0.177860 0.749230 1.043656
Cr12  Cr    Cr6+3 0.114360 0.177860 0.250770 1.045220
H1    H     H_    0.500407 0.633831 0.937355 0.137114
H2    H     H_    0.498814 0.633888 0.062975 0.136796
H3    H     H_    0.000408 0.133831 0.937355 0.137113
H4    H     H_    0.998814 0.133888 0.062975 0.136796
H5    H     H_    0.233289 0.801603 0.547099 0.163225
H6    H     H_    0.771788 0.832117 0.462972 0.142561
H7    H     H_    0.733289 0.301603 0.547099 0.163225
H8    H     H_    0.271788 0.332117 0.462972 0.142561
H9    H     H_    0.303457 0.560380 0.437717 0.080829
H10   H     H_    0.693409 0.577663 0.566480 0.094668
H11   H     H_    0.803457 0.060380 0.437717 0.080828
H12   H     H_    0.193409 0.077663 0.566480 0.094668
H13   H     H_    0.261561 0.522821 0.549322 0.110650
H14   H     H_    0.714957 0.569171 0.452775 0.132839
H15   H     H_    0.761561 0.022821 0.549322 0.110650
H16   H     H_    0.214957 0.069171 0.452775 0.132839
H17   H     H_    0.476922 0.063005 0.129640 0.128978
H18   H     H_    0.523180 0.062944 0.870263 0.130985
H19   H     H_    0.976922 0.563005 0.129640 0.128978
H20   H     H_    0.023180 0.562944 0.870263 0.130985
H21   H     H_    0.988582 0.754037 0.064720 0.107517
H22   H     H_    0.011718 0.753999 0.934998 0.108413
H23   H     H_    0.488582 0.254037 0.064720 0.107517
H24   H     H_    0.511719 0.253999 0.934998 0.108413
H25   H     H_    0.326565 0.452125 0.061062 0.140203
H26   H     H_    0.673504 0.451771 0.939086 0.140493
H27   H     H_    0.826565 0.952125 0.061062 0.140203
H28   H     H_    0.173504 0.951771 0.939086 0.140493
H29   H     H_    0.359243 0.571286 0.945031 0.126041
H30   H     H_    0.640774 0.570972 0.054988 0.126068
H31   H     H_    0.859243 0.071286 0.945031 0.126041
H32   H     H_    0.140774 0.070972 0.054988 0.126068
H33   H     H_    0.224961 0.672000 0.057541 0.131330
H34   H     H_    0.775059 0.671943 0.942373 0.131293
H35   H     H_    0.724961 0.172000 0.057541 0.131330
H36   H     H_    0.275059 0.171943 0.942373 0.131293
H37   H     H_    0.460279 0.648393 0.421316 0.170068
H38   H     H_    0.404420 0.662050 0.539738 0.158518
H39   H     H_    0.960279 0.148393 0.421316 0.170068
H40   H     H_    0.904420 0.162050 0.539738 0.158518
H41   H     H_    0.474015 0.928398 0.433130 0.121567
H42   H     H_    0.481912 0.909219 0.547897 0.124570
H43   H     H_    0.974015 0.428398 0.433130 0.121567
H44   H     H_    0.981912 0.409219 0.547897 0.124570
O1    O     O_R   0.215090 0.709860 0.828130 -0.519657
O2    O     O_R   0.784910 0.709860 0.171870 -0.519149
O3    O     O_R   0.715090 0.209860 0.828130 -0.519657
O4    O     O_R   0.284910 0.209860 0.171870 -0.519149
O5    O     O_R   0.445660 0.919250 0.676780 -0.489491
O6    O     O_R   0.554340 0.919250 0.323220 -0.493378
O7    O     O_R   0.945660 0.419250 0.676780 -0.489491
O8    O     O_R   0.054340 0.419250 0.323220 -0.493378
O9    O     O_R   0.456260 0.718170 0.670000 -0.489981
O10   O     O_R   0.543740 0.718170 0.330000 -0.511822
O11   O     O_R   0.956260 0.218170 0.670000 -0.489981
O12   O     O_R   0.043740 0.218170 0.330000 -0.511822
O13   O     O_R   0.320940 0.626760 0.674370 -0.495501
O14   O     O_R   0.679060 0.626760 0.325630 -0.469640
O15   O     O_R   0.820940 0.126760 0.674370 -0.495501
O16   O     O_R   0.179060 0.126760 0.325630 -0.469639
O17   O     O_3   0.334530 0.834540 0.749640 -0.280039
O18   O     O_3   0.665470 0.834540 0.250360 -0.276246
O19   O     O_3   0.834530 0.334540 0.749640 -0.280039
O20   O     O_3   0.165470 0.334540 0.250360 -0.276246
O21   O     O_R   0.236990 0.958390 0.823710 -0.500744
O22   O     O_R   0.763010 0.958390 0.176290 -0.503257
O23   O     O_R   0.736990 0.458390 0.823710 -0.500744
O24   O     O_R   0.263010 0.458390 0.176290 -0.503257
O25   O     O_R   0.332380 0.074750 0.830850 -0.501971
O26   O     O_R   0.667620 0.074750 0.169150 -0.501374
O27   O     O_R   0.832380 0.574750 0.830850 -0.501971
O28   O     O_R   0.167620 0.574750 0.169150 -0.501374
O29   O     O_R   0.445800 0.917770 0.825070 -0.502558
O30   O     O_R   0.554200 0.917770 0.174930 -0.505868
O31   O     O_R   0.945800 0.417770 0.825070 -0.502558
O32   O     O_R   0.054200 0.417770 0.174930 -0.505868
O33   O     O_R   0.456410 0.716580 0.829970 -0.519583
O34   O     O_R   0.543590 0.716580 0.170030 -0.524962
O35   O     O_R   0.956410 0.216580 0.829970 -0.519583
O36   O     O_R   0.043590 0.216580 0.170030 -0.524962
O37   O     O_R   0.321080 0.625290 0.822650 -0.503862
O38   O     O_R   0.678920 0.625290 0.177350 -0.500819
O39   O     O_R   0.821080 0.125290 0.822650 -0.503862
O40   O     O_R   0.178920 0.125290 0.177350 -0.500819
O41   O     O_R   0.214930 0.711450 0.668160 -0.500441
O42   O     O_R   0.785070 0.711450 0.331840 -0.493062
O43   O     O_R   0.714930 0.211450 0.668160 -0.500440
O44   O     O_R   0.285070 0.211450 0.331840 -0.493062
O45   O     O_R   0.236850 0.959870 0.675420 -0.511567
O46   O     O_R   0.763150 0.959870 0.324580 -0.529279
O47   O     O_R   0.736850 0.459870 0.675420 -0.511567
O48   O     O_R   0.263150 0.459870 0.324580 -0.529279
O49   O     O_R   0.332230 0.076350 0.670880 -0.472990
O50   O     O_R   0.667770 0.076350 0.329120 -0.464212
O51   O     O_R   0.832230 0.576350 0.670880 -0.472990
O52   O     O_R   0.167770 0.576350 0.329120 -0.464212
I1    I     I_    0.149622 0.817023 0.405008 -0.338738
I2    I     I_    0.858394 0.815355 0.600648 -0.355068
I3    I     I_    0.649622 0.317023 0.405008 -0.338738
I4    I     I_    0.358394 0.315355 0.600648 -0.355067
N1    N     N_3   0.179873 0.549771 0.943453 -0.625873
H45   H     H_    0.156567 0.492417 0.905421 0.226847
H46   H     H_    0.151938 0.631890 0.944034 0.239037
N2    N     N_3   0.820147 0.549986 0.056635 -0.626241
H47   H     H_    0.843441 0.492674 0.094715 0.226689
H48   H     H_    0.848087 0.632169 0.056003 0.238806
N3    N     N_3   0.679873 0.049771 0.943453 -0.625873
H49   H     H_    0.656567 0.992417 0.905421 0.226847
H50   H     H_    0.651938 0.131890 0.944034 0.239037
N4    N     N_3   0.320147 0.049986 0.056635 -0.626241
H51   H     H_    0.343441 0.992674 0.094715 0.226689
H52   H     H_    0.348087 0.132168 0.056003 0.238806

loop_
_geom_bond_atom_site_label_1
_geom_bond_atom_site_label_2
_ccdc_geom_bond_type
C16   C28   D    
Cr3   O23   S    
N3    H49   S    
C38   C70   S    
C15   C59   S    
Cr9   O33   S    
C72   O16   A    
C37   C69   S    
Cr8   O8    S    
C9    H21   S    
Cr9   O9    S    
C35   C36   S    
C52   I4    S    
C11   H23   S    
C2    O22   A    
Cr7   O7    S    
C81   C82   A    
C3    O27   A    
C62   O50   A    
C77   C78   A    
C31   C67   S    
C29   H42   S    
N3    H50   S    
Cr2   O2    S    
Cr1   O1    S    
C50   C54   S    
C75   C79   A    
C41   H9    S    
C10   H22   S    
Cr5   O49   S    
Cr7   O27   S    
C47   C76   S    
C66   O10   A    
C16   N4    S    
Cr3   O43   S    
C8    C10   A    
C49   C53   S    
C75   C84   A    
Cr4   O44   S    
C13   C57   S    
C34   H38   S    
Cr12  O12   S    
C55   H7    S    
C24   H28   S    
Cr1   O21   S    
C3    C18   S    
C26   H30   S    
C7    H19   S    
N1    H46   S    
C25   H29   S    
C6    H18   S    
Cr11  O35   S    
C12   H24   S    
C27   H31   S    
C70   O42   A    
C39   C55   D    
C20   C24   D    
C53   H5    S    
N2    H47   S    
C40   C56   D    
C4    O24   A    
Cr2   O22   S    
C23   C27   S    
C38   H14   S    
C18   C22   D    
Cr12  O36   S    
C9    C10   A    
C2    O26   A    
Cr7   O19   S    
C68   O8    A    
C3    O23   A    
C32   C68   S    
C37   C53   D    
C44   C52   D    
C39   H15   S    
C1    O21   A    
Cr10  O18   S    
C30   H41   S    
C48   O32   A    
Cr6   O26   S    
C19   H35   S    
C47   O31   A    
C82   H2    S    
C48   C75   S    
C13   C25   D    
Cr1   O17   S    
C20   H36   S    
Cr8   O52   S    
C36   H40   S    
C76   C83   A    
C41   C49   D    
C64   O52   A    
C61   O45   A    
C22   H26   S    
C44   H12   S    
Cr1   O45   S    
C14   C58   S    
C17   H33   S    
C84   H4    S    
C32   C35   D    
C71   O43   A    
C56   H8    S    
C32   H43   S    
C40   H16   S    
C35   H39   S    
Cr9   O37   S    
N4    H51   S    
Cr3   O47   S    
C51   C55   S    
Cr4   O24   S    
C14   N2    S    
C29   C34   D    
Cr12  O40   S    
C46   O30   A    
C45   C74   S    
C49   I1    S    
Cr6   O18   S    
Cr5   O5    S    
C17   C21   D    
C68   O12   A    
C45   O33   A    
Cr2   O18   S    
Cr8   O28   S    
C15   C27   D    
C83   C84   A    
C38   C54   D    
C1    O25   A    
Cr10  O14   S    
C71   O15   A    
Cr6   O30   S    
C46   O34   A    
C33   C34   S    
Cr5   O17   S    
C58   O38   A    
C43   H11   S    
C14   C26   D    
Cr9   O17   S    
C42   H10   S    
C72   O44   A    
C64   O48   A    
C22   C26   S    
C13   N1    S    
C42   C50   D    
C16   C60   S    
C4    C17   S    
C30   C66   S    
Cr11  O39   S    
Cr12  O20   S    
Cr10  O34   S    
Cr2   O46   S    
C63   O47   A    
Cr7   O31   S    
C67   O7    A    
C29   C65   S    
C18   H34   S    
C76   C80   A    
C74   C81   A    
C5    C77   A    
C6    C12   A    
C73   C82   A    
C19   C23   D    
C7    C79   A    
Cr6   O50   S    
C7    C9    A    
C21   C25   S    
Cr11  O19   S    
Cr1   O41   S    
C58   O2    A    
C40   C72   S    
C30   C33   D    
C5    H17   S    
C2    C19   S    
C70   O14   A    
C37   H13   S    
C54   H6    S    
C33   H37   S    
C24   C28   S    
Cr2   O42   S    
C1    C20   S    
Cr10  O38   S    
C45   O29   A    
C23   H27   S    
C11   C12   A    
C5    C11   A    
C57   O1    A    
C44   C61   S    
C60   O40   A    
C41   C64   S    
C62   O46   A    
Cr8   O20   S    
C59   O39   A    
Cr5   O29   S    
Cr6   O6    S    
C51   I3    S    
C28   H32   S    
C60   O4    A    
C57   O37   A    
C50   I2    S    
C43   C51   D    
Cr12  O16   S    
Cr7   O51   S    
Cr8   O32   S    
C67   O11   A    
C63   O51   A    
Cr9   O13   S    
C81   H1    S    
Cr3   O19   S    
Cr11  O15   S    
Cr4   O20   S    
C65   O9    A    
N1    H45   S    
C69   O13   A    
C66   O6    A    
C6    C78   A    
C8    H20   S    
C59   O3    A    
C79   C80   A    
C4    O28   A    
Cr10  O10   S    
Cr4   O48   S    
Cr11  O11   S    
C73   C77   A    
N2    H48   S    
C74   C78   A    
C8    C80   A    
C39   C71   S    
C31   C36   D    
C21   H25   S    
C83   H3    S    
C15   N3    S    
C61   O49   A    
Cr3   O3    S    
C31   H44   S    
N4    H52   S    
C65   O5    A    
C42   C63   S    
Cr4   O4    S    
C46   C73   S    
C47   O35   A    
C52   C56   S    
C43   C62   S    
C69   O41   A    
C48   O36   A    
Cr5   O25   S    
