data_mof_unit_26430.cif
_audit_creation_date              2012-12-10T18:54:29-0500
_audit_creation_method            fapswitch 2.2
_symmetry_space_group_name_H-M    P1
_symmetry_Int_Tables_number       1
_space_group_crystal_system       triclinic
_cell_length_a                    10.893326
_cell_length_b                    9.900824
_cell_length_c                    23.483698
_cell_angle_alpha                 90.00005
_cell_angle_beta                  93.764228
_cell_angle_gamma                 89.999965
_cell_volume                      2527.32091355

loop_
_atom_site_label
_atom_site_type_symbol
_atom_type_description
_atom_site_fract_x
_atom_site_fract_y
_atom_site_fract_z
_atom_type_partial_charge
C1    C     C_R   0.260481 0.499455 0.503172 0.911751
C2    C     C_R   0.739518 0.499455 0.496828 0.911752
C3    C     C_R   0.537586 0.401596 0.234154 -0.029883
C4    C     C_R   0.462415 0.401597 0.765846 -0.029884
C5    C     C_R   0.546866 0.392911 0.294409 -0.063245
C6    C     C_R   0.453135 0.392911 0.705591 -0.063246
C7    C     C_R   0.506508 0.503513 0.326812 -0.134245
C8    C     C_R   0.493491 0.503514 0.673188 -0.134245
C9    C     C_R   0.467203 0.623036 0.299239 -0.189385
C10   C     C_R   0.532794 0.623038 0.700760 -0.189385
C11   C     C_R   0.465521 0.635880 0.240324 0.030942
C12   C     C_R   0.534476 0.635883 0.759676 0.030942
C13   C     C_R   0.498188 0.523941 0.207800 0.141009
C14   C     C_R   0.501810 0.523942 0.792199 0.141009
C15   C     C_R   0.063188 0.372551 0.503359 0.113479
C16   C     C_R   0.937801 0.619640 0.493109 0.107357
C17   C     C_R   0.936812 0.372551 0.496641 0.113480
C18   C     C_R   0.062199 0.619640 0.506890 0.107356
C19   C     C_R   0.872045 0.496959 0.493852 -0.206538
C20   C     C_R   0.127954 0.496959 0.506148 -0.206538
C21   C     C_R   0.567971 0.072416 0.541254 0.008294
C22   C     C_R   0.423860 0.928326 0.461516 0.015104
C23   C     C_R   0.432029 0.072416 0.458745 0.008292
C24   C     C_R   0.576140 0.928326 0.538484 0.015103
C25   C     C_R   0.502932 0.500138 0.389356 0.914600
C26   C     C_R   0.497068 0.500138 0.610644 0.914600
C27   C     C_R   0.611517 0.534919 0.884633 0.473458
C28   C     C_R   0.388481 0.534915 0.115367 0.473459
C29   C     C_R   0.391583 0.546563 0.877272 0.501286
C30   C     C_R   0.608414 0.546564 0.122728 0.501285
C31   C     C_R   0.388392 0.548509 0.936572 -0.020957
C32   C     C_R   0.611606 0.548510 0.063428 -0.020957
C33   C     C_R   0.500415 0.546838 0.970112 -0.021429
C34   C     C_R   0.499582 0.546837 0.029888 -0.021429
C35   C     C_R   0.613244 0.543057 0.944038 -0.011952
C36   C     C_R   0.386754 0.543054 0.055962 -0.011952
C37   C     C_R   0.276427 0.549491 0.962952 -0.137039
C38   C     C_R   0.723570 0.549495 0.037048 -0.137038
C39   C     C_R   0.275605 0.545350 0.022179 -0.143550
C40   C     C_R   0.724393 0.545355 0.977821 -0.143550
H1    H     H_    0.189248 0.550738 0.937960 0.202212
H2    H     H_    0.810750 0.550743 0.062040 0.202212
H3    H     H_    0.187839 0.543593 0.041341 0.197266
H4    H     H_    0.812159 0.543600 0.958659 0.197266
H5    H     H_    0.438191 0.708259 0.323948 0.201781
H6    H     H_    0.561805 0.708261 0.676051 0.201781
N1    N     N_R   0.501799 0.536572 0.852819 -0.380501
N2    N     N_R   0.498199 0.536570 0.147181 -0.380501
N3    N     N_R   0.500000 0.857200 0.500000 -0.192696
N4    N     N_R   0.500000 0.142800 0.500000 -0.193559
O1    O     O_R   0.316770 0.614620 0.500000 -0.662894
O2    O     O_R   0.683230 0.385380 0.500000 -0.648065
O3    O     O_R   0.683230 0.614620 0.500000 -0.662894
O4    O     O_R   0.316770 0.385380 0.500000 -0.648065
O5    O     O_R   0.499970 0.614690 0.416160 -0.657509
O6    O     O_R   0.500030 0.385310 0.583840 -0.618738
O7    O     O_R   0.500030 0.614690 0.583840 -0.657509
O8    O     O_R   0.499970 0.385310 0.416160 -0.618739
O9    O     O_2   0.718080 0.524826 0.858682 -0.529641
O10   O     O_2   0.281918 0.524820 0.141318 -0.529641
O11   O     O_2   0.285708 0.552532 0.844107 -0.510044
O12   O     O_2   0.714289 0.552534 0.155893 -0.510043
Zn1   Zn    Zn3+2 0.500000 0.653120 0.500000 0.918033
Zn2   Zn    Zn3+2 0.500000 0.346880 0.500000 0.952989
C41   C     C_2   0.570635 0.286591 0.197008 0.458587
H7    H     H_    0.524375 0.275220 0.154927 0.075070
O13   O     O_2   0.652590 0.207265 0.211501 -0.536947
C42   C     C_2   0.429367 0.286591 0.802992 0.458587
H8    H     H_    0.475628 0.275221 0.845073 0.075070
O14   O     O_2   0.347414 0.207264 0.788499 -0.536946
C43   C     C_2   0.601698 0.270911 0.322496 0.564769
H9    H     H_    0.572511 0.171052 0.308292 0.139308
O15   O     O_2   0.684218 0.281192 0.359961 -0.577178
C44   C     C_2   0.398305 0.270910 0.677504 0.564769
H10   H     H_    0.427494 0.171052 0.691708 0.139310
O16   O     O_2   0.315784 0.281190 0.640039 -0.577178
C45   C     C_2   0.431643 0.767448 0.212986 0.509654
H11   H     H_    0.436664 0.781435 0.167410 0.063392
O17   O     O_2   0.398361 0.862815 0.241159 -0.521510
C46   C     C_2   0.568351 0.767451 0.787014 0.509655
H12   H     H_    0.563329 0.781438 0.832590 0.063393
O18   O     O_2   0.601631 0.862819 0.758840 -0.521512
N5    N     N_3   0.121076 0.242493 0.509934 -0.390376
H13   H     H_    0.166704 0.218520 0.473667 0.204330
H14   H     H_    0.178952 0.239589 0.547145 0.265878
N6    N     N_3   0.883647 0.745514 0.474398 -0.390410
H15   H     H_    0.835430 0.787131 0.506767 0.238968
H16   H     H_    0.826501 0.730576 0.437391 0.216569
N7    N     N_3   0.878925 0.242493 0.490067 -0.390376
H17   H     H_    0.833297 0.218520 0.526333 0.204330
H18   H     H_    0.821048 0.239588 0.452855 0.265877
N8    N     N_3   0.116352 0.745514 0.525601 -0.390410
H19   H     H_    0.164569 0.787130 0.493232 0.238967
H20   H     H_    0.173498 0.730578 0.562607 0.216569
C47   C     C_2   0.629538 0.147056 0.589693 0.525212
H21   H     H_    0.675992 0.241239 0.583131 0.084311
O19   O     O_2   0.626654 0.104655 0.638413 -0.546274
C48   C     C_2   0.328235 0.856008 0.424881 0.440570
H22   H     H_    0.334651 0.750627 0.415912 0.126142
O20   O     O_2   0.234388 0.912809 0.406374 -0.545377
C49   C     C_2   0.370463 0.147056 0.410307 0.525215
H23   H     H_    0.324008 0.241238 0.416868 0.084311
O21   O     O_2   0.373348 0.104655 0.361586 -0.546274
C50   C     C_2   0.671765 0.856008 0.575119 0.440572
H24   H     H_    0.665349 0.750627 0.584088 0.126142
O22   O     O_2   0.765613 0.912808 0.593625 -0.545377

loop_
_geom_bond_atom_site_label_1
_geom_bond_atom_site_label_2
_ccdc_geom_bond_type
C38   C40   A    
C9    H5    S    
C49   H23   S    
N3    Zn1   S    
O3    Zn1   S    
N4    Zn2   S    
C47   H21   S    
C50   O22   D    
C45   H11   S    
C44   O16   D    
C29   N1    A    
C37   H1    S    
C22   C48   S    
C30   N2    A    
C38   H2    S    
N6    H16   S    
C8    C26   S    
C15   C17   A    
C21   N4    A    
C11   C45   S    
C33   C35   A    
C42   H8    S    
C41   O13   D    
O5    Zn1   S    
C10   H6    S    
O6    Zn2   S    
O7    Zn1   S    
C32   C38   A    
N7    H18   S    
C18   C20   A    
C3    C13   A    
C45   O17   D    
C49   O21   D    
C5    C43   S    
C16   N6    S    
C3    C41   S    
N8    H20   S    
C50   H24   S    
C6    C44   S    
C28   O10   S    
O8    Zn2   S    
C15   C20   A    
C29   O11   S    
C44   H10   S    
O1    Zn1   S    
C46   O18   D    
O2    Zn2   S    
C5    C7    A    
N6    H15   S    
C23   N4    A    
C39   H3    S    
C21   C47   S    
C27   C35   A    
C4    C42   S    
C31   C37   A    
C24   C50   S    
C32   C34   A    
C1    O4    A    
C2    O2    A    
C1    O1    A    
N5    H13   S    
C29   C31   A    
C31   C33   A    
C33   C34   A    
C17   N7    S    
C9    C11   A    
C10   C12   A    
C22   N3    A    
C8    C10   A    
N5    H14   S    
C12   C14   A    
C41   H7    S    
C48   O20   D    
C30   O12   S    
C4    C6    A    
C25   O8    A    
C43   O15   D    
C27   N1    A    
C24   N3    A    
C7    C9    A    
C28   N2    A    
C1    C20   S    
C2    C19   S    
C36   C39   A    
C25   O5    A    
C46   H12   S    
C3    C5    A    
C2    O3    A    
C26   O6    A    
C13   N2    S    
C6    C8    A    
C47   O19   D    
C14   N1    S    
C7    C25   S    
C18   N8    S    
C35   C40   A    
C43   H9    S    
C37   C39   A    
C27   O9    S    
C30   C32   A    
C11   C13   A    
C23   C49   S    
O4    Zn2   S    
C16   C19   A    
C15   N5    S    
C12   C46   S    
N8    H19   S    
C17   C19   A    
C34   C36   A    
C4    C14   A    
C26   O7    A    
C40   H4    S    
C28   C36   A    
C16   C18   A    
C48   H22   S    
C21   C24   A    
C42   O14   D    
C22   C23   A    
N7    H17   S    
