data_mof_unit_27443.cif
_audit_creation_date              2012-12-11T16:35:20-0500
_audit_creation_method            fapswitch 2.2
_symmetry_space_group_name_H-M    P1
_symmetry_Int_Tables_number       1
_space_group_crystal_system       triclinic
_cell_length_a                    6.937358
_cell_length_b                    17.694889
_cell_length_c                    19.419406
_cell_angle_alpha                 108.975855
_cell_angle_beta                  90.360347
_cell_angle_gamma                 90.574264
_cell_volume                      2254.06780079

loop_
_atom_site_label
_atom_site_type_symbol
_atom_type_description
_atom_site_fract_x
_atom_site_fract_y
_atom_site_fract_z
_atom_type_partial_charge
O1    O     O_R   0.505700 0.440210 0.561730 -0.543823
O2    O     O_R   0.169350 0.406300 0.412660 -0.540989
O3    O     O_R   0.005650 0.559790 0.438270 -0.545435
C1    C     C_R   0.337975 0.383696 0.384567 0.685601
O4    O     O_R   0.175560 0.430650 0.559600 -0.540604
O5    O     O_R   0.011900 0.584320 0.586250 -0.535607
C2    C     C_R   0.344760 0.415386 0.581090 0.708558
O6    O     O_R   0.499450 0.415680 0.413750 -0.537414
O7    O     O_3   0.341370 0.550390 0.508570 -0.360333
V1    V     V_3+5 0.063940 0.490650 0.498410 1.445331
O8    O     O_R   0.682570 0.593700 0.587340 -0.535525
C3    C     C_R   0.852487 0.616634 0.614948 0.704023
O9    O     O_R   0.676370 0.569350 0.440400 -0.536460
C4    C     C_R   0.845279 0.584566 0.418921 0.696497
V2    V     V_3+5 0.564750 0.509350 0.501590 1.464993
O10   O     O_3   0.837190 0.449610 0.491430 -0.370515
C5    C     C_R   0.046513 0.706975 0.306503 -0.077204
C6    C     C_R   0.035304 0.661787 0.353627 -0.085022
H1    H     H_    0.167254 0.649348 0.377804 0.144724
C7    C     C_R   0.856310 0.633695 0.369772 -0.061978
C8    C     C_R   0.688801 0.651933 0.337470 -0.104681
H2    H     H_    0.548728 0.630767 0.348120 0.118818
C9    C     C_R   0.700184 0.696657 0.289926 -0.109424
H3    H     H_    0.568621 0.708138 0.264929 0.100590
C10   C     C_R   0.879227 0.724745 0.273732 0.065606
C11   C     C_R   0.748473 0.828710 0.223681 -0.066581
H4    H     H_    0.629637 0.838505 0.261270 0.192293
C12   C     C_R   0.759991 0.874326 0.176977 -0.100067
H5    H     H_    0.649023 0.917654 0.179291 0.157094
C13   C     C_R   0.915369 0.865658 0.129084 -0.072540
C14   C     C_R   0.057915 0.809547 0.128193 -0.071987
H6    H     H_    0.178557 0.801128 0.091432 0.112062
C15   C     C_R   0.045812 0.763455 0.174646 -0.075487
H7    H     H_    0.156994 0.720150 0.172063 0.091692
C16   C     C_R   0.891217 0.772692 0.223261 0.036059
H8    H     H_    0.591606 0.657591 0.929551 0.123204
C17   C     C_R   0.071336 0.893503 0.748984 -0.214162
C18   C     C_R   0.142408 0.900666 0.684399 -0.224263
C19   C     C_R   0.122293 0.837501 0.619313 0.475783
C20   C     C_R   0.030924 0.766751 0.619120 -0.182470
C21   C     C_R   0.960118 0.757317 0.684131 0.002472
C22   C     C_R   0.980173 0.822087 0.750399 0.073417
C23   C     C_R   0.866173 0.685474 0.683485 -0.150697
C24   C     C_R   0.790327 0.678773 0.748974 0.058343
C25   C     C_R   0.810975 0.743421 0.815311 0.067769
C26   C     C_R   0.905515 0.815138 0.816016 -0.160749
C27   C     C_R   0.696741 0.607737 0.750151 -0.129528
C28   C     C_R   0.624354 0.600773 0.814583 -0.049407
C29   C     C_R   0.646125 0.663575 0.879441 -0.117838
C30   C     C_R   0.739239 0.733965 0.880218 -0.144766
H9    H     H_    0.087710 0.944980 0.797515 0.136635
H10   H     H_    0.211755 0.956091 0.685415 0.151369
H11   H     H_    0.014291 0.719814 0.567261 0.142432
H12   H     H_    0.678973 0.556680 0.701529 0.107914
H13   H     H_    0.552394 0.546074 0.814253 0.160898
H14   H     H_    0.755564 0.780331 0.932416 0.106150
H15   H     H_    0.518269 0.483383 0.185788 0.113845
C31   C     C_R   0.270597 0.219739 0.378460 -0.232407
C32   C     C_R   0.250200 0.141646 0.379046 -0.168822
C33   C     C_R   0.285733 0.077436 0.316523 0.523289
C34   C     C_R   0.340469 0.091555 0.252449 -0.248134
C35   C     C_R   0.361893 0.170374 0.250147 0.004323
C36   C     C_R   0.326771 0.235797 0.314709 0.077595
C37   C     C_R   0.421123 0.184452 0.185312 -0.152257
C38   C     C_R   0.447339 0.264242 0.185842 0.067417
C39   C     C_R   0.413551 0.329589 0.250642 0.069015
C40   C     C_R   0.352143 0.315503 0.315106 -0.158890
C41   C     C_R   0.504690 0.280631 0.122289 -0.145600
C42   C     C_R   0.530405 0.358980 0.122669 -0.107700
C43   C     C_R   0.498572 0.422624 0.185853 -0.123894
C44   C     C_R   0.440131 0.408462 0.249124 -0.145942
H16   H     H_    0.242918 0.267254 0.428792 0.127248
H17   H     H_    0.369126 0.040555 0.204928 0.144171
H18   H     H_    0.530486 0.233259 0.071671 0.104787
H19   H     H_    0.574841 0.370347 0.073558 0.128697
H20   H     H_    0.414561 0.460056 0.296537 0.092804
C45   C     C_R   0.529107 0.331771 0.726632 0.504097
C46   C     C_R   0.516076 0.375504 0.677932 -0.257016
H21   H     H_    0.629087 0.417982 0.677887 0.160798
C47   C     C_R   0.356783 0.366599 0.630667 -0.124541
C48   C     C_R   0.211191 0.311249 0.631610 -0.114327
H22   H     H_    0.087370 0.302525 0.595491 0.133447
C49   C     C_R   0.226539 0.264963 0.677853 -0.111985
H23   H     H_    0.115370 0.220886 0.675781 0.169649
C50   C     C_R   0.384189 0.274647 0.725941 -0.065728
C51   C     C_R   0.266410 0.238311 0.833333 -0.043793
H24   H     H_    0.161662 0.285465 0.843880 0.184044
C52   C     C_R   0.275983 0.192035 0.879733 -0.185231
H25   H     H_    0.175780 0.203454 0.924417 0.126781
C53   C     C_R   0.417143 0.133090 0.869774 -0.065124
C54   C     C_R   0.545420 0.120009 0.811445 -0.158099
H26   H     H_    0.653834 0.074201 0.801997 0.121894
C55   C     C_R   0.531338 0.164467 0.763592 -0.042002
C56   C     C_R   0.393830 0.224967 0.774808 0.119843
O11   O     O_R   0.273230 0.084330 0.086440 -0.532996
O12   O     O_R   0.596660 0.069390 0.940470 -0.540365
O13   O     O_R   0.760270 0.915710 0.913690 -0.536884
C57   C     C_R   0.427574 0.084290 0.918939 0.687433
O14   O     O_R   0.603330 0.093680 0.087390 -0.537227
O15   O     O_R   0.766990 0.940160 0.061660 -0.545704
C58   C     C_R   0.434826 0.116252 0.115690 0.695952
O16   O     O_R   0.266510 0.059870 0.938470 -0.541257
O17   O     O_3   0.431050 0.949630 0.991510 -0.368850
V3    V     V_3+5 0.708490 0.009340 0.001580 1.428585
O18   O     O_R   0.096270 0.930570 0.059390 -0.534885
C59   C     C_R   0.927324 0.915218 0.080640 0.690194
O19   O     O_R   0.089600 0.906290 0.912460 -0.540487
C60   C     C_R   0.919645 0.883709 0.884695 0.688907
V4    V     V_3+5 0.207670 0.990600 0.998190 1.436563
O20   O     O_3   0.935250 0.050360 0.008480 -0.366719
H27   H     H_    0.186312 0.728894 0.296520 0.130271
S1    S     S_3+6 0.208427 0.846386 0.537069 0.038869
O21   O     O_2   0.345066 0.779439 0.503176 -0.314386
O22   O     O_2   0.041689 0.839871 0.485554 -0.318600
O23   O     O_3   0.324235 0.934258 0.551451 -0.462031
H28   H     H_    0.220870 0.974087 0.557657 0.347031
H29   H     H_    0.208002 0.131215 0.428841 0.167345
S2    S     S_3+6 0.264484 0.979488 0.319960 -0.007863
O24   O     O_2   0.306742 0.919421 0.247059 -0.383977
O25   O     O_2   0.404605 0.969688 0.375714 -0.296182
O26   O     O_3   0.039139 0.964769 0.344751 -0.483443
H30   H     H_    0.042230 0.912377 0.352972 0.395122
S3    S     S_3+6 0.723118 0.352267 0.789857 -0.055851
O27   O     O_2   0.850001 0.280463 0.772171 -0.388593
O28   O     O_2   0.840073 0.423044 0.786735 -0.346542
O29   O     O_3   0.635682 0.371135 0.874284 -0.511001
H31   H     H_    0.749599 0.370743 0.905169 0.356628
H32   H     H_    0.628725 0.152053 0.717999 0.143923

loop_
_geom_bond_atom_site_label_1
_geom_bond_atom_site_label_2
_ccdc_geom_bond_type
C28   H13   S    
C20   C21   A    
C55   C56   A    
C21   C23   A    
C21   C22   A    
C1    O6    A    
S1    O22   D    
C48   H22   S    
S3    O27   D    
C45   C46   A    
C11   H4    S    
O29   H31   S    
C49   H23   S    
C12   H5    S    
C17   C18   A    
C3    C23   S    
O5    C3    A    
C18   C19   A    
C17   H9    S    
C51   C52   A    
S3    O28   D    
C18   H10   S    
C41   H18   S    
V2    O10   S    
O15   V3    S    
C6    H1    S    
C22   C26   A    
C17   C22   A    
S2    O24   D    
C35   C37   A    
C51   C56   A    
O13   C60   A    
O8    V2    S    
C39   C44   A    
C41   C42   A    
C26   C60   S    
C9    H3    S    
C14   C15   A    
C33   S2    S    
C43   C44   A    
O1    V2    S    
H15   C43   S    
O7    V1    S    
C6    C7    A    
C24   C27   A    
O14   V3    S    
C45   C50   A    
C32   C33   A    
C32   H29   S    
C8    H2    S    
C13   C59   S    
O19   V4    S    
C42   C43   A    
C5    H27   S    
S1    O21   D    
C48   C49   A    
C5    C6    A    
C37   C58   S    
C36   C40   A    
C27   C28   A    
C4    C7    S    
O11   V4    S    
C54   H26   S    
O4    C2    A    
C51   H24   S    
S3    O29   S    
C34   H17   S    
C31   C32   A    
C57   O16   A    
C30   H14   S    
O12   C57   A    
C33   C34   A    
S2    O26   S    
O2    C1    A    
C23   C24   A    
C35   C36   A    
C45   S3    S    
C54   C55   A    
C50   C56   S    
C14   H6    S    
C13   C14   A    
O19   C60   A    
C38   C41   A    
C15   H7    S    
C52   H25   S    
O26   H30   S    
O3    C4    A    
C10   C16   S    
C27   H12   S    
C19   S1    S    
C49   C50   A    
C52   C53   A    
C20   H11   S    
O6    V2    S    
O9    V2    S    
C42   H19   S    
O2    V1    S    
C19   C20   A    
C24   C25   A    
C31   C36   A    
O12   V3    S    
O18   V4    S    
C28   C29   A    
O14   C58   A    
O1    C2    A    
C11   C12   A    
C47   C48   A    
O5    V1    S    
C1    C40   S    
O8    C3    A    
O18   C59   A    
O15   C59   A    
O17   V4    S    
C5    C10   A    
C37   C38   A    
C8    C9    A    
O7    V2    S    
C55   H32   S    
O4    V1    S    
C38   C39   A    
O3    V1    S    
V1    O10   S    
V4    O20   S    
V3    O20   S    
C46   H21   S    
C31   H16   S    
C53   C54   A    
C44   H20   S    
C25   C30   A    
C12   C13   A    
C15   C16   A    
C39   C40   A    
C46   C47   A    
C9    C10   A    
C34   C35   A    
S2    O25   D    
O13   V3    S    
C25   C26   A    
C11   C16   A    
C7    C8    A    
C29   C30   A    
O17   V3    S    
O16   V4    S    
O23   H28   S    
O9    C4    A    
C53   C57   S    
S1    O23   S    
H8    C29   S    
O11   C58   A    
C2    C47   S    
