data_mof_unit_49311.cif
_audit_creation_date              2012-12-11T15:48:39-0500
_audit_creation_method            fapswitch 2.2
_symmetry_space_group_name_H-M    P1
_symmetry_Int_Tables_number       1
_space_group_crystal_system       triclinic
_cell_length_a                    10.954077
_cell_length_b                    11.005683
_cell_length_c                    18.803291
_cell_angle_alpha                 90.551151
_cell_angle_beta                  90.014394
_cell_angle_gamma                 60.02652
_cell_volume                      1963.57361057

loop_
_atom_site_label
_atom_site_type_symbol
_atom_type_description
_atom_site_fract_x
_atom_site_fract_y
_atom_site_fract_z
_atom_type_partial_charge
C1    C     C_R   0.236383 0.646961 0.609461 0.534683
C2    C     C_3   0.770114 0.511177 0.794024 -0.246367
C3    C     C_3   0.696157 0.667743 0.815180 0.044790
C4    C     C_3   0.666824 0.644477 0.678946 0.036915
C5    C     C_3   0.753756 0.717551 0.690499 -0.252997
C6    C     C_3   0.744813 0.498233 0.715449 -0.235634
C7    C     C_R   0.679579 0.144414 0.820173 -0.004205
C8    C     C_R   0.770308 0.178169 0.784648 -0.027430
C9    C     C_R   0.767903 0.187681 0.710835 0.006205
C10   C     C_R   0.586295 0.127007 0.704862 -0.184783
C11   C     C_R   0.577151 0.130792 0.777987 -0.052384
C12   C     C_R   0.652410 0.620373 0.602295 0.544912
C13   C     C_3   0.925903 0.108869 0.787744 -0.263425
C14   C     C_3   0.924756 0.114691 0.707192 -0.264381
C15   C     C_R   0.677381 0.160115 0.670154 -0.005836
C16   C     C_R   0.169745 0.673739 0.832523 0.011340
C17   C     C_R   0.141788 0.583340 0.791895 0.005220
C18   C     C_R   0.152653 0.578484 0.718273 -0.013030
C19   C     C_R   0.192023 0.774008 0.722957 -0.181482
C20   C     C_R   0.195886 0.769157 0.796657 -0.183286
C21   C     C_3   0.211409 0.428492 0.796536 -0.251440
C22   C     C_3   0.223418 0.422622 0.716045 -0.252212
C23   C     C_R   0.630880 0.224950 0.601213 0.538974
C24   C     C_R   0.183023 0.670737 0.682387 0.009145
C25   C     C_R   0.648320 0.650381 0.162819 0.002449
C26   C     C_R   0.748147 0.529472 0.198625 0.024456
C27   C     C_R   0.733882 0.511250 0.269903 -0.012668
C28   C     C_R   0.505548 0.717583 0.271180 -0.154563
C29   C     C_R   0.520199 0.738155 0.198130 -0.169440
C30   C     C_3   0.903582 0.472711 0.206908 -0.121090
C31   C     C_3   0.886612 0.454221 0.284983 -0.255682
C32   C     C_R   0.618107 0.608789 0.308928 0.011580
C33   C     C_R   0.640055 0.169771 0.173507 0.017824
C34   C     C_R   0.220009 0.648773 0.402090 0.540507
C35   C     C_R   0.546411 0.148773 0.215175 0.029428
C36   C     C_R   0.549602 0.155323 0.288001 0.054594
C37   C     C_R   0.729839 0.218834 0.280103 -0.168479
C38   C     C_R   0.725013 0.214881 0.206180 -0.165965
C39   C     C_3   0.526705 0.023925 0.217366 -0.253653
C40   C     C_3   0.532531 0.030237 0.297366 -0.273161
C41   C     C_R   0.645293 0.183931 0.321644 0.012259
C42   C     C_R   0.119420 0.690210 0.188465 0.004884
C43   C     C_R   0.068226 0.809219 0.232225 0.027755
C44   C     C_R   0.077163 0.800480 0.304529 -0.004848
C45   C     C_R   0.615184 0.588664 0.386050 0.561381
C46   C     C_R   0.165915 0.550955 0.293967 -0.049562
C47   C     C_R   0.159361 0.561470 0.219888 -0.186793
C48   C     C_3   0.088540 0.933392 0.230156 -0.243286
C49   C     C_3   0.091423 0.928896 0.310704 -0.270229
C50   C     C_R   0.143814 0.669067 0.336183 0.003213
C51   C     C_R   0.702145 0.096984 0.894392 0.534383
C52   C     C_R   0.719832 0.684665 0.890380 0.538152
C53   C     C_R   0.116817 0.706803 0.905254 0.537250
C54   C     C_R   0.673342 0.108736 0.103284 0.543296
C55   C     C_R   0.694262 0.687809 0.096731 0.527313
C56   C     C_R   0.617444 0.229599 0.394759 0.538973
C57   C     C_R   0.089345 0.712221 0.113769 0.545025
C58   C     C_3   0.537911 0.733400 0.798137 -0.247331
C59   C     C_3   0.519537 0.730177 0.716800 -0.098995
C60   C     C_3   0.760590 0.741356 0.770834 -0.218874
Cr1   Cr    Cr6+3 0.392960 0.397920 0.502240 1.042941
Cr2   Cr    Cr6+3 0.398340 0.708480 0.501250 1.028298
Cr3   Cr    Cr6+3 0.708670 0.393570 0.496460 1.011139
Cr4   Cr    Cr6+3 0.937650 0.938540 0.007610 1.033727
Cr5   Cr    Cr6+3 0.625330 0.937370 0.994520 1.038327
Cr6   Cr    Cr6+3 0.937940 0.625230 0.001190 1.030921
H1    H     H_    0.477124 0.841410 0.820059 0.170193
H2    H     H_    0.848958 0.428600 0.690008 0.144851
H3    H     H_    0.871363 0.702100 0.786231 0.134454
H4    H     H_    0.862125 0.650932 0.668756 0.128717
H5    H     H_    0.511578 0.110794 0.674452 0.172580
H6    H     H_    0.970414 0.002450 0.809394 0.173706
H7    H     H_    0.962131 0.176528 0.813530 0.143153
H8    H     H_    0.964476 0.182375 0.686060 0.144575
H9    H     H_    0.968078 0.011227 0.680167 0.147419
H10   H     H_    0.208249 0.852667 0.698050 0.162930
H11   H     H_    0.495345 0.672217 0.824658 0.101621
H12   H     H_    0.211609 0.845971 0.825463 0.145501
H13   H     H_    0.138943 0.393645 0.817142 0.157551
H14   H     H_    0.313675 0.385841 0.824566 0.150303
H15   H     H_    0.333737 0.373600 0.696746 0.174218
H16   H     H_    0.157443 0.384680 0.689900 0.143243
H17   H     H_    0.437427 0.828345 0.171464 0.124718
H18   H     H_    0.933495 0.552980 0.196133 0.141525
H19   H     H_    0.941063 0.343589 0.302942 0.147366
H20   H     H_    0.460432 0.674524 0.706069 0.119011
H21   H     H_    0.904733 0.526458 0.319330 0.153032
H22   H     H_    0.799779 0.248537 0.304922 0.137315
H23   H     H_    0.795359 0.235676 0.174971 0.146303
H24   H     H_    0.618132 0.928432 0.194439 0.156828
H25   H     H_    0.421467 0.048936 0.197045 0.155327
H26   H     H_    0.431606 0.055663 0.323553 0.175197
H27   H     H_    0.627572 0.939303 0.320290 0.136441
H28   H     H_    0.184425 0.470246 0.187060 0.137883
H29   H     H_    0.996479 0.027177 0.208465 0.169521
H30   H     H_    0.191229 0.908261 0.206062 0.145212
H31   H     H_    0.191750 0.912772 0.332762 0.161413
H32   H     H_    0.996853 0.017689 0.335867 0.138757
H33   H     H_    0.703199 0.855113 0.782675 0.140756
H34   H     H_    0.885718 0.460146 0.803096 0.142050
H35   H     H_    0.678396 0.448916 0.709912 0.135879
O1    O     O_R   0.507380 0.255700 0.581440 -0.526535
O2    O     O_R   0.524480 0.695810 0.424040 -0.503329
O3    O     O_R   0.736390 0.504290 0.414790 -0.516235
O4    O     O_R   0.691300 0.277290 0.422170 -0.530012
O5    O     O_3   0.499990 0.499990 0.499980 -0.278494
O6    O     O_R   0.089400 0.825690 0.930570 -0.526235
O7    O     O_R   0.818460 0.054440 0.929850 -0.500830
O8    O     O_R   0.606060 0.077150 0.915510 -0.508281
O9    O     O_R   0.646550 0.806680 0.917570 -0.503327
O10   O     O_R   0.837170 0.593410 0.915250 -0.524122
O11   O     O_R   0.065200 0.635530 0.931570 -0.497665
O12   O     O_R   0.280320 0.527350 0.578930 -0.501250
O13   O     O_R   0.068260 0.828890 0.091840 -0.510699
O14   O     O_R   0.798870 0.057410 0.079340 -0.501489
O15   O     O_R   0.584930 0.080350 0.076780 -0.514144
O16   O     O_R   0.626960 0.809650 0.067060 -0.507370
O17   O     O_R   0.816040 0.596610 0.076510 -0.512996
O18   O     O_R   0.045610 0.638500 0.081060 -0.509570
O19   O     O_3   0.833640 0.833710 0.001100 -0.262031
O20   O     O_R   0.260510 0.739590 0.584590 -0.523932
O21   O     O_R   0.532300 0.695080 0.573820 -0.488325
O22   O     O_R   0.744840 0.503500 0.576370 -0.524033
O23   O     O_R   0.699120 0.276560 0.571960 -0.500915
O24   O     O_R   0.498940 0.256500 0.419860 -0.488146
O25   O     O_R   0.272500 0.528080 0.429150 -0.490856
O26   O     O_R   0.252060 0.740380 0.423010 -0.534085
C61   C     C_1   0.462206 0.114788 0.805573 0.227082
N1    N     N_1   0.369554 0.103793 0.827601 -0.319737
H36   H     H_    0.411463 0.791981 0.298996 0.129157
C62   C     C_1   0.989080 0.339325 0.168259 0.206553
N2    N     N_1   0.056648 0.234546 0.137851 -0.327698
C63   C     C_1   0.198054 0.417957 0.323967 0.227457
N3    N     N_1   0.221753 0.312169 0.348161 -0.311517
C64   C     C_1   0.434679 0.874386 0.689418 0.205322
N4    N     N_1   0.366491 0.986521 0.667542 -0.323364
H37   H     H_    0.705673 0.819396 0.662272 0.127459
H38   H     H_    0.729314 0.455006 0.826537 0.125897

loop_
_geom_bond_atom_site_label_1
_geom_bond_atom_site_label_2
_ccdc_geom_bond_type
C44   C49   S    
C8    C13   S    
C31   H19   S    
C48   H29   S    
C32   C45   S    
C34   O26   A    
C37   H22   S    
C35   C36   A    
C40   H27   S    
C9    C14   S    
C60   H33   S    
C61   N1    T    
Cr3   O23   S    
C64   N4    T    
C7    C11   A    
C38   H23   S    
C26   C27   A    
C5    H4    S    
C18   C24   A    
C14   H8    S    
C28   C29   A    
C29   H17   S    
C10   C15   A    
Cr2   O26   S    
C23   O1    A    
C30   C62   S    
C42   C57   S    
C6    H35   S    
C59   C64   S    
C16   C53   S    
C36   C40   S    
C45   O2    A    
C58   H11   S    
C49   H32   S    
Cr5   O19   S    
C19   C20   A    
C8    C9    A    
C54   O15   A    
Cr1   O25   S    
Cr6   O10   S    
Cr3   O4    S    
C43   C48   S    
C39   H24   S    
C28   H36   S    
C34   O25   A    
C57   O18   A    
C10   H5    S    
C15   C23   S    
C2    H34   S    
C51   O8    A    
Cr4   O14   S    
Cr6   O19   S    
C21   C22   S    
C30   H18   S    
C36   C41   A    
C2    C6    S    
C1    O12   A    
C28   C32   A    
C39   H25   S    
Cr4   O7    S    
C25   C29   A    
Cr5   O9    S    
C34   C50   S    
C31   H21   S    
C27   C31   S    
C2    H38   S    
C22   H15   S    
C7    C8    A    
Cr4   O13   S    
C4    C6    S    
C39   C40   S    
C16   C17   A    
C52   O10   A    
C25   C26   A    
C17   C21   S    
C35   C39   S    
C43   C44   A    
C41   C56   S    
C37   C38   A    
C45   O3    A    
C4    C59   S    
C53   O6    A    
C52   O9    A    
C16   C20   A    
C54   O14   A    
C21   H13   S    
C17   C18   A    
C56   O24   A    
C40   H26   S    
Cr3   O5    S    
C51   O7    A    
Cr1   O5    S    
Cr5   O8    S    
C23   O23   A    
C53   O11   A    
C48   C49   S    
C13   H7    S    
C26   C30   S    
Cr6   O18   S    
Cr1   O12   S    
C63   N3    T    
Cr5   O15   S    
C4    C12   S    
C42   C43   A    
C62   N2    T    
C22   H16   S    
Cr2   O21   S    
Cr4   O6    S    
Cr2   O2    S    
C55   O16   A    
C44   C50   A    
C33   C54   S    
C46   C47   A    
C19   H10   S    
C48   H30   S    
C5    C60   S    
C27   C32   A    
C18   C22   S    
C25   C55   S    
Cr3   O3    S    
Cr3   O22   S    
C3    C52   S    
C5    H37   S    
C57   O13   A    
Cr2   O5    S    
C13   H6    S    
C46   C50   A    
C33   C38   A    
Cr4   O19   S    
C20   H12   S    
C14   H9    S    
C2    C3    S    
C58   C59   S    
C59   H20   S    
C7    C51   S    
C3    C60   S    
C46   C63   S    
C30   C31   S    
C12   O22   A    
C60   H3    S    
C21   H14   S    
C6    H2    S    
C33   C35   A    
C47   H28   S    
C19   C24   A    
C11   C61   S    
C42   C47   A    
C37   C41   A    
C1    O20   A    
C56   O4    A    
C10   C11   A    
C49   H31   S    
C3    C58   S    
C58   H1    S    
C4    C5    S    
C12   O21   A    
C1    C24   S    
Cr6   O17   S    
Cr5   O16   S    
Cr1   O24   S    
Cr6   O11   S    
C13   C14   S    
Cr1   O1    S    
Cr2   O20   S    
C9    C15   A    
C55   O17   A    
