data_mof_unit_52579.cif
_audit_creation_date              2012-12-10T17:04:26-0500
_audit_creation_method            fapswitch 2.2
_symmetry_space_group_name_H-M    P1
_symmetry_Int_Tables_number       1
_space_group_crystal_system       triclinic
_cell_length_a                    15.064046
_cell_length_b                    10.502945
_cell_length_c                    10.046371
_cell_angle_alpha                 92.392231
_cell_angle_beta                  89.233403
_cell_angle_gamma                 90.25408
_cell_volume                      1587.9657861

loop_
_atom_site_label
_atom_site_type_symbol
_atom_type_description
_atom_site_fract_x
_atom_site_fract_y
_atom_site_fract_z
_atom_type_partial_charge
C1    C     C_R   0.504480 0.260255 0.496034 0.886621
C2    C     C_R   0.187299 0.397866 0.445489 0.385121
C3    C     C_R   0.232331 0.500837 0.505093 -0.252881
C4    C     C_R   0.327429 0.500944 0.501248 1.014815
C5    C     C_R   0.187500 0.603055 0.569054 0.376512
C6    C     C_2   0.446181 0.931373 0.397001 0.207732
C7    C     C_2   0.461731 0.870550 0.509495 0.110848
C8    C     C_2   0.486339 0.058233 0.377390 0.233397
C9    C     C_2   0.521750 0.124295 0.482688 0.054839
C10   C     C_2   0.522951 0.595985 0.929419 -0.028887
C11   C     C_2   0.545875 0.577780 0.071511 0.484940
C12   C     C_R   0.907514 0.599921 0.568225 -0.142725
C13   C     C_R   0.488634 0.737743 0.502773 0.946897
C14   C     C_R   0.673545 0.499214 0.499221 0.990359
C15   C     C_R   0.815623 0.584783 0.583950 0.355459
C16   C     C_R   0.770287 0.499112 0.497818 -0.257307
C17   C     C_R   0.817226 0.414866 0.409938 0.399913
C18   C     C_R   0.910266 0.406790 0.418373 -0.148285
C19   C     C_R   0.955372 0.504591 0.493902 -0.041443
C20   C     C_R   0.960845 0.310935 0.347349 0.280207
C21   C     C_R   0.051942 0.327812 0.333987 0.381532
C22   C     C_R   0.096521 0.410658 0.423270 -0.126281
C23   C     C_R   0.048643 0.505830 0.497195 -0.068034
C24   C     C_R   0.094122 0.600375 0.576099 -0.096345
C25   C     C_R   0.044516 0.692569 0.651373 0.376820
C26   C     C_R   0.953673 0.702907 0.631147 0.293099
Cl1   Cl    Cl    0.759320 0.659245 0.722870 -0.403362
Cl2   Cl    Cl    0.430394 0.940174 0.666774 -0.438411
Cl3   Cl    Cl    0.396523 0.450856 0.095250 -0.344689
Cl4   Cl    Cl    0.759349 0.330969 0.281797 -0.331961
Cl5   Cl    Cl    0.106246 0.261525 0.189512 -0.315727
Cl6   Cl    Cl    0.250990 0.737348 0.624449 -0.400997
Cl7   Cl    Cl    0.088043 0.783303 0.788575 -0.299382
H1    H     H_    0.534723 0.687689 0.886523 0.228686
H2    H     H_    0.504252 0.412323 0.891152 0.225687
H3    H     H_    0.565748 0.980652 0.037623 0.415305
H4    H     H_    0.679277 0.239871 0.653141 0.370572
H5    H     H_    0.736112 0.790738 0.036895 0.431310
H6    H     H_    0.861978 0.130598 0.499862 0.392598
H7    H     H_    0.322658 0.139845 0.563396 0.399533
H8    H     H_    0.840979 0.850723 0.462103 0.379439
H9    H     H_    0.252749 0.970811 0.252653 0.420793
N1    N     N_2   0.500970 0.501330 0.852150 -0.190026
N2    N     N_2   0.500990 0.501360 0.147810 -0.004278
O1    O     O_R   0.499990 0.319060 0.613040 -0.593839
O2    O     O_2   0.597780 0.185583 0.213971 -0.197211
O3    O     O_3   0.558226 0.957857 0.131808 -0.434998
O4    O     O_2   0.616201 0.014621 0.674811 -0.202389
O5    O     O_2   0.667650 0.981793 0.444324 -0.149181
O6    O     O_3   0.692993 0.203531 0.562685 -0.526289
O7    O     O_2   0.639956 0.722502 0.253832 -0.236878
O8    O     O_2   0.717652 0.553259 0.125466 -0.238149
O9    O     O_3   0.677558 0.757968 0.007182 -0.487850
O10   O     O_2   0.889655 0.146786 0.164707 -0.121693
O11   O     O_2   0.994594 0.058604 0.318498 -0.191560
O12   O     O_R   0.500010 0.319100 0.386900 -0.555082
O13   O     O_3   0.838289 0.113806 0.409302 -0.400670
O14   O     O_2   0.173775 0.139354 0.430798 -0.220769
O15   O     O_2   0.297561 0.237718 0.309788 -0.199363
O16   O     O_3   0.305013 0.230566 0.567223 -0.549317
O17   O     O_2   0.878743 0.882481 0.794967 -0.125043
O18   O     O_2   0.974438 0.956718 0.615982 -0.213566
O19   O     O_3   0.818337 0.871876 0.553358 -0.424577
O20   O     O_2   0.424971 0.795001 0.164439 -0.198990
O21   O     O_2   0.312568 0.767092 0.336834 -0.292973
O22   O     O_3   0.311690 0.976160 0.208404 -0.386329
O23   O     O_R   0.367830 0.499950 0.613080 -0.562341
O24   O     O_R   0.367860 0.499990 0.386940 -0.544928
O25   O     O_R   0.499990 0.680900 0.613100 -0.574446
O26   O     O_R   0.500010 0.680940 0.386960 -0.578049
O27   O     O_R   0.632140 0.500010 0.613060 -0.599146
O28   O     O_R   0.632170 0.500050 0.386920 -0.544262
O29   O     O_2   0.446633 0.145474 0.137082 -0.160952
S1    S     S_3+6 0.522472 0.091733 0.212088 0.181971
S2    S     S_3+6 0.626047 0.075874 0.542911 0.136845
S3    S     S_3+6 0.646807 0.652740 0.120956 0.113152
S4    S     S_3+6 0.921286 0.153910 0.306089 0.179335
S5    S     S_3+6 0.240629 0.246124 0.433641 0.083540
S6    S     S_3+6 0.906632 0.858019 0.652014 0.167059
S7    S     S_3+6 0.373285 0.862344 0.274695 0.156427
Zn1   Zn    Zn3+2 0.499980 0.499970 0.650990 1.115783
Zn2   Zn    Zn3+2 0.500020 0.500030 0.349010 1.224718

loop_
_geom_bond_atom_site_label_1
_geom_bond_atom_site_label_2
_ccdc_geom_bond_type
H7    O16   S    
O29   S1    D    
O19   S6    S    
C21   Cl5   S    
O16   S5    S    
C20   S4    S    
C1    O12   A    
N2    Zn2   S    
C11   S3    S    
O11   S4    D    
C13   O26   A    
C15   C16   A    
H6    O13   S    
H3    O3    S    
C18   C19   A    
C14   O27   A    
C15   Cl1   S    
C8    C9    D    
C2    C22   A    
C23   C24   A    
O5    S2    D    
H2    N1    S    
C5    Cl6   S    
C5    C24   A    
O21   S7    D    
C21   C22   A    
C17   Cl4   S    
O20   S7    D    
O4    S2    D    
O15   S5    D    
O13   S4    S    
O18   S6    D    
C1    C9    S    
O7    S3    D    
C4    O24   A    
C16   C17   A    
C6    C8    S    
C3    C5    A    
C25   C26   A    
C7    Cl2   S    
C12   C26   A    
C19   C23   A    
C2    S5    S    
C6    S7    S    
C12   C15   A    
C8    S1    S    
C17   C18   A    
C11   N2    D    
C10   H1    S    
C24   C25   A    
O23   Zn1   S    
Cl3   N2    S    
N1    Zn1   S    
C14   C16   S    
O9    S3    S    
H8    O19   S    
C3    C4    S    
O2    S1    D    
C10   N1    D    
C14   O28   A    
O1    Zn1   S    
O3    S1    S    
O8    S3    D    
C4    O23   A    
O12   Zn2   S    
C6    C7    D    
O22   S7    S    
C26   S6    S    
O24   Zn2   S    
O10   S4    D    
C2    C3    A    
O6    S2    S    
H4    O6    S    
C1    O1    A    
H5    O9    S    
C13   O25   A    
O17   S6    D    
C12   C19   A    
C18   C20   A    
O26   Zn2   S    
O25   Zn1   S    
C10   C11   S    
O14   S5    D    
C7    C13   S    
C20   C21   A    
H9    O22   S    
C22   C23   A    
C9    S2    S    
O28   Zn2   S    
C25   Cl7   S    
O27   Zn1   S    
