data_mof_unit_51662.cif
_audit_creation_date              2012-12-10T16:59:56-0500
_audit_creation_method            fapswitch 2.2
_symmetry_space_group_name_H-M    P1
_symmetry_Int_Tables_number       1
_space_group_crystal_system       triclinic
_cell_length_a                    15.063332
_cell_length_b                    15.102761
_cell_length_c                    10.009221
_cell_angle_alpha                 90.490127
_cell_angle_beta                  92.762218
_cell_angle_gamma                 90.404155
_cell_volume                      2274.28436998

loop_
_atom_site_label
_atom_site_type_symbol
_atom_type_description
_atom_site_fract_x
_atom_site_fract_y
_atom_site_fract_z
_atom_type_partial_charge
C1    C     C_R   0.379730 0.882085 0.496785 0.853517
C2    C     C_2   0.757366 0.173109 0.404557 0.637628
C3    C     C_2   0.182963 0.251427 0.393260 0.491030
C4    C     C_2   0.257366 0.673109 0.404557 0.637633
C5    C     C_2   0.651202 0.787488 0.505414 -0.227501
C6    C     C_2   0.715013 0.149582 0.515134 -0.241625
C7    C     C_2   0.151203 0.287489 0.505416 -0.227493
C8    C     C_2   0.215013 0.649581 0.515134 -0.241625
C9    C     C_2   0.242656 0.176333 0.407677 -0.185891
C10   C     C_2   0.329994 0.738072 0.421465 -0.220502
C11   C     C_2   0.742655 0.676333 0.407674 -0.185900
C12   C     C_R   0.381007 0.118416 0.497496 0.908750
C13   C     C_2   0.829994 0.238072 0.421465 -0.220495
C14   C     C_2   0.317300 0.188064 0.487502 0.310930
C15   C     C_2   0.311543 0.815093 0.484677 0.283080
C16   C     C_2   0.817297 0.688060 0.487504 0.310923
C17   C     C_2   0.811542 0.315093 0.484676 0.283085
C18   C     C_2   0.571831 0.992286 0.929864 -0.157403
C19   C     C_2   0.071830 0.492282 0.929864 -0.157400
C20   C     C_2   0.572232 0.997040 0.080130 -0.074712
C21   C     C_2   0.072232 0.497037 0.080130 -0.074711
C22   C     C_3   0.737310 0.798134 0.193382 -0.269264
C23   C     C_R   0.879730 0.382085 0.496785 0.853501
C24   C     C_3   0.730599 0.205148 0.179977 -0.249191
C25   C     C_3   0.237301 0.298122 0.193371 -0.269251
C26   C     C_3   0.230597 0.705150 0.179978 -0.249188
C27   C     C_2   0.651713 0.739857 0.636511 0.432341
C28   C     C_2   0.756184 0.161078 0.653910 0.351248
C29   C     C_2   0.151720 0.239860 0.636516 0.432321
C30   C     C_2   0.256185 0.661076 0.653909 0.351249
C31   C     C_2   0.214717 0.093944 0.333193 0.397325
C32   C     C_2   0.420044 0.712457 0.379629 0.439369
C33   C     C_2   0.714719 0.593948 0.333178 0.397333
C34   C     C_R   0.881006 0.618415 0.497496 0.908771
C35   C     C_2   0.920044 0.212456 0.379632 0.439363
C36   C     C_3   0.421741 0.297583 0.544790 -0.284804
C37   C     C_3   0.216789 0.887146 0.626684 -0.198459
C38   C     C_3   0.921719 0.797604 0.544721 -0.284817
C39   C     C_3   0.716788 0.387150 0.626677 -0.198459
C40   C     C_R   0.626604 0.110417 0.503419 0.863762
C41   C     C_R   0.611897 0.874776 0.501342 0.849415
C42   C     C_R   0.126604 0.610417 0.503419 0.863763
C43   C     C_R   0.111897 0.374776 0.501342 0.849425
C44   C     C_2   0.682964 0.751428 0.393258 0.491024
H1    H     H_    0.635122 0.983100 0.884510 0.163840
H2    H     H_    0.790483 0.834667 0.252729 0.179500
H3    H     H_    0.719110 0.838615 0.104390 0.188970
H4    H     H_    0.694411 0.179261 0.088517 0.174181
H5    H     H_    0.799521 0.221037 0.152864 0.187527
H6    H     H_    0.695750 0.266034 0.211831 0.176142
H7    H     H_    0.262451 0.233806 0.156656 0.149104
H8    H     H_    0.290481 0.334651 0.252710 0.179518
H9    H     H_    0.219100 0.338601 0.104380 0.188963
H10   H     H_    0.194408 0.679263 0.088518 0.174183
H11   H     H_    0.299518 0.721040 0.152863 0.187525
H12   H     H_    0.135121 0.483091 0.884510 0.163838
H13   H     H_    0.195748 0.766035 0.211833 0.176139
H14   H     H_    0.650396 0.777037 0.729642 0.103547
H15   H     H_    0.714375 0.167643 0.738714 0.093472
H16   H     H_    0.150406 0.277043 0.729646 0.103545
H17   H     H_    0.214377 0.667639 0.738714 0.093475
H18   H     H_    0.163163 0.097768 0.253895 0.122629
H19   H     H_    0.476583 0.756331 0.395712 0.062871
H20   H     H_    0.663171 0.597776 0.253872 0.122627
H21   H     H_    0.976583 0.256331 0.395714 0.062875
H22   H     H_    0.426445 0.367911 0.577387 0.218429
H23   H     H_    0.441895 0.013257 0.893713 0.170178
H24   H     H_    0.442706 0.294175 0.439656 0.155137
H25   H     H_    0.467769 0.259250 0.611932 0.175613
H26   H     H_    0.238517 0.956454 0.609970 0.219813
H27   H     H_    0.146006 0.889166 0.652347 0.178479
H28   H     H_    0.254882 0.857855 0.713324 0.147980
H29   H     H_    0.926417 0.867925 0.577353 0.218436
H30   H     H_    0.942628 0.794228 0.439558 0.155134
H31   H     H_    0.967792 0.759269 0.611788 0.175593
H32   H     H_    0.738516 0.456457 0.609958 0.219810
H33   H     H_    0.646004 0.389172 0.652338 0.178476
H34   H     H_    0.941896 0.513262 0.893713 0.170180
H35   H     H_    0.754879 0.357861 0.713320 0.147981
H36   H     H_    0.636263 0.996590 0.134520 0.200811
H37   H     H_    0.136263 0.496585 0.134520 0.200811
H38   H     H_    0.440444 0.995751 0.097730 0.162550
H39   H     H_    0.940444 0.495752 0.097730 0.162552
H40   H     H_    0.762467 0.733822 0.156667 0.149105
N1    N     N_2   0.501330 0.000000 0.852150 -0.185552
N2    N     N_2   0.001330 0.500000 0.852150 -0.185550
N3    N     N_2   0.501360 1.000000 0.147810 -0.186761
N4    N     N_2   0.001360 0.500000 0.147810 -0.186760
O1    O     O_R   0.409520 0.909540 0.613040 -0.623830
O2    O     O_R   0.590440 0.909540 0.613100 -0.641297
O3    O     O_R   0.090440 0.590460 0.613100 -0.642055
O4    O     O_R   0.090440 0.409540 0.613100 -0.641301
O5    O     O_R   0.590480 0.090460 0.386960 -0.550697
O6    O     O_R   0.590480 0.909540 0.386960 -0.544322
O7    O     O_R   0.090480 0.590460 0.386960 -0.550696
O8    O     O_R   0.090480 0.409540 0.386960 -0.544324
O9    O     O_3   0.660733 0.785781 0.267209 -0.599838
O10   O     O_3   0.730126 0.139139 0.278937 -0.596666
O11   O     O_3   0.160729 0.285777 0.267210 -0.599840
O12   O     O_R   0.409520 0.090460 0.613040 -0.604005
O13   O     O_3   0.230125 0.639140 0.278936 -0.596662
O14   O     O_2   0.649859 0.659079 0.641446 -0.568732
O15   O     O_2   0.836699 0.159872 0.675228 -0.561002
O16   O     O_2   0.149866 0.159083 0.641455 -0.568735
O17   O     O_2   0.336701 0.659870 0.675226 -0.561001
O18   O     O_2   0.244696 0.021460 0.362189 -0.564255
O19   O     O_2   0.431941 0.640408 0.327437 -0.524567
O20   O     O_2   0.744695 0.521462 0.362173 -0.564255
O21   O     O_2   0.931942 0.140407 0.327442 -0.524577
O22   O     O_3   0.333076 0.268393 0.555373 -0.641582
O23   O     O_R   0.909520 0.409540 0.613040 -0.623832
O24   O     O_3   0.223282 0.835143 0.509802 -0.631492
O25   O     O_3   0.833073 0.768382 0.555391 -0.641574
O26   O     O_3   0.723282 0.335144 0.509800 -0.631495
O27   O     O_R   0.909520 0.590460 0.613040 -0.603984
O28   O     O_R   0.409560 0.909540 0.386900 -0.611426
O29   O     O_R   0.409560 0.090460 0.386900 -0.617633
O30   O     O_R   0.909560 0.409540 0.386900 -0.611426
O31   O     O_R   0.909560 0.590460 0.386900 -0.617644
O32   O     O_R   0.590440 0.090460 0.613100 -0.642062
Zn1   Zn    Zn3+2 0.499970 0.000000 0.650990 0.948765
Zn2   Zn    Zn3+2 0.999970 0.500000 0.650990 0.948778
Zn3   Zn    Zn3+2 0.500030 0.000000 0.349010 1.007125
Zn4   Zn    Zn3+2 0.000030 0.500000 0.349010 1.007125

loop_
_geom_bond_atom_site_label_1
_geom_bond_atom_site_label_2
_ccdc_geom_bond_type
C19   H12   S    
O7    Zn4   S    
C7    C29   S    
O28   Zn3   S    
C40   O5    A    
C4    C8    D    
C19   N2    D    
C16   O25   S    
C23   O30   A    
O31   Zn4   S    
C36   H25   S    
C17   C23   S    
C24   O10   S    
C39   H33   S    
C19   C21   S    
C25   H9    S    
O12   Zn1   S    
C3    C7    D    
C10   C15   D    
C26   O13   S    
C36   H22   S    
C35   H21   S    
H38   N3    S    
C20   N3    D    
C24   H5    S    
C42   O3    A    
C44   O9    S    
C2    C13   S    
C37   O24   S    
C16   C34   S    
C5    C27   S    
C25   O11   S    
C6    C28   S    
O3    Zn2   S    
N2    Zn2   S    
N1    Zn1   S    
C1    C15   S    
C1    O28   A    
C7    C43   S    
C35   O21   D    
N4    Zn4   S    
O6    Zn3   S    
H34   N2    S    
H39   N4    S    
C21   N4    D    
O27   Zn2   S    
C37   H26   S    
C26   H11   S    
O23   Zn2   S    
C31   H18   S    
C2    C6    D    
C33   O20   D    
C26   H10   S    
C17   O26   S    
C38   H31   S    
C24   H6    S    
H23   N1    S    
C18   N1    D    
C20   H36   S    
C42   O7    A    
C24   H4    S    
C11   C33   S    
C38   O25   S    
O8    Zn4   S    
C34   O27   A    
C32   O19   D    
C29   O16   D    
C39   H35   S    
C3    O11   S    
C9    C14   D    
C25   H7    S    
C3    C9    S    
O4    Zn2   S    
C11   C16   D    
C41   O6    A    
C29   H16   S    
C39   O26   S    
C4    O13   S    
C43   O8    A    
C11   C44   S    
O30   Zn4   S    
C39   H32   S    
C22   H2    S    
C5    C44   D    
C21   H37   S    
C37   H27   S    
C30   O17   D    
C36   O22   S    
C31   O18   D    
C6    C40   S    
C30   H17   S    
C4    C10   S    
C18   H1    S    
O32   Zn1   S    
C38   H30   S    
C28   H15   S    
C34   O31   A    
C14   O22   S    
C5    C41   S    
C1    O1    A    
C40   O32   A    
C15   O24   S    
O5    Zn3   S    
C32   H19   S    
C8    C42   S    
C27   H14   S    
C36   H24   S    
C13   C35   S    
C23   O23   A    
C27   O14   D    
C43   O4    A    
C13   C17   D    
C8    C30   S    
C12   C14   S    
C25   H8    S    
N3    Zn3   S    
C28   O15   D    
O1    Zn1   S    
C33   H20   S    
O2    Zn1   S    
C41   O2    A    
C18   C20   S    
O29   Zn3   S    
C26   H13   S    
C22   H3    S    
C12   O12   A    
C9    C31   S    
C12   O29   A    
C10   C32   S    
C2    O10   S    
C37   H28   S    
C22   O9    S    
C22   H40   S    
C38   H29   S    
