data_mof_unit_14167.cif
_audit_creation_date              2012-12-11T14:30:54-0500
_audit_creation_method            fapswitch 2.2
_symmetry_space_group_name_H-M    P1
_symmetry_Int_Tables_number       1
_space_group_crystal_system       triclinic
_cell_length_a                    17.610259
_cell_length_b                    24.198729
_cell_length_c                    15.115591
_cell_angle_alpha                 90.463054
_cell_angle_beta                  125.290968
_cell_angle_gamma                 89.562621
_cell_volume                      5257.4872718

loop_
_atom_site_label
_atom_site_type_symbol
_atom_type_description
_atom_site_fract_x
_atom_site_fract_y
_atom_site_fract_z
_atom_type_partial_charge
C1    C     C_R   0.807147 0.620441 0.908998 -0.176040
C2    C     C_R   0.145176 0.653986 0.089715 -0.152550
C3    C     C_R   0.306896 0.119771 0.909498 -0.178112
C4    C     C_R   0.645636 0.153886 0.089896 -0.150125
C5    C     C_R   0.825759 0.356082 0.006848 0.122084
C6    C     C_R   0.118407 0.319062 0.994040 0.124381
C7    C     C_R   0.339129 0.842546 0.004720 0.120791
C8    C     C_R   0.619708 0.819523 0.994119 0.125855
C9    C     C_R   0.036409 0.500611 0.347673 -0.020511
C10   C     C_R   0.947521 0.500817 0.641577 0.033991
C11   C     C_R   0.523792 0.998858 0.339992 0.007043
C12   C     C_R   0.443027 0.002542 0.638821 0.029231
C13   C     C_R   0.697905 0.499379 0.639764 -0.076801
C14   C     C_R   0.323506 0.501221 0.319181 -0.072306
C15   C     C_R   0.198128 0.000921 0.638112 -0.065385
C16   C     C_R   0.820791 0.001562 0.332383 -0.072966
C17   C     C_3   0.531459 0.480804 0.566360 -0.222061
C18   C     C_3   0.482368 0.449886 0.457096 -0.214256
C19   C     C_3   0.034675 0.986836 0.579947 -0.217545
C20   C     C_3   0.980080 0.950974 0.476441 -0.221628
C21   C     C_3   0.471661 0.531987 0.511160 0.077258
C22   C     C_3   0.553361 0.472445 0.438331 0.067079
C23   C     C_3   0.973856 0.037087 0.519197 0.075192
C24   C     C_3   0.046276 0.968696 0.446368 0.083059
C25   C     C_3   0.422486 0.501491 0.402722 0.150487
C26   C     C_3   0.602352 0.502207 0.547108 0.141768
C27   C     C_3   0.919578 0.001810 0.416504 0.155455
C28   C     C_3   0.100779 0.003605 0.549358 0.147408
C29   C     C_3   0.492570 0.524232 0.382615 -0.223188
C30   C     C_3   0.543087 0.554771 0.493557 -0.209822
C31   C     C_3   0.984947 0.019543 0.385539 -0.221174
C32   C     C_3   0.040761 0.054988 0.490528 -0.230403
C33   C     C_2   0.119817 0.766661 0.912313 -0.123464
C34   C     C_2   0.746070 0.682334 0.085023 -0.103557
C35   C     C_2   0.615216 0.269813 0.914169 -0.117884
C36   C     C_2   0.245963 0.182253 0.085301 -0.108137
C37   C     C_2   0.136314 0.742427 0.000770 -0.195476
C38   C     C_2   0.733359 0.658692 0.997068 -0.180950
C39   C     C_2   0.634177 0.243357 0.002083 -0.197848
C40   C     C_2   0.233372 0.158549 0.997456 -0.181928
C41   C     C_2   0.670890 0.317121 0.923516 -0.110493
C42   C     C_2   0.189496 0.229543 0.077412 -0.120369
C43   C     C_2   0.183468 0.808477 0.922574 -0.107908
C44   C     C_2   0.690143 0.729879 0.077264 -0.119182
C45   C     C_R   0.912067 0.371409 0.095437 -0.101637
C46   C     C_R   0.059704 0.351767 0.905590 -0.135877
C47   C     C_R   0.419116 0.864048 0.094577 -0.093660
C48   C     C_R   0.559242 0.851759 0.905414 -0.140393
C49   C     C_2   0.759215 0.323124 0.010538 -0.167533
C50   C     C_2   0.144452 0.262283 0.989576 -0.193195
C51   C     C_2   0.274295 0.806503 0.004498 -0.178949
C52   C     C_2   0.645829 0.762794 0.989677 -0.193470
C53   C     C_2   0.943985 0.465350 0.402248 0.381676
C54   C     C_2   0.932776 0.455225 0.488285 0.284839
C55   C     C_2   0.426990 0.964693 0.391561 0.345902
C56   C     C_2   0.404900 0.958726 0.471280 0.303728
C57   C     C_2   0.015633 0.497672 0.425989 0.417354
C58   C     C_2   0.915467 0.499729 0.528001 0.437232
C59   C     C_2   0.502791 0.994471 0.418805 0.412991
C60   C     C_2   0.407512 0.004630 0.523324 0.460971
C61   C     C_R   0.033119 0.546997 0.293828 -0.147700
C62   C     C_R   0.959703 0.547065 0.702983 -0.121638
C63   C     C_R   0.526811 0.046022 0.290815 -0.158928
C64   C     C_R   0.456809 0.047854 0.702403 -0.125683
C65   C     C_R   0.742830 0.453451 0.703096 0.002112
C66   C     C_R   0.267325 0.454885 0.274519 0.014643
C67   C     C_R   0.242036 0.955206 0.701285 0.016667
C68   C     C_R   0.766032 0.955351 0.282402 0.018153
C69   C     C_R   0.038569 0.455156 0.295308 -0.043812
C70   C     C_R   0.958944 0.455335 0.702462 -0.112999
C71   C     C_R   0.529448 0.954069 0.289205 -0.049088
C72   C     C_R   0.459523 0.956121 0.701717 -0.125770
C73   C     C_R   0.749713 0.545695 0.692736 0.013386
C74   C     C_R   0.267901 0.547693 0.276796 0.012248
C75   C     C_R   0.249867 0.046774 0.693244 0.005943
C76   C     C_R   0.766212 0.047765 0.283981 0.008675
C77   C     C_R   0.818254 0.372547 0.914813 -0.124929
C78   C     C_R   0.141278 0.348498 0.084775 -0.127629
C79   C     C_R   0.330241 0.861789 0.913773 -0.148175
C80   C     C_R   0.643735 0.849129 0.085263 -0.123865
C81   C     C_R   0.900809 0.624421 0.089878 -0.098495
C82   C     C_R   0.058244 0.651754 0.909603 -0.111495
C83   C     C_R   0.401102 0.124755 0.090023 -0.096908
C84   C     C_R   0.558449 0.151941 0.909847 -0.114361
C85   C     C_R   0.810683 0.634020 0.000095 0.144121
C86   C     C_R   0.115882 0.684440 0.998945 0.125411
C87   C     C_R   0.310727 0.133827 0.000537 0.142416
C88   C     C_R   0.616464 0.184598 0.999348 0.125383
H1    H     H_    0.745644 0.621354 0.826493 0.109016
H2    H     H_    0.174655 0.671878 0.168449 0.129365
H3    H     H_    0.244817 0.119898 0.827387 0.109068
H4    H     H_    0.674785 0.171727 0.168545 0.129780
H5    H     H_    0.546933 0.465554 0.644353 0.125289
H6    H     H_    0.466963 0.405729 0.454241 0.159713
H7    H     H_    0.054927 0.976334 0.662277 0.124813
H8    H     H_    0.962271 0.908471 0.484198 0.155459
H9    H     H_    0.475857 0.541279 0.305298 0.123038
H10   H     H_    0.565768 0.598433 0.505772 0.136684
H11   H     H_    0.962325 0.032523 0.303361 0.121607
H12   H     H_    0.063633 0.097860 0.492999 0.137641
H13   H     H_    0.070855 0.749599 0.831953 0.117782
H14   H     H_    0.807859 0.673451 0.165214 0.122522
H15   H     H_    0.569483 0.251755 0.834009 0.118177
H16   H     H_    0.307871 0.173530 0.165499 0.122363
H17   H     H_    0.181742 0.761816 0.079923 0.135234
H18   H     H_    0.668944 0.664662 0.917541 0.128824
H19   H     H_    0.675465 0.262854 0.081448 0.130854
H20   H     H_    0.168871 0.164328 0.917927 0.130897
H21   H     H_    0.644501 0.340865 0.850515 0.117692
H22   H     H_    0.199688 0.242700 0.152270 0.129311
H23   H     H_    0.157800 0.836644 0.855362 0.126101
H24   H     H_    0.700009 0.742940 0.152001 0.129218
H25   H     H_    0.787816 0.299027 0.083522 0.127015
H26   H     H_    0.135354 0.250429 0.914736 0.129663
H27   H     H_    0.302154 0.777964 0.071629 0.130944
H28   H     H_    0.636980 0.751004 0.914950 0.129226
H29   H     H_    0.941175 0.362697 0.179181 0.111617
H30   H     H_    0.019664 0.338535 0.821823 0.093649
H31   H     H_    0.449622 0.853724 0.178032 0.099693
H32   H     H_    0.517140 0.838214 0.821732 0.094385
H33   H     H_    0.039691 0.589362 0.320371 0.091386
H34   H     H_    0.947808 0.589835 0.678394 0.108636
H35   H     H_    0.533297 0.088014 0.319032 0.096331
H36   H     H_    0.442635 0.090751 0.679228 0.106834
H37   H     H_    0.049854 0.412690 0.321929 0.081668
H38   H     H_    0.945392 0.413000 0.676904 0.165011
H39   H     H_    0.538356 0.911420 0.313998 0.084574
H40   H     H_    0.455722 0.913229 0.680807 0.160210
H41   H     H_    0.760269 0.363972 0.834510 0.119175
H42   H     H_    0.166866 0.330697 0.162340 0.121463
H43   H     H_    0.286714 0.843990 0.835365 0.140104
H44   H     H_    0.672243 0.831653 0.163754 0.122872
H45   H     H_    0.927137 0.631419 0.173268 0.089285
H46   H     H_    0.012902 0.665024 0.826264 0.090638
H47   H     H_    0.427935 0.132638 0.173282 0.088209
H48   H     H_    0.512567 0.165566 0.826791 0.092254
N1    N     N_R   0.892320 0.603520 0.941090 -0.049775
N2    N     N_R   0.107680 0.603520 0.058910 -0.043988
N3    N     N_R   0.392320 0.103520 0.941090 -0.048859
N4    N     N_R   0.607680 0.103520 0.058910 -0.044322
N5    N     N_R   0.953790 0.399020 0.058440 -0.047455
N6    N     N_R   0.046210 0.399020 0.941560 -0.044450
N7    N     N_R   0.453790 0.899020 0.058440 -0.044482
N8    N     N_R   0.546210 0.899020 0.941560 -0.042342
N9    N     N_R   0.026760 0.529450 0.205590 -0.037689
N10   N     N_R   0.973240 0.529450 0.794410 -0.041171
N11   N     N_R   0.526760 0.029450 0.205590 -0.039470
N12   N     N_R   0.473240 0.029450 0.794410 -0.039516
N13   N     N_R   0.819350 0.473090 0.793940 -0.062884
N14   N     N_R   0.180650 0.473090 0.206060 -0.068487
N15   N     N_R   0.319350 0.973090 0.793940 -0.062819
N16   N     N_R   0.680650 0.973090 0.206060 -0.068612
N17   N     N_R   0.027860 0.473090 0.206590 -0.038337
N18   N     N_R   0.972140 0.473090 0.793410 -0.055931
N19   N     N_R   0.527860 0.973090 0.206590 -0.041881
N20   N     N_R   0.472140 0.973090 0.793410 -0.051354
N21   N     N_R   0.818250 0.529450 0.792940 -0.060471
N22   N     N_R   0.181750 0.529450 0.207060 -0.068097
N23   N     N_R   0.318250 0.029450 0.792940 -0.061242
N24   N     N_R   0.681750 0.029450 0.207060 -0.067182
N25   N     N_R   0.896320 0.399020 0.944720 -0.046671
N26   N     N_R   0.103680 0.399020 0.055280 -0.047121
N27   N     N_R   0.396320 0.899020 0.944720 -0.043515
N28   N     N_R   0.603680 0.899020 0.055280 -0.047751
N29   N     N_R   0.949790 0.603520 0.054810 -0.046021
N30   N     N_R   0.050210 0.603520 0.945190 -0.044365
N31   N     N_R   0.449790 0.103520 0.054810 -0.045597
N32   N     N_R   0.550210 0.103520 0.945190 -0.044341
Ni1   Ni    Ni4+2 0.934100 0.565890 0.869590 0.210885
Ni2   Ni    Ni4+2 0.065900 0.565890 0.130410 0.207612
Ni3   Ni    Ni4+2 0.434100 0.065890 0.869590 0.213285
Ni4   Ni    Ni4+2 0.565900 0.065890 0.130410 0.207842
Ni5   Ni    Ni4+2 0.068420 0.436630 0.132700 0.210269
Ni6   Ni    Ni4+2 0.931580 0.436630 0.867300 0.208023
Ni7   Ni    Ni4+2 0.568420 0.936630 0.132700 0.210320
Ni8   Ni    Ni4+2 0.431580 0.936630 0.867300 0.211951
O1    O     O_3   0.886675 0.439668 0.302355 -0.788323
H49   H     H_    0.839782 0.417787 0.303379 0.309674
O2    O     O_3   0.963342 0.405250 0.541749 -0.826643
H50   H     H_    0.976140 0.379710 0.500083 0.311722
O3    O     O_3   0.371569 0.939873 0.290480 -0.788437
H51   H     H_    0.319804 0.920685 0.285606 0.311594
O4    O     O_3   0.391757 0.907056 0.498359 -0.827146
H52   H     H_    0.400574 0.878903 0.456992 0.312238
O5    O     O_3   0.069672 0.525413 0.524076 -0.773374
H53   H     H_    0.115730 0.548065 0.522897 0.304327
O6    O     O_3   0.880561 0.546810 0.464222 -0.776381
H54   H     H_    0.878013 0.577538 0.505507 0.321493
O7    O     O_3   0.561476 0.017867 0.520728 -0.783532
H55   H     H_    0.612577 0.036896 0.523658 0.306325
O8    O     O_3   0.391194 0.054609 0.470283 -0.783750
H56   H     H_    0.409778 0.085847 0.520824 0.322296
C89   C     C_R   0.728915 0.394278 0.665454 0.101846
C90   C     C_R   0.644386 0.366225 0.621750 -0.169608
C91   C     C_R   0.632346 0.311766 0.584288 -0.101321
C92   C     C_R   0.706240 0.283140 0.595178 -0.083001
C93   C     C_R   0.793027 0.308268 0.647870 -0.110406
C94   C     C_R   0.804305 0.362735 0.684949 -0.158847
H57   H     H_    0.590059 0.383809 0.624677 0.110545
H58   H     H_    0.566561 0.291176 0.550176 0.111094
H59   H     H_    0.697417 0.240741 0.567653 0.091967
H60   H     H_    0.852122 0.285170 0.662464 0.101995
H61   H     H_    0.872634 0.379134 0.733810 0.106662
C95   C     C_R   0.292335 0.397885 0.314373 0.119307
C96   C     C_R   0.335155 0.362883 0.280472 -0.178363
C97   C     C_R   0.366579 0.310478 0.326194 -0.130312
C98   C     C_R   0.356003 0.292918 0.406306 -0.134099
C99   C     C_R   0.312895 0.327435 0.439799 -0.124109
C100  C     C_R   0.280709 0.379710 0.393669 -0.173775
H62   H     H_    0.342301 0.375742 0.217426 0.121728
H63   H     H_    0.399315 0.283599 0.299752 0.120095
H64   H     H_    0.381499 0.252614 0.442539 0.107034
H65   H     H_    0.305262 0.313985 0.502355 0.107298
H66   H     H_    0.248811 0.406459 0.421439 0.104728
C101  C     C_R   0.217901 0.896915 0.664591 0.114247
C102  C     C_R   0.145215 0.870204 0.660836 -0.201620
C103  C     C_R   0.126427 0.814293 0.632204 -0.139080
C104  C     C_R   0.179308 0.784558 0.606096 -0.113842
C105  C     C_R   0.250327 0.810864 0.607556 -0.112819
C106  C     C_R   0.268737 0.866812 0.635610 -0.124321
H67   H     H_    0.107177 0.891003 0.687133 0.115200
H68   H     H_    0.071662 0.793908 0.631667 0.118331
H69   H     H_    0.164877 0.741312 0.584044 0.105584
H70   H     H_    0.290370 0.788114 0.585605 0.110317
H71   H     H_    0.321171 0.886712 0.632654 0.133630
C107  C     C_R   0.790747 0.898168 0.319560 0.121897
C108  C     C_R   0.841267 0.865971 0.292320 -0.177629
C109  C     C_R   0.869613 0.812504 0.333622 -0.148094
C110  C     C_R   0.850565 0.791864 0.404925 -0.117563
C111  C     C_R   0.801355 0.824203 0.433223 -0.130269
C112  C     C_R   0.770574 0.877011 0.389762 -0.177915
H72   H     H_    0.858394 0.882283 0.239369 0.133852
H73   H     H_    0.907748 0.787468 0.311881 0.117859
H74   H     H_    0.874635 0.751000 0.438778 0.107815
H75   H     H_    0.787807 0.808801 0.489783 0.106839
H76   H     H_    0.733424 0.901955 0.413085 0.107028
C113  C     C_R   0.758001 0.592630 0.633860 0.113072
C114  C     C_R   0.799579 0.643517 0.684149 -0.181737
C115  C     C_R   0.801327 0.687078 0.625101 -0.137814
C116  C     C_R   0.762929 0.680408 0.515235 -0.109886
C117  C     C_R   0.726000 0.629711 0.465103 -0.117473
C118  C     C_R   0.726167 0.585825 0.524390 -0.169082
H77   H     H_    0.831958 0.650653 0.768458 0.125954
H78   H     H_    0.832605 0.726104 0.664776 0.109843
H79   H     H_    0.762989 0.714019 0.468986 0.104041
H80   H     H_    0.698775 0.623988 0.380579 0.135798
H81   H     H_    0.700567 0.546623 0.483256 0.129423
C119  C     C_R   0.291326 0.604508 0.320553 0.126416
C120  C     C_R   0.356137 0.635980 0.316905 -0.155738
C121  C     C_R   0.375903 0.690225 0.356620 -0.139842
C122  C     C_R   0.330533 0.713590 0.399226 -0.110679
C123  C     C_R   0.265426 0.682701 0.402382 -0.117876
C124  C     C_R   0.246018 0.628325 0.363477 -0.142895
H82   H     H_    0.389166 0.619378 0.280487 0.114526
H83   H     H_    0.425660 0.714356 0.353248 0.114035
H84   H     H_    0.345616 0.755643 0.429516 0.111511
H85   H     H_    0.230419 0.700748 0.435558 0.102660
H86   H     H_    0.196389 0.604669 0.367587 0.110564
C125  C     C_R   0.259224 0.094195 0.636221 0.116778
C126  C     C_R   0.297161 0.145879 0.685536 -0.184066
C127  C     C_R   0.301065 0.189072 0.627333 -0.138674
C128  C     C_R   0.269028 0.181237 0.519611 -0.115116
C129  C     C_R   0.236032 0.129740 0.470977 -0.105162
C130  C     C_R   0.233076 0.086501 0.529364 -0.159798
H87   H     H_    0.325233 0.154123 0.768376 0.126281
H88   H     H_    0.329370 0.228692 0.666138 0.111609
H89   H     H_    0.271051 0.214682 0.474246 0.106374
H90   H     H_    0.213846 0.123010 0.388393 0.134759
H91   H     H_    0.211300 0.046575 0.491225 0.121920
C131  C     C_R   0.787769 0.105090 0.324696 0.129711
C132  C     C_R   0.854017 0.135924 0.322684 -0.155572
C133  C     C_R   0.872188 0.190727 0.359294 -0.141189
C134  C     C_R   0.823928 0.215217 0.397300 -0.102538
C135  C     C_R   0.757575 0.184876 0.398983 -0.105789
C136  C     C_R   0.739589 0.129991 0.362993 -0.151520
H92   H     H_    0.889805 0.118230 0.290379 0.115148
H93   H     H_    0.923111 0.214354 0.357310 0.113658
H94   H     H_    0.837831 0.257678 0.425301 0.109048
H95   H     H_    0.720253 0.203815 0.428409 0.106758
H96   H     H_    0.688714 0.106841 0.365581 0.108543
C137  C     C_R   0.430143 0.561301 0.561966 0.127947
C138  C     C_R   0.364451 0.534059 0.570271 -0.166176
C139  C     C_R   0.328717 0.559749 0.622118 -0.124093
C140  C     C_R   0.357984 0.612827 0.665656 -0.089689
C141  C     C_R   0.423934 0.640046 0.658505 -0.111527
C142  C     C_R   0.460283 0.614363 0.607244 -0.107855
H97   H     H_    0.341597 0.492805 0.537415 0.112388
H98   H     H_    0.279091 0.538239 0.629522 0.126149
H99   H     H_    0.330047 0.632704 0.705546 0.109502
H100  H     H_    0.446987 0.681034 0.692785 0.101372
H101  H     H_    0.511872 0.635949 0.603464 0.099439
C143  C     C_R   0.589452 0.438989 0.385021 0.116503
C144  C     C_R   0.684554 0.427842 0.436622 -0.114404
C145  C     C_R   0.713770 0.392554 0.387936 -0.120810
C146  C     C_R   0.649123 0.370284 0.285314 -0.096554
C147  C     C_R   0.555052 0.383725 0.230685 -0.095365
C148  C     C_R   0.525517 0.418135 0.280079 -0.151075
H102  H     H_    0.736507 0.445871 0.514211 0.102676
H103  H     H_    0.786510 0.382232 0.429837 0.137679
H104  H     H_    0.672062 0.343154 0.247725 0.101884
H105  H     H_    0.504965 0.367412 0.150204 0.112215
H106  H     H_    0.452830 0.429126 0.236104 0.108116
C149  C     C_R   0.937137 0.071726 0.569859 0.130811
C150  C     C_R   0.868995 0.050193 0.580496 -0.166191
C151  C     C_R   0.835894 0.081696 0.629598 -0.111833
C152  C     C_R   0.871343 0.134552 0.669495 -0.090180
C153  C     C_R   0.940308 0.155876 0.660847 -0.111634
C154  C     C_R   0.973273 0.124617 0.611327 -0.110855
H107  H     H_    0.841200 0.009221 0.550194 0.111204
H108  H     H_    0.782907 0.065097 0.636927 0.113964
H109  H     H_    0.845568 0.158926 0.707338 0.105122
H110  H     H_    0.968082 0.196691 0.692283 0.097704
H111  H     H_    0.026998 0.141740 0.605880 0.100222
C155  C     C_R   0.082206 0.933488 0.394943 0.108154
C156  C     C_R   0.074350 0.875767 0.391555 -0.125713
C157  C     C_R   0.105821 0.843367 0.341707 -0.112406
C158  C     C_R   0.143825 0.868476 0.292788 -0.074184
C159  C     C_R   0.148878 0.926018 0.292222 -0.065482
C160  C     C_R   0.117964 0.958371 0.342585 -0.163863
H112  H     H_    0.044624 0.855668 0.428149 0.135620
H113  H     H_    0.100630 0.798797 0.340983 0.101604
H114  H     H_    0.167994 0.843432 0.253959 0.096934
H115  H     H_    0.175324 0.945752 0.251291 0.113690
H116  H     H_    0.118922 0.002775 0.336913 0.105059

loop_
_geom_bond_atom_site_label_1
_geom_bond_atom_site_label_2
_ccdc_geom_bond_type
C15   C75   A    
C130  H91   S    
C80   H44   S    
C22   C29   S    
C55   C59   D    
C49   H25   S    
C19   C20   S    
N7    Ni7   S    
C48   H32   S    
C138  C139  A    
C34   H14   S    
C159  H115  S    
C140  C141  A    
C68   C107  S    
C151  H108  S    
N17   Ni5   S    
C103  H68   S    
C48   N8    A    
C135  C136  A    
C110  H74   S    
C2    H2    S    
C21   C137  S    
N21   Ni1   S    
C160  H116  S    
C36   C42   S    
C124  H86   S    
N20   Ni8   S    
C133  C134  A    
C148  H106  S    
N3    Ni3   S    
C112  H76   S    
N11   N19   A    
C57   O5    S    
C70   H38   S    
N8    N28   A    
C5    C49   S    
C143  C148  A    
C18   C25   S    
C41   C49   D    
C109  C110  A    
C70   N18   A    
C25   C29   S    
C27   C31   S    
O8    H56   S    
C2    N2    A    
C28   C32   S    
C24   C155  S    
C97   C98   A    
C155  C156  A    
C64   H36   S    
C67   N15   A    
C17   C21   S    
C157  C158  A    
C50   H26   S    
C82   H46   S    
C19   C23   S    
C101  C102  A    
C110  C111  A    
C84   N32   A    
C149  C150  A    
N10   N18   A    
C152  C153  A    
N24   Ni4   S    
C77   H41   S    
N3    N31   A    
N31   Ni4   S    
O1    H49   S    
C142  H101  S    
C147  C148  A    
C20   C27   S    
C13   C73   A    
C116  H79   S    
C59   O7    S    
C5    C77   A    
C7    C79   A    
C137  C142  A    
N9    Ni2   S    
N15   Ni8   S    
C139  H98   S    
C84   C88   A    
C92   C93   A    
C53   O1    S    
C134  H94   S    
C136  H96   S    
C127  H88   S    
C101  C106  A    
N25   Ni6   S    
C122  H84   S    
C65   N13   A    
C154  H111  S    
C91   C92   A    
C89   C90   A    
C132  C133  A    
C123  C124  A    
C99   H65   S    
C72   N20   A    
C47   N7    A    
O5    H53   S    
C104  H69   S    
C53   C54   S    
C120  C121  A    
C29   C30   S    
C9    C61   A    
C14   C74   A    
C10   C58   S    
C11   C63   A    
C127  C128  A    
C12   C64   A    
C6    C78   A    
C73   N21   A    
N28   Ni7   S    
C61   H33   S    
C153  H110  S    
C144  H102  S    
C105  H70   S    
C158  H114  S    
N32   Ni3   S    
C8    C52   S    
C66   C95   S    
C44   C52   D    
C16   C27   S    
C20   H8    S    
C15   C67   A    
C138  H97   S    
C41   H21   S    
C113  C114  A    
C64   N12   A    
C111  C112  A    
C43   H23   S    
C63   N11   A    
C14   C66   A    
C132  H92   S    
N18   Ni6   S    
C135  H95   S    
C37   C86   S    
C128  H89   S    
C119  C124  A    
N22   Ni2   S    
C103  C104  A    
C83   N31   A    
C114  H77   S    
C32   H12   S    
N15   N23   A    
C37   H17   S    
C144  C145  A    
C74   C119  S    
C117  H80   S    
C31   C32   S    
C79   H43   S    
N8    Ni8   S    
C17   C18   S    
C93   H60   S    
C6    C50   S    
C19   C28   S    
C109  H73   S    
C42   C50   D    
C75   C125  S    
C26   C30   S    
C153  C154  A    
C13   C26   S    
C17   H5    S    
C62   H34   S    
C1    N1    A    
C150  H107  S    
C69   N17   A    
C45   H29   S    
C155  C160  A    
C21   C25   S    
C58   O6    S    
C16   C76   A    
C131  C136  A    
C24   C28   S    
C126  C127  A    
C81   H45   S    
C128  C129  A    
C4    C88   A    
C30   H10   S    
C152  H109  S    
N2    N30   A    
C42   H22   S    
C145  H103  S    
C96   H62   S    
C116  C117  A    
C93   C94   A    
C35   C41   S    
C156  C157  A    
N14   Ni5   S    
C3    N3    A    
C95   C96   A    
C107  C108  A    
C62   N10   A    
N10   Ni1   S    
C139  C140  A    
C92   H59   S    
C81   C85   A    
C83   C87   A    
C55   C56   S    
C115  C116  A    
N1    N29   A    
C19   H7    S    
C122  C123  A    
C46   N6    A    
N26   Ni5   S    
O3    H51   S    
N11   Ni4   S    
N23   Ni3   S    
C33   H13   S    
C9    C69   A    
C66   N14   A    
C35   H15   S    
C145  C146  A    
C11   C71   A    
C89   C94   A    
N12   Ni3   S    
C54   O2    S    
C46   H30   S    
C3    H3    S    
N13   Ni6   S    
N7    N27   A    
C61   N9    A    
C102  H67   S    
C80   N28   A    
N16   Ni7   S    
C99   C100  A    
C76   C131  S    
C95   C100  A    
C31   H11   S    
C40   H20   S    
C90   C91   A    
C12   C72   A    
C69   H37   S    
C120  H82   S    
C18   C22   S    
C45   N5    A    
C71   H39   S    
C10   C62   A    
C39   C88   S    
C11   C59   S    
C123  H85   S    
C65   C89   S    
C52   H28   S    
C77   N25   A    
C129  H90   S    
C74   N22   A    
C98   C99   A    
C125  C130  A    
C105  C106  A    
C53   C57   D    
C121  C122  A    
C82   C86   A    
C5    C45   A    
C51   H27   S    
C56   C60   D    
C7    C47   A    
C35   C39   D    
C8    C48   A    
C141  C142  A    
C68   N16   A    
C71   N19   A    
C156  H112  S    
C111  H75   S    
C149  C154  A    
C10   C70   A    
C157  H113  S    
C146  C147  A    
C119  C120  A    
C82   N30   A    
N19   Ni7   S    
N29   Ni2   S    
C114  C115  A    
C84   H48   S    
N14   N22   A    
N6    N26   A    
C63   H35   S    
C146  H104  S    
C56   O4    S    
C21   C30   S    
C100  H66   S    
C23   C32   S    
C113  C118  A    
C24   C31   S    
C7    C51   S    
O6    H54   S    
C43   C51   D    
C15   C28   S    
C14   C25   S    
C78   H42   S    
O7    H55   S    
C33   C37   D    
O2    H50   S    
C151  C152  A    
C22   C26   S    
C94   H61   S    
C131  C132  A    
N12   N20   A    
C126  H87   S    
N13   N21   A    
C4    H4    S    
N4    N32   A    
N16   N24   A    
N5    N25   A    
C133  H93   S    
N2    Ni2   S    
C67   C101  S    
O4    H52   S    
N6    Ni6   S    
C13   C65   A    
C96   C97   A    
C39   H19   S    
C72   H40   S    
C17   C26   S    
C40   C87   S    
C143  C144  A    
C117  C118  A    
C107  C112  A    
C97   H63   S    
C108  C109  A    
C115  H78   S    
C16   C68   A    
C23   C27   S    
C22   C143  S    
N1    Ni1   S    
N9    N17   A    
C47   H31   S    
C108  H72   S    
N4    Ni4   S    
N5    Ni5   S    
N27   Ni8   S    
C1    C85   A    
C147  H105  S    
C38   C85   S    
C3    C87   A    
C33   C43   S    
C20   C24   S    
C36   C40   D    
C34   C44   S    
C102  C103  A    
C137  C138  A    
C141  H100  S    
C38   H18   S    
C73   C113  S    
C159  C160  A    
C4    N4    A    
C90   H57   S    
C134  C135  A    
C55   O3    S    
C150  C151  A    
C78   N26   A    
C98   H64   S    
C18   H6    S    
C125  C126  A    
C44   H24   S    
C91   H58   S    
C54   C58   D    
C75   N23   A    
C121  H83   S    
C76   N24   A    
C1    H1    S    
C6    C46   A    
C34   C38   D    
C83   H47   S    
C79   N27   A    
C140  H99   S    
C118  H81   S    
C29   H9    S    
C36   H16   S    
C129  C130  A    
C104  C105  A    
C60   O8    S    
C106  H71   S    
C2    C86   A    
C9    C57   S    
C158  C159  A    
C23   C149  S    
C12   C60   S    
N30   Ni1   S    
C8    C80   A    
C81   N29   A    
