data_mof_unit_68084.cif
_audit_creation_date              2013-03-05T15:51:46-0500
_audit_creation_method            fapswitch 2.2
_symmetry_space_group_name_H-M    P1
_symmetry_Int_Tables_number       1
_space_group_crystal_system       triclinic
_cell_length_a                    7.440094
_cell_length_b                    12.121343
_cell_length_c                    28.903861
_cell_angle_alpha                 90.000165
_cell_angle_beta                  90.890633
_cell_angle_gamma                 90.000162
_cell_volume                      2606.34889667

loop_
_atom_site_label
_atom_site_type_symbol
_atom_site_description
_atom_site_fract_x
_atom_site_fract_y
_atom_site_fract_z
_atom_type_partial_charge
O1    O     O_R   0.647170 0.849180 0.201220 -0.583772
O2    O     O_R   0.352830 0.150820 0.798780 -0.584186
O3    O     O_R   0.352830 0.150820 0.701220 -0.582448
O4    O     O_R   0.647170 0.849180 0.298780 -0.582812
O5    O     O_R   0.147170 0.650820 0.298780 -0.582513
O6    O     O_R   0.852830 0.349180 0.701220 -0.582752
O7    O     O_R   0.852830 0.349180 0.798780 -0.583779
O8    O     O_R   0.147170 0.650820 0.201220 -0.584176
O9    O     O_R   0.317430 0.862210 0.298450 -0.593926
O10   O     O_R   0.682570 0.137790 0.701550 -0.594345
O11   O     O_R   0.682570 0.137790 0.798450 -0.596626
O12   O     O_R   0.317430 0.862210 0.201550 -0.594813
O13   O     O_R   0.817430 0.637790 0.201550 -0.596639
O14   O     O_R   0.182570 0.362210 0.798450 -0.594797
O15   O     O_R   0.182570 0.362210 0.701550 -0.593982
O16   O     O_R   0.817430 0.637790 0.298450 -0.594293
H1    H     H_    0.098110 0.231380 0.455390 0.141836
H2    H     H_    0.898840 0.770181 0.545684 0.141146
H3    H     H_    0.004395 0.771882 0.955325 0.142371
H4    H     H_    0.026289 0.221452 0.047684 0.145891
H5    H     H_    0.495496 0.271885 0.044668 0.142377
H6    H     H_    0.473655 0.721446 0.952309 0.145892
H7    H     H_    0.400541 0.731560 0.544604 0.141665
H8    H     H_    0.599941 0.270346 0.454317 0.141325
C1    C     C_R   0.486729 0.889260 0.312310 0.913347
C2    C     C_R   0.513362 0.111190 0.687459 0.912249
C3    C     C_R   0.514534 0.111370 0.812620 0.910370
C4    C     C_R   0.483393 0.887781 0.187022 0.906397
C5    C     C_R   0.985467 0.611363 0.187382 0.910344
C6    C     C_R   0.016609 0.387778 0.812979 0.906432
C7    C     C_R   0.013266 0.389264 0.687692 0.913416
C8    C     C_R   0.986634 0.611195 0.312543 0.912221
H9    H     H_    0.897338 0.597898 0.692916 0.096190
H10   H     H_    0.100981 0.402494 0.307920 0.097223
H11   H     H_    0.911284 0.395691 0.191449 0.100957
H12   H     H_    0.975458 0.605355 0.807809 0.099619
H13   H     H_    0.588811 0.895723 0.808556 0.100943
H14   H     H_    0.524618 0.105366 0.192186 0.099623
H15   H     H_    0.603269 0.097756 0.307135 0.096040
H16   H     H_    0.399648 0.902343 0.692130 0.097367
H17   H     H_    0.148565 0.374557 0.606007 0.132870
H18   H     H_    0.852805 0.627963 0.394448 0.132476
H19   H     H_    0.141145 0.634917 0.107205 0.133306
H20   H     H_    0.140288 0.355083 0.896289 0.124327
H21   H     H_    0.358785 0.134901 0.892793 0.133313
H22   H     H_    0.359702 0.855084 0.103713 0.124333
H23   H     H_    0.350750 0.874720 0.393920 0.132844
H24   H     H_    0.646542 0.128109 0.605480 0.132517
O17   O     O_3   0.480630 0.680630 0.250000 -0.295629
O18   O     O_3   0.519370 0.319370 0.750000 -0.295214
O19   O     O_3   0.980630 0.819370 0.250000 -0.295175
O20   O     O_3   0.019370 0.180630 0.750000 -0.295683
V1    V     V_3+5 0.205800 0.762860 0.250000 1.119000
V2    V     V_3+5 0.794200 0.237140 0.750000 1.117938
V3    V     V_3+5 0.705800 0.737140 0.250000 1.117967
V4    V     V_3+5 0.294200 0.262860 0.750000 1.118974
C9    C     C_R   0.998724 0.530196 0.350343 -0.132556
C10   C     C_R   0.000828 0.470933 0.650227 -0.131505
C11   C     C_R   0.019832 0.467269 0.851427 -0.136489
C12   C     C_R   0.994704 0.530115 0.149749 -0.130659
C13   C     C_R   0.480176 0.967272 0.148572 -0.136537
C14   C     C_R   0.505298 0.030123 0.850253 -0.130590
C15   C     C_R   0.501226 0.030188 0.649660 -0.132823
C16   C     C_R   0.499114 0.970929 0.349776 -0.131162
C17   C     C_R   0.067209 0.347709 0.378981 0.160878
C18   C     C_R   0.931712 0.653646 0.621998 0.162337
C19   C     C_R   0.018011 0.655352 0.879464 0.164520
C20   C     C_R   0.982142 0.341807 0.122145 0.167343
C21   C     C_R   0.482021 0.155354 0.120531 0.164524
C22   C     C_R   0.517892 0.841815 0.877853 0.167316
C23   C     C_R   0.432626 0.847713 0.621023 0.160864
C24   C     C_R   0.568143 0.153651 0.378009 0.162328
C25   C     C_R   0.064671 0.424887 0.342753 -0.193353
C26   C     C_R   0.934135 0.576003 0.658059 -0.191714
C27   C     C_R   0.998900 0.579154 0.843100 -0.196674
C28   C     C_R   0.953225 0.419919 0.157274 -0.197840
C29   C     C_R   0.501147 0.079158 0.156896 -0.196756
C30   C     C_R   0.546829 0.919937 0.842730 -0.197772
C31   C     C_R   0.435552 0.924821 0.657276 -0.193619
C32   C     C_R   0.566082 0.075942 0.341971 -0.191454
C33   C     C_R   0.939974 0.558719 0.394126 -0.313730
C34   C     C_R   0.060304 0.443259 0.606473 -0.316907
C35   C     C_R   0.073929 0.432566 0.895396 -0.286510
C36   C     C_R   0.062843 0.561547 0.107163 -0.309582
C37   C     C_R   0.426064 0.932567 0.104604 -0.286513
C38   C     C_R   0.437118 0.061543 0.892836 -0.309628
C39   C     C_R   0.559525 0.058796 0.605845 -0.312934
C40   C     C_R   0.439181 0.943346 0.393497 -0.317699
C41   C     C_R   0.988333 0.497214 0.434064 0.121110
C42   C     C_R   0.010995 0.504768 0.566692 0.121296
C43   C     C_R   0.052961 0.499376 0.935048 0.114828
C44   C     C_R   0.042283 0.495009 0.067459 0.117861
C45   C     C_R   0.447021 0.999373 0.064950 0.114852
C46   C     C_R   0.457683 0.995005 0.932539 0.117851
C47   C     C_R   0.510918 0.997307 0.565922 0.120533
C48   C     C_R   0.488264 0.004864 0.433294 0.121837
C49   C     C_R   0.041160 0.386676 0.425365 0.050380
C50   C     C_R   0.957518 0.615068 0.575530 0.049229
C51   C     C_R   0.032417 0.614002 0.926072 0.045412
C52   C     C_R   0.018245 0.381116 0.076293 0.042172
C53   C     C_R   0.467568 0.114000 0.073925 0.045397
C54   C     C_R   0.481740 0.881114 0.923705 0.042196
C55   C     C_R   0.458163 0.886759 0.574630 0.050116
C56   C     C_R   0.541843 0.115149 0.424468 0.049530
C57   C     C_R   0.984413 0.539518 0.481330 -0.032694
C58   C     C_R   0.014522 0.462488 0.519466 -0.030296
C59   C     C_R   0.050838 0.457307 0.982307 -0.033972
C60   C     C_R   0.046919 0.536729 0.020367 -0.028679
C61   C     C_R   0.449125 0.957303 0.017691 -0.033982
C62   C     C_R   0.453037 0.036724 0.979631 -0.028671
C63   C     C_R   0.514544 0.039640 0.518657 -0.032754
C64   C     C_R   0.484432 0.962612 0.480521 -0.030228
C65   C     C_R   0.038369 0.346348 0.508416 0.157993
C66   C     C_R   0.959980 0.655576 0.492498 0.157640
C67   C     C_R   0.027849 0.653626 0.009485 0.161437
C68   C     C_R   0.037157 0.340048 0.993425 0.166279
C69   C     C_R   0.472096 0.153622 0.990511 0.161437
C70   C     C_R   0.462798 0.840043 0.006571 0.166261
C71   C     C_R   0.460395 0.846490 0.491572 0.157983
C72   C     C_R   0.538815 0.155713 0.507493 0.157660
C73   C     C_R   0.061162 0.314920 0.462467 -0.297037
C74   C     C_R   0.936707 0.686837 0.538487 -0.296233
C75   C     C_R   0.023758 0.686534 0.963135 -0.298458
C76   C     C_R   0.029872 0.307567 0.039742 -0.303788
C77   C     C_R   0.476178 0.186532 0.036861 -0.298472
C78   C     C_R   0.470086 0.807562 0.960254 -0.303772
C79   C     C_R   0.437694 0.815065 0.537524 -0.296606
C80   C     C_R   0.562225 0.186974 0.461508 -0.296692
C81   C     C_3   0.083801 0.224265 0.368796 -0.429025
C82   C     C_3   0.097028 0.189564 0.317770 -0.310693
C83   C     C_3   0.071920 0.065659 0.312283 -0.815216
H25   H     H_    0.146862 0.021077 0.339697 0.271663
H26   H     H_    0.927760 0.043513 0.314580 0.253583
H27   H     H_    0.123442 0.039302 0.278259 0.255331
H28   H     H_    0.995978 0.230654 0.295461 0.183471
H29   H     H_    0.230145 0.212103 0.304766 0.199781
H30   H     H_    0.204146 0.191287 0.387091 0.191687
H31   H     H_    0.963654 0.183199 0.383293 0.202190
C84   C     C_3   0.915870 0.777022 0.632459 -0.425820
C85   C     C_3   0.904615 0.811289 0.683626 -0.316393
C86   C     C_3   0.932463 0.934953 0.689315 -0.812274
H32   H     H_    0.076499 0.956256 0.685828 0.253869
H33   H     H_    0.854653 0.980341 0.662630 0.272241
H34   H     H_    0.886323 0.961076 0.723919 0.254231
H35   H     H_    0.771426 0.789804 0.696892 0.197418
H36   H     H_    0.005236 0.769123 0.705720 0.183549
H37   H     H_    0.035754 0.817982 0.617767 0.201612
H38   H     H_    0.795310 0.810476 0.614434 0.191457
C87   C     C_3   0.018720 0.779533 0.869301 -0.441829
C88   C     C_3   0.057486 0.814651 0.819252 -0.317992
C89   C     C_3   0.063052 0.939951 0.814877 -0.814585
H39   H     H_    0.925624 0.974553 0.817647 0.264776
H40   H     H_    0.148780 0.976484 0.842406 0.265518
H41   H     H_    0.119746 0.963110 0.780968 0.249477
H42   H     H_    0.188508 0.780670 0.808930 0.207013
H43   H     H_    0.954333 0.784495 0.794475 0.182603
H44   H     H_    0.889187 0.815676 0.880130 0.203236
H45   H     H_    0.127434 0.817511 0.890673 0.197493
C90   C     C_3   0.972742 0.218019 0.132423 -0.436638
C91   C     C_3   0.940019 0.184023 0.182808 -0.323648
C92   C     C_3   0.947993 0.059028 0.188243 -0.814191
H46   H     H_    0.864293 0.017899 0.161383 0.269063
H47   H     H_    0.088782 0.029972 0.185350 0.265219
H48   H     H_    0.894721 0.035367 0.222438 0.249104
H49   H     H_    0.040509 0.221328 0.206714 0.186946
H50   H     H_    0.806148 0.212298 0.193275 0.200918
H51   H     H_    0.863469 0.181594 0.110733 0.191372
H52   H     H_    0.101935 0.180199 0.122037 0.204612
C93   C     C_3   0.481336 0.279537 0.130689 -0.441784
C94   C     C_3   0.442751 0.314677 0.180745 -0.317935
C95   C     C_3   0.437166 0.439979 0.185109 -0.814574
H53   H     H_    0.574549 0.474603 0.182259 0.264821
H54   H     H_    0.351192 0.476476 0.157622 0.265504
H55   H     H_    0.380757 0.463152 0.219049 0.249517
H56   H     H_    0.311785 0.280687 0.191107 0.206966
H57   H     H_    0.546018 0.284545 0.205494 0.182659
H58   H     H_    0.610829 0.315680 0.119829 0.203200
H59   H     H_    0.372548 0.317504 0.109339 0.197495
C96   C     C_3   0.527324 0.718031 0.867569 -0.436673
C97   C     C_3   0.560209 0.684066 0.817187 -0.323686
C98   C     C_3   0.552308 0.559073 0.811736 -0.814257
H60   H     H_    0.635770 0.517932 0.838640 0.269094
H61   H     H_    0.411493 0.530004 0.814542 0.265194
H62   H     H_    0.605909 0.535439 0.777572 0.249045
H63   H     H_    0.459781 0.721367 0.793262 0.186885
H64   H     H_    0.694102 0.712375 0.806753 0.200960
H65   H     H_    0.636546 0.681604 0.889276 0.191359
H66   H     H_    0.398108 0.680199 0.877930 0.204637
C99   C     C_3   0.416131 0.724251 0.631180 -0.428820
C100  C     C_3   0.403838 0.689426 0.682210 -0.310269
C101  C     C_3   0.428566 0.565471 0.687592 -0.815633
H67   H     H_    0.352647 0.521116 0.660290 0.271693
H68   H     H_    0.572538 0.543081 0.685023 0.253927
H69   H     H_    0.377843 0.539077 0.721691 0.255462
H70   H     H_    0.505505 0.730324 0.704388 0.183646
H71   H     H_    0.271131 0.712107 0.695432 0.199323
H72   H     H_    0.295456 0.691345 0.613010 0.191713
H73   H     H_    0.535998 0.683197 0.616529 0.202054
C102  C     C_3   0.584078 0.277010 0.367523 -0.426032
C103  C     C_3   0.596234 0.311162 0.316358 -0.316822
C104  C     C_3   0.568049 0.434776 0.310573 -0.811954
H74   H     H_    0.423828 0.455863 0.313819 0.253569
H75   H     H_    0.645009 0.480366 0.337359 0.272239
H76   H     H_    0.614894 0.460864 0.276029 0.254115
H77   H     H_    0.729808 0.289806 0.303301 0.197897
H78   H     H_    0.496191 0.268827 0.294141 0.183383
H79   H     H_    0.463921 0.317974 0.382067 0.201745
H80   H     H_    0.704320 0.310533 0.385668 0.191434
C105  C     C_3   0.055430 0.253234 0.544209 -0.433371
C106  C     C_3   0.028626 0.132343 0.529253 -0.295881
C107  C     C_3   0.036096 0.056492 0.571478 -0.919266
H81   H     H_    0.169104 0.062447 0.589027 0.278180
H82   H     H_    0.933346 0.080417 0.596661 0.262098
H83   H     H_    0.012700 0.969783 0.561110 0.239927
H84   H     H_    0.897835 0.122289 0.511013 0.222144
H85   H     H_    0.138686 0.105536 0.506355 0.213163
H86   H     H_    0.192661 0.255829 0.557623 0.199382
H87   H     H_    0.961309 0.267159 0.572561 0.194668
C108  C     C_3   0.942538 0.748705 0.456798 -0.433407
C109  C     C_3   0.968371 0.869545 0.471927 -0.293670
C110  C     C_3   0.960929 0.945588 0.429791 -0.921669
H88   H     H_    0.066800 0.923407 0.405238 0.261610
H89   H     H_    0.829668 0.937634 0.411501 0.278576
H90   H     H_    0.979767 0.032564 0.440341 0.240355
H91   H     H_    0.857778 0.895902 0.494738 0.213006
H92   H     H_    0.098942 0.879810 0.490294 0.222370
H93   H     H_    0.037030 0.735201 0.428532 0.194603
H94   H     H_    0.805498 0.745613 0.443269 0.199541
C111  C     C_3   0.986686 0.744968 0.045430 -0.430831
C112  C     C_3   0.933715 0.860996 0.028549 -0.288124
C113  C     C_3   0.901225 0.938389 0.069351 -0.940796
H95   H     H_    0.809321 0.900247 0.094550 0.271628
H96   H     H_    0.030425 0.957879 0.087284 0.268881
H97   H     H_    0.840316 0.016474 0.056958 0.248983
H98   H     H_    0.045066 0.897131 0.008334 0.212783
H99   H     H_    0.811416 0.856440 0.006560 0.221435
H100  H     H_    0.879864 0.715491 0.068397 0.211743
H101  H     H_    0.105114 0.764371 0.066236 0.184317
C114  C     C_3   0.006439 0.246850 0.957638 -0.429914
C115  C     C_3   0.947777 0.131546 0.973856 -0.293191
C116  C     C_3   0.919998 0.053697 0.932629 -0.927466
H102  H     H_    0.836535 0.092393 0.904972 0.274302
H103  H     H_    0.051963 0.031143 0.918057 0.261469
H104  H     H_    0.852237 0.977163 0.943820 0.247703
H105  H     H_    0.054446 0.094336 0.996197 0.211996
H106  H     H_    0.822543 0.137741 0.993634 0.221464
H107  H     H_    0.905039 0.274524 0.931914 0.207737
H108  H     H_    0.132106 0.227884 0.940887 0.186598
C117  C     C_3   0.513268 0.244961 0.954566 -0.430834
C118  C     C_3   0.566240 0.360990 0.971447 -0.288104
C119  C     C_3   0.598749 0.438380 0.930645 -0.940830
H109  H     H_    0.690658 0.400235 0.905449 0.271618
H110  H     H_    0.469557 0.457873 0.912709 0.268886
H111  H     H_    0.659659 0.516464 0.943040 0.248984
H112  H     H_    0.454882 0.397129 0.991659 0.212781
H113  H     H_    0.688531 0.356432 0.993439 0.221435
H114  H     H_    0.620098 0.215484 0.931601 0.211755
H115  H     H_    0.394849 0.264364 0.933756 0.184314
C120  C     C_3   0.493518 0.746847 0.042359 -0.429911
C121  C     C_3   0.552171 0.631542 0.026140 -0.293158
C122  C     C_3   0.579958 0.553695 0.067368 -0.927490
H116  H     H_    0.663441 0.592390 0.095021 0.274290
H117  H     H_    0.447998 0.531150 0.081945 0.261499
H118  H     H_    0.647704 0.477157 0.056175 0.247700
H119  H     H_    0.445497 0.594333 0.003801 0.211992
H120  H     H_    0.677402 0.637736 0.006360 0.221459
H121  H     H_    0.594927 0.774521 0.068081 0.207739
H122  H     H_    0.367856 0.727885 0.059112 0.186594
C123  C     C_3   0.443252 0.753379 0.455782 -0.433310
C124  C     C_3   0.469599 0.632460 0.470759 -0.295892
C125  C     C_3   0.462231 0.556592 0.428538 -0.919172
H123  H     H_    0.329952 0.563431 0.410672 0.278367
H124  H     H_    0.566380 0.579756 0.403617 0.261922
H125  H     H_    0.483602 0.469734 0.438969 0.239917
H126  H     H_    0.600228 0.622251 0.489074 0.222188
H127  H     H_    0.359249 0.605823 0.493597 0.213126
H128  H     H_    0.306102 0.756156 0.442323 0.199139
H129  H     H_    0.537540 0.767166 0.427457 0.194834
C126  C     C_3   0.556143 0.248845 0.543196 -0.433438
C127  C     C_3   0.529816 0.369655 0.528087 -0.293680
C128  C     C_3   0.537341 0.445680 0.570227 -0.921758
H130  H     H_    0.432927 0.422676 0.595062 0.261805
H131  H     H_    0.669406 0.438654 0.588185 0.278390
H132  H     H_    0.516357 0.532517 0.559738 0.240361
H133  H     H_    0.640118 0.396195 0.505218 0.213032
H134  H     H_    0.399083 0.379749 0.509794 0.222346
H135  H     H_    0.461817 0.235191 0.571489 0.194422
H136  H     H_    0.693260 0.245954 0.556683 0.199770

loop_
_geom_bond_atom_site_label_1
_geom_bond_atom_site_label_2
_geom_bond_distance
_ccdc_geom_bond_type
C99   H73   1.110886 S    
C125  H125  1.105953 S    
O14   V4    2.034027 S    
C95   H53   1.109195 S    
C40   C48   1.414033 A    
C100  C101  1.521406 S    
C22   C30   1.407305 A    
C104  H75   1.104027 S    
C104  H74   1.108439 S    
C21   C29   1.404772 A    
C63   C64   1.459221 A    
C117  H115  1.084826 S    
O13   C5    1.359868 A    
C83   H27   1.108110 S    
C23   C31   1.404026 A    
O4    C1    1.352177 A    
C19   C27   1.404760 A    
O9    C1    1.356058 A    
C119  H109  1.107803 S    
C94   H57   1.103782 S    
C98   H60   1.106338 S    
C128  H132  1.105782 S    
C14   C38   1.391640 A    
C68   C114  1.546299 S    
C84   H37   1.110923 S    
C117  C118  1.537999 S    
C103  H77   1.099439 S    
H23   C40   1.060771 S    
O12   C4    1.346556 A    
C105  H87   1.099221 S    
C60   C67   1.457879 A    
O5    V1    2.010393 S    
H12   C27   1.079948 S    
C11   C35   1.392182 A    
C110  H90   1.105795 S    
C121  H119  1.111002 S    
C86   H33   1.104010 S    
C90   C91   1.536531 S    
C122  H116  1.108701 S    
C90   H51   1.110450 S    
C118  C119  1.529106 S    
C22   C96   1.531407 S    
C119  H110  1.110405 S    
C19   C87   1.533650 S    
C94   C95   1.524679 S    
C125  H123  1.107395 S    
C18   C26   1.404235 A    
C17   C25   1.404062 A    
C90   H52   1.110487 S    
C114  H107  1.103211 S    
C116  H102  1.108701 S    
C93   C94   1.539480 S    
C89   H41   1.109135 S    
C9    C25   1.386241 A    
C127  H133  1.109388 S    
C102  H80   1.107208 S    
C49   C73   1.386982 A    
C120  H122  1.084207 S    
C38   C46   1.409033 A    
C43   C51   1.421247 A    
C37   C45   1.413961 A    
C44   C60   1.452975 A    
C68   C76   1.397276 A    
C81   H31   1.110887 S    
C114  C115  1.539477 S    
C13   C29   1.385766 A    
C103  C104  1.521825 S    
C16   C40   1.387475 A    
C39   C47   1.415942 A    
C123  H129  1.099168 S    
O1    C4    1.362568 A    
C53   C77   1.388129 A    
C89   H39   1.109205 S    
C112  H99   1.103159 S    
O2    C3    1.349501 A    
C116  H103  1.108594 S    
C111  H100  1.102908 S    
C91   H50   1.100183 S    
C108  H94   1.086958 S    
C20   C90   1.531411 S    
C55   C79   1.386949 A    
C87   H45   1.110041 S    
C66   C108  1.533538 S    
O12   V1    2.034030 S    
C100  H71   1.099198 S    
C120  C121  1.539472 S    
H22   C37   1.061196 S    
C33   C41   1.415941 A    
C4    C13   1.470790 S    
H20   C35   1.061192 S    
C72   C80   1.395622 A    
O6    C7    1.352143 A    
C102  C103  1.539721 S    
O7    C6    1.362566 A    
C88   H43   1.103810 S    
C123  C124  1.539950 S    
H4    C76   1.069201 S    
C115  H106  1.103253 S    
H19   C36   1.063152 S    
C16   C32   1.386686 A    
C112  C113  1.529110 S    
H18   C33   1.060834 S    
C8    C9    1.470612 S    
O6    V2    2.010395 S    
O10   V2    2.016171 S    
C124  H126  1.106410 S    
C62   C69   1.457868 A    
C93   H58   1.108190 S    
C109  C110  1.527707 S    
C92   H47   1.109491 S    
C81   H30   1.107423 S    
C47   C55   1.419878 A    
C61   C70   1.461130 A    
C92   H46   1.106356 S    
C94   H56   1.103619 S    
C98   H61   1.109502 S    
C118  H113  1.103161 S    
C71   C123  1.534968 S    
C95   H55   1.109124 S    
H11   C28   1.081187 S    
H16   C31   1.081129 S    
C67   C75   1.397702 A    
C18   C84   1.530650 S    
C58   C65   1.455023 A    
C109  H92   1.106797 S    
C101  H67   1.103181 S    
C43   C59   1.458346 A    
C57   C66   1.455365 A    
C120  H121  1.103213 S    
C127  C128  1.527687 S    
C42   C58   1.458656 A    
C10   C34   1.387487 A    
C126  C127  1.539755 S    
O19   V1    1.809913 S    
C86   H34   1.108657 S    
C45   C53   1.421247 A    
C108  C109  1.539819 S    
C122  H117  1.108598 S    
C44   C52   1.415796 A    
C69   C117  1.552090 S    
C128  H131  1.107371 S    
C72   C126  1.533564 S    
C15   C31   1.386277 A    
C96   H66   1.110488 S    
C24   C56   1.437875 A    
C54   C78   1.386081 A    
C128  H130  1.101743 S    
O17   V3    1.809909 S    
C86   H32   1.108426 S    
C46   C62   1.452960 A    
O18   V4    1.809908 S    
C106  H85   1.109499 S    
C41   C49   1.419864 A    
C114  H108  1.084206 S    
C52   C76   1.386079 A    
C1    C16   1.469042 S    
C126  H135  1.098413 S    
O8    V1    2.000857 S    
C7    C10   1.469031 S    
C2    C15   1.470617 S    
C101  H68   1.108621 S    
O9    V1    2.016169 S    
C111  C112  1.537998 S    
C3    C14   1.469733 S    
C124  H127  1.109459 S    
C64   C71   1.455003 A    
C110  H88   1.101705 S    
C48   C64   1.458635 A    
O3    V4    2.010391 S    
C107  H81   1.107337 S    
C56   C80   1.386392 A    
C5    C12   1.469750 S    
O11   C3    1.359862 A    
C59   C60   1.462467 A    
H3    C75   1.068158 S    
C6    C11   1.470762 S    
C102  H79   1.110920 S    
C105  C106  1.539890 S    
H24   C39   1.060818 S    
O20   V2    1.809912 S    
C112  H98   1.111160 S    
C113  H96   1.110405 S    
C21   C93   1.533658 S    
C91   H49   1.106728 S    
C23   C99   1.530344 S    
C36   C44   1.409043 A    
O11   V2    2.034029 S    
C13   C37   1.392201 A    
C100  H70   1.101706 S    
H2    C74   1.070065 S    
O14   C6    1.346540 A    
H1    C73   1.069838 S    
C107  H82   1.102554 S    
C82   H28   1.101817 S    
C21   C53   1.439796 A    
C88   H42   1.103617 S    
C48   C56   1.419222 A    
O4    V3    2.010389 S    
C115  H105  1.111002 S    
C104  H76   1.108706 S    
C9    C33   1.388979 A    
C20   C28   1.407301 A    
O8    C5    1.349504 A    
C85   H36   1.102101 S    
C83   H25   1.103195 S    
C11   C27   1.385739 A    
C93   H59   1.110042 S    
C92   H48   1.108321 S    
C97   C98   1.524296 S    
C10   C26   1.386713 A    
H7    C79   1.069849 S    
C81   C82   1.538284 S    
C57   C58   1.459224 A    
C51   C75   1.388120 A    
C99   H72   1.107411 S    
C118  H112  1.111159 S    
C50   C74   1.386357 A    
C23   C55   1.437406 A    
C103  H78   1.102212 S    
C98   H62   1.108353 S    
C15   C39   1.389000 A    
C88   C89   1.524678 S    
C20   C52   1.437604 A    
C14   C30   1.388780 A    
O3    C2    1.352874 A    
C82   H29   1.099264 S    
C123  H128  1.086908 S    
C117  H114  1.102908 S    
C121  C122  1.531501 S    
C83   H26   1.108635 S    
O15   V4    2.016179 S    
C85   H35   1.099367 S    
C122  H118  1.106572 S    
C17   C81   1.530352 S    
C84   C85   1.539697 S    
C22   C54   1.437603 A    
O15   C7    1.356086 A    
C70   C120  1.546290 S    
H14   C29   1.079956 S    
C19   C51   1.439798 A    
O16   C8    1.355997 A    
C65   C73   1.394528 A    
C35   C43   1.413950 A    
H13   C30   1.081182 S    
C34   C42   1.414030 A    
C97   H64   1.100191 S    
C116  H104  1.106573 S    
C105  H86   1.086946 S    
C126  H136  1.086995 S    
O5    C8    1.352891 A    
C125  H124  1.102487 S    
H21   C38   1.063162 S    
C18   C50   1.437866 A    
O16   V3    2.016177 S    
C65   C105  1.535004 S    
C110  H89   1.107449 S    
O2    V4    2.000862 S    
C87   C88   1.539500 S    
H15   C32   1.081197 S    
C24   C102  1.530647 S    
C12   C36   1.391641 A    
O10   C2    1.356018 A    
C69   C77   1.397689 A    
C85   C86   1.521784 S    
H17   C34   1.060744 S    
C115  C116  1.531496 S    
C12   C28   1.388804 A    
C109  H91   1.109354 S    
C82   C83   1.521448 S    
C113  H97   1.106571 S    
C84   H38   1.107204 S    
C89   H40   1.104653 S    
O1    V3    2.000864 S    
C99   C100  1.538260 S    
C119  H111  1.106572 S    
C91   C92   1.524293 S    
C127  H134  1.106634 S    
C59   C68   1.461122 A    
C67   C111  1.552079 S    
H6    C78   1.069217 S    
C97   H63   1.106755 S    
H10   C25   1.081100 S    
C17   C49   1.437421 A    
C96   C97   1.536553 S    
C66   C74   1.395593 A    
C95   H54   1.104658 S    
H9    C26   1.081221 S    
C107  H83   1.105950 S    
C96   H65   1.110455 S    
H5    C77   1.068151 S    
C46   C54   1.415788 A    
C24   C32   1.404274 A    
C106  C107  1.528345 S    
C41   C57   1.459954 A    
C113  H95   1.107805 S    
H8    C80   1.070055 S    
C124  C125  1.528358 S    
C63   C72   1.455367 A    
C47   C63   1.459969 A    
C70   C78   1.397300 A    
O7    V2    2.000854 S    
C108  H93   1.098353 S    
C111  H101  1.084828 S    
C61   C62   1.462465 A    
C87   H44   1.108182 S    
C42   C50   1.419242 A    
C121  H120  1.103255 S    
C101  H69   1.108023 S    
C106  H84   1.106239 S    
C45   C61   1.458361 A    
O13   V3    2.034028 S    
C71   C79   1.394504 A    
