data_mof_unit_28746.cif
_audit_creation_date              2012-12-10T17:02:14-0500
_audit_creation_method            fapswitch 2.2
_symmetry_space_group_name_H-M    P1
_symmetry_Int_Tables_number       1
_space_group_crystal_system       triclinic
_cell_length_a                    10.63492
_cell_length_b                    10.734131
_cell_length_c                    10.044052
_cell_angle_alpha                 89.89905
_cell_angle_beta                  89.842282
_cell_angle_gamma                 90.2869
_cell_volume                      1146.57454589

loop_
_atom_site_label
_atom_site_type_symbol
_atom_type_description
_atom_site_fract_x
_atom_site_fract_y
_atom_site_fract_z
_atom_type_partial_charge
C1    C     C_R   0.496355 0.262781 0.499996 0.889468
C2    C     C_R   0.063825 0.382053 0.531979 0.111832
C3    C     C_R   0.128699 0.492616 0.500328 -0.157189
C4    C     C_R   0.068243 0.602613 0.467714 -0.256350
C5    C     C_R   0.939235 0.607060 0.467614 0.457614
C6    C     C_R   0.872092 0.497697 0.499228 -0.249795
C7    C     C_2   0.481570 0.932900 0.388991 -0.190898
C8    C     C_2   0.508240 0.869044 0.499389 -0.257475
C9    C     C_2   0.489531 0.066921 0.387586 -0.128781
C10   C     C_2   0.481803 0.131421 0.500712 -0.343128
C11   C     C_2   0.552975 0.586665 0.924729 -0.105820
C12   C     C_R   0.260803 0.497258 0.500168 0.891363
C13   C     C_2   0.545131 0.590833 0.074486 -0.092024
C14   C     C_R   0.500546 0.737266 0.499818 0.990369
C15   C     C_R   0.739443 0.502143 0.499763 0.975777
C16   C     C_R   0.126779 0.269958 0.563118 -0.265523
C17   C     C_R   0.059306 0.161005 0.593017 0.038363
C18   C     C_R   0.927759 0.163513 0.590513 -0.062820
C19   C     C_R   0.864893 0.273480 0.559511 -0.197791
C20   C     C_R   0.932348 0.384301 0.530632 0.040897
H1    H     H_    0.122857 0.685523 0.444621 0.193348
H2    H     H_    0.460930 0.089142 0.596319 0.143727
H3    H     H_    0.603070 0.661884 0.875136 0.180034
H4    H     H_    0.447580 0.434201 0.898168 0.165157
H5    H     H_    0.580732 0.673757 0.123257 0.184293
H6    H     H_    0.474511 0.419968 0.102406 0.162524
H7    H     H_    0.228418 0.266434 0.564379 0.123277
H8    H     H_    0.873256 0.080372 0.612266 0.204415
H9    H     H_    0.763311 0.270493 0.558075 0.142464
H10   H     H_    0.456570 0.886533 0.296589 0.173382
H11   H     H_    0.540300 0.911948 0.590840 0.162444
H12   H     H_    0.501924 0.112377 0.291658 0.178297
N1    N     N_2   0.501340 0.501330 0.852150 -0.192823
N2    N     N_2   0.501380 0.501360 0.147810 -0.191302
O1    O     O_R   0.499980 0.319060 0.613040 -0.631164
O2    O     O_R   0.500020 0.319100 0.386900 -0.620403
O3    O     O_R   0.316750 0.499980 0.613090 -0.608976
O4    O     O_R   0.316790 0.500020 0.386950 -0.611099
O5    O     O_R   0.499980 0.680900 0.613100 -0.612380
O6    O     O_R   0.500020 0.680940 0.386960 -0.610094
O7    O     O_R   0.683210 0.499980 0.613050 -0.605515
O8    O     O_R   0.683250 0.500020 0.386910 -0.567866
Zn1   Zn    Zn3+2 0.499970 0.499970 0.650990 0.972972
Zn2   Zn    Zn3+2 0.500030 0.500030 0.349010 0.983790
C21   C     C_2   0.127781 0.045608 0.626673 0.448363
H13   H     H_    0.229748 0.044537 0.623968 0.037951
O9    O     O_2   0.071525 0.950647 0.658554 -0.514960
S1    S     S_3+6 0.865211 0.751610 0.434079 0.026848
O10   O     O_2   0.790087 0.789547 0.554093 -0.329035
O11   O     O_2   0.961311 0.850938 0.403735 -0.285112
O12   O     O_3   0.769038 0.736405 0.302595 -0.562417
H14   H     H_    0.732539 0.820225 0.289342 0.371771

loop_
_geom_bond_atom_site_label_1
_geom_bond_atom_site_label_2
_ccdc_geom_bond_type
O3    Zn1   S    
O5    Zn1   S    
O4    Zn2   S    
C2    C16   A    
C11   C13   S    
C9    C10   D    
C19   C20   A    
C15   O8    A    
H4    N1    S    
O6    Zn2   S    
O1    Zn1   S    
C16   H7    S    
S1    O11   D    
C17   C18   A    
C14   O5    A    
C18   H8    S    
C7    C8    D    
C7    H10   S    
C21   H13   S    
C10   H2    S    
C4    H1    S    
O7    Zn1   S    
C13   H5    S    
O8    Zn2   S    
C6    C20   A    
C11   H3    S    
S1    O10   D    
C17   C21   S    
C2    C3    A    
C21   O9    D    
C12   O4    A    
C5    C6    A    
C5    S1    S    
O2    Zn2   S    
C2    C20   A    
O12   H14   S    
C19   H9    S    
C11   N1    D    
N2    Zn2   S    
C15   O7    A    
C18   C19   A    
C13   N2    D    
C12   O3    A    
C7    C9    S    
C1    O1    A    
C4    C5    A    
C8    C14   S    
C3    C12   S    
C9    H12   S    
C6    C15   S    
C8    H11   S    
C14   O6    A    
H6    N2    S    
S1    O12   S    
C1    C10   S    
C3    C4    A    
C1    O2    A    
C16   C17   A    
N1    Zn1   S    
