data_mof_unit_47676.cif
_audit_creation_date              2012-10-26T17:12:50-0400
_audit_creation_method            fapswitch 2.2
_symmetry_space_group_name_H-M    P1
_symmetry_Int_Tables_number       1
_space_group_crystal_system       triclinic
_cell_length_a                    27.896159
_cell_length_b                    18.917145
_cell_length_c                    16.679911
_cell_angle_alpha                 90.0775
_cell_angle_beta                  62.866686
_cell_angle_gamma                 90.077887
_cell_volume                      7833.53355942

loop_
_atom_site_label
_atom_site_type_symbol
_atom_type_description
_atom_site_fract_x
_atom_site_fract_y
_atom_site_fract_z
_atom_type_partial_charge
C1    C     C_R   0.296624 0.732053 0.328101 0.831269
C2    C     C_R   0.703434 0.267965 0.671917 0.775318
C3    C     C_R   0.703448 0.731900 0.671792 0.848628
C4    C     C_R   0.296640 0.267865 0.327999 0.764388
C5    C     C_R   0.796327 0.231333 0.328086 0.845512
C6    C     C_R   0.203652 0.768400 0.671947 0.807608
C7    C     C_R   0.203704 0.231378 0.671918 0.878036
C8    C     C_R   0.796303 0.768475 0.327982 0.773789
C9    C     C_R   0.416245 0.999936 0.436692 0.078010
C10   C     C_R   0.610117 0.999790 0.467485 0.072047
C11   C     C_R   0.905064 0.500340 0.485911 0.076274
C12   C     C_R   0.110768 0.499562 0.471267 0.079539
C13   C     C_R   0.615022 0.873059 0.448584 -0.165839
C14   C     C_R   0.422385 0.126779 0.418379 -0.191930
C15   C     C_R   0.422096 0.873041 0.418594 -0.169337
C16   C     C_R   0.616120 0.126268 0.446247 -0.187924
C17   C     C_R   0.114596 0.373220 0.452866 -0.162317
C18   C     C_R   0.903900 0.627168 0.501609 -0.190064
C19   C     C_R   0.900936 0.374290 0.509609 -0.164942
C20   C     C_R   0.116715 0.625418 0.448273 -0.191208
C21   C     C_R   0.218622 0.764382 0.957132 0.008767
C22   C     C_R   0.784261 0.240515 0.040844 0.019831
C23   C     C_R   0.781543 0.764783 0.042152 0.008557
C24   C     C_R   0.217765 0.237851 0.957376 0.021741
C25   C     C_R   0.717434 0.261812 0.957146 0.004767
C26   C     C_R   0.285601 0.743732 0.040743 0.020556
C27   C     C_R   0.284812 0.258331 0.040823 0.007943
C28   C     C_R   0.714922 0.743820 0.958012 0.018339
C29   C     C_R   0.266341 0.724328 0.913533 0.037556
C30   C     C_R   0.737268 0.281969 0.083919 0.042288
C31   C     C_R   0.733276 0.725858 0.086051 0.042428
C32   C     C_R   0.265442 0.278101 0.913649 0.042466
C33   C     C_R   0.764695 0.220879 0.913913 0.036067
C34   C     C_R   0.238070 0.784174 0.084397 0.039878
C35   C     C_R   0.237223 0.218028 0.084344 0.035713
C36   C     C_R   0.762688 0.783857 0.914220 0.039857
C37   C     C_R   0.302498 0.719182 0.951780 0.038504
C38   C     C_R   0.701236 0.287981 0.045355 -0.035543
C39   C     C_R   0.697521 0.720536 0.047231 0.038788
C40   C     C_R   0.301584 0.283513 0.952063 -0.033679
C41   C     C_R   0.800903 0.215522 0.952100 0.037628
C42   C     C_R   0.201920 0.789651 0.045905 -0.034540
C43   C     C_R   0.200979 0.213085 0.046201 0.038147
C44   C     C_R   0.798699 0.789443 0.953015 -0.034547
C45   C     C_R   0.139910 0.819077 0.953613 0.022936
C46   C     C_R   0.861595 0.182630 0.045426 0.065878
C47   C     C_R   0.860425 0.818693 0.045942 0.023717
C48   C     C_R   0.139383 0.181785 0.953898 0.065355
C49   C     C_R   0.639275 0.317918 0.953365 0.023198
C50   C     C_R   0.362696 0.685094 0.045348 0.067273
C51   C     C_R   0.362372 0.315503 0.045377 0.024089
C52   C     C_R   0.637535 0.685175 0.954029 0.064530
C53   C     C_R   0.114942 0.845310 0.901225 -0.115211
C54   C     C_R   0.885592 0.154946 0.098544 -0.107823
C55   C     C_R   0.885266 0.845022 0.098516 -0.114994
C56   C     C_R   0.114772 0.154776 0.901290 -0.108400
C57   C     C_R   0.614532 0.344718 0.901063 -0.114539
C58   C     C_R   0.386218 0.656248 0.098503 -0.109260
C59   C     C_R   0.386170 0.343809 0.098429 -0.115462
C60   C     C_R   0.613951 0.656062 0.901138 -0.108475
C61   C     C_R   0.135589 0.824827 0.810996 -0.215536
C62   C     C_R   0.864374 0.174372 0.189249 -0.275280
C63   C     C_R   0.864534 0.824628 0.188781 -0.239593
C64   C     C_R   0.135639 0.174664 0.810828 -0.252770
C65   C     C_R   0.635143 0.324255 0.810823 -0.249089
C66   C     C_R   0.364978 0.675692 0.189233 -0.284998
C67   C     C_R   0.365049 0.324146 0.189051 -0.249880
C68   C     C_R   0.635194 0.675246 0.810373 -0.283484
C69   C     C_R   0.178712 0.777494 0.771611 -0.135805
C70   C     C_R   0.821787 0.222422 0.228342 -0.085047
C71   C     C_R   0.821122 0.777652 0.228276 -0.132105
C72   C     C_R   0.178548 0.222354 0.771544 -0.088970
C73   C     C_R   0.677985 0.276402 0.771578 -0.130694
C74   C     C_R   0.322636 0.724298 0.228334 -0.082037
C75   C     C_R   0.322435 0.275847 0.228181 -0.128454
C76   C     C_R   0.677566 0.723897 0.771275 -0.083220
C77   C     C_R   0.201870 0.748810 0.825577 -0.027492
C78   C     C_R   0.800040 0.252994 0.173545 0.059063
C79   C     C_R   0.797675 0.749404 0.174365 -0.027649
C80   C     C_R   0.201144 0.252001 0.825775 0.059167
C81   C     C_R   0.700554 0.246705 0.825749 -0.029354
C82   C     C_R   0.301266 0.755892 0.173588 0.057438
C83   C     C_R   0.300565 0.245028 0.173514 -0.030727
C84   C     C_R   0.699186 0.755413 0.825673 0.059592
C85   C     C_R   0.200068 0.631305 0.515037 0.795083
C86   C     C_R   0.801381 0.368749 0.480851 0.837208
C87   C     C_R   0.801666 0.631407 0.479953 0.787995
C88   C     C_R   0.199982 0.368647 0.515437 0.843704
C89   C     C_R   0.699681 0.131254 0.515327 0.772449
C90   C     C_R   0.302884 0.868299 0.474677 0.855342
C91   C     C_R   0.302926 0.131670 0.474534 0.787725
C92   C     C_R   0.699604 0.868776 0.515663 0.841819
C93   C     C_R   0.187050 0.778085 0.911695 0.082779
C94   C     C_R   0.815076 0.224759 0.086954 0.046783
C95   C     C_R   0.813001 0.778241 0.087868 0.078652
C96   C     C_R   0.186317 0.223270 0.911977 0.050646
C97   C     C_R   0.685968 0.276024 0.911717 0.073239
C98   C     C_R   0.316432 0.727909 0.086791 0.043204
C99   C     C_R   0.315799 0.273330 0.086831 0.075091
C100  C     C_R   0.684030 0.727691 0.912257 0.042110
C101  C     C_R   0.118060 0.828037 0.047683 -0.159058
C102  C     C_R   0.883752 0.173980 0.951175 -0.247051
C103  C     C_R   0.882573 0.827305 0.951760 -0.158813
C104  C     C_R   0.117440 0.173169 0.048076 -0.246523
C105  C     C_R   0.617718 0.327619 0.047125 -0.164181
C106  C     C_R   0.385033 0.676649 0.951152 -0.249611
C107  C     C_R   0.384725 0.323994 0.951221 -0.160719
C108  C     C_R   0.614874 0.677834 0.048308 -0.249308
C109  C     C_R   0.147817 0.813326 0.094484 -0.003649
C110  C     C_R   0.854741 0.190794 0.903938 -0.023256
C111  C     C_R   0.852939 0.812734 0.904622 -0.013558
C112  C     C_R   0.146829 0.189594 0.094837 -0.017661
C113  C     C_R   0.647667 0.313401 0.093474 0.007470
C114  C     C_R   0.356364 0.694449 0.903699 -0.027293
C115  C     C_R   0.355516 0.307981 0.903826 -0.014760
C116  C     C_R   0.643395 0.697188 0.095434 -0.009502
C117  C     C_R   0.237811 0.690468 0.800164 -0.032793
C118  C     C_R   0.765522 0.312646 0.198535 -0.033723
C119  C     C_R   0.760702 0.692121 0.200422 -0.041854
C120  C     C_R   0.236690 0.310795 0.800363 -0.023907
C121  C     C_R   0.735911 0.187708 0.800453 -0.015037
C122  C     C_R   0.265978 0.815032 0.199544 -0.007509
C123  C     C_R   0.265132 0.186026 0.199144 -0.012317
C124  C     C_R   0.734527 0.814538 0.799649 -0.006200
C125  C     C_R   0.271833 0.681886 0.840611 -0.099889
C126  C     C_R   0.732316 0.323770 0.157241 -0.310544
C127  C     C_R   0.726521 0.684455 0.160257 -0.110855
C128  C     C_R   0.270807 0.320093 0.840384 -0.312042
C129  C     C_R   0.769780 0.178373 0.841189 -0.109769
C130  C     C_R   0.232509 0.825456 0.158465 -0.316216
C131  C     C_R   0.231573 0.176150 0.157856 -0.106660
C132  C     C_R   0.768368 0.824910 0.840069 -0.320264
C133  C     C_R   0.927611 0.900801 0.064964 0.797824
C134  C     C_R   0.072452 0.099076 0.934971 0.815983
C135  C     C_R   0.072498 0.900935 0.934900 0.806208
C136  C     C_R   0.927649 0.099101 0.065002 0.807951
C137  C     C_R   0.427808 0.400552 0.064905 0.798478
C138  C     C_R   0.572250 0.599392 0.935007 0.807181
C139  C     C_R   0.572425 0.400831 0.934868 0.798331
C140  C     C_R   0.427793 0.599433 0.064958 0.807365
C141  C     C_R   0.064901 0.627735 0.455349 0.063606
C142  C     C_R   0.954851 0.371983 0.491724 0.067103
C143  C     C_R   0.957837 0.628529 0.483256 0.055940
C144  C     C_R   0.062321 0.371310 0.461992 0.075868
C145  C     C_R   0.568181 0.127812 0.438378 0.057547
C146  C     C_R   0.470747 0.871539 0.424362 0.067358
C147  C     C_R   0.471450 0.128071 0.422965 0.069093
C148  C     C_R   0.566971 0.871575 0.441135 0.068433
C149  C     C_R   0.039475 0.692728 0.458476 0.106698
C150  C     C_R   0.980751 0.307005 0.487805 0.109888
C151  C     C_R   0.985078 0.693215 0.475361 0.106011
C152  C     C_R   0.035400 0.306600 0.469658 0.130280
C153  C     C_R   0.545471 0.192509 0.430302 0.095344
C154  C     C_R   0.495848 0.806876 0.424758 0.122470
C155  C     C_R   0.497398 0.192554 0.421322 0.101364
C156  C     C_R   0.543518 0.806815 0.434916 0.163545
C157  C     C_R   0.984519 0.564231 0.474004 -0.014516
C158  C     C_R   0.035729 0.435484 0.468278 -0.020081
C159  C     C_R   0.037104 0.563921 0.464604 -0.017034
C160  C     C_R   0.983038 0.435733 0.478150 -0.016323
C161  C     C_R   0.493759 0.064037 0.432749 -0.018376
C162  C     C_R   0.541549 0.935585 0.441831 -0.019911
C163  C     C_R   0.542082 0.063940 0.440641 -0.016156
C164  C     C_R   0.493352 0.935589 0.433605 -0.017461
C165  C     C_R   0.468039 0.999860 0.433341 0.009603
C166  C     C_R   0.564800 0.999765 0.449498 0.009781
C167  C     C_R   0.957323 0.500118 0.480231 0.009121
C168  C     C_R   0.061971 0.499613 0.465113 0.009638
C169  C     C_R   0.390596 0.935237 0.437856 0.011074
C170  C     C_R   0.633738 0.064486 0.473411 0.020515
C171  C     C_R   0.633365 0.935111 0.474311 0.002761
C172  C     C_R   0.390692 0.064677 0.437850 0.012235
C173  C     C_R   0.877870 0.435851 0.493046 0.010801
C174  C     C_R   0.135426 0.563963 0.473298 0.011871
C175  C     C_R   0.134720 0.435124 0.474927 0.000710
C176  C     C_R   0.879135 0.565123 0.489655 0.020505
C177  C     C_R   0.334378 0.935026 0.461436 -0.122144
C178  C     C_R   0.673489 0.064742 0.506086 -0.164560
C179  C     C_R   0.673426 0.935189 0.506448 -0.155663
C180  C     C_R   0.334430 0.064935 0.461326 -0.145897
C181  C     C_R   0.830222 0.435476 0.480673 -0.145980
C182  C     C_R   0.175278 0.564535 0.504612 -0.134924
C183  C     C_R   0.175210 0.435133 0.504988 -0.146925
C184  C     C_R   0.830968 0.565081 0.478801 -0.140279
C185  C     C_R   0.306240 0.999973 0.482257 -0.080872
C186  C     C_R   0.688429 0.000116 0.530443 -0.114220
C187  C     C_R   0.811514 0.500195 0.463565 -0.117275
C188  C     C_R   0.190414 0.499981 0.528699 -0.116385
Cu1   Cu    Cu3+1 0.209920 0.785290 0.495070 0.977488
Cu2   Cu    Cu3+1 0.790080 0.214710 0.504930 1.043911
Cu3   Cu    Cu3+1 0.790080 0.785290 0.504930 1.008873
Cu4   Cu    Cu3+1 0.209920 0.214710 0.495070 1.009308
Cu5   Cu    Cu3+1 0.709920 0.285290 0.495070 0.960694
Cu6   Cu    Cu3+1 0.290080 0.714710 0.504930 1.007209
Cu7   Cu    Cu3+1 0.290080 0.285290 0.504930 0.962539
Cu8   Cu    Cu3+1 0.709920 0.714710 0.495070 0.995534
Cu9   Cu    Cu3+1 0.495240 0.500000 0.924150 0.973153
Cu10  Cu    Cu3+1 0.504760 0.500000 0.075850 0.974237
Cu11  Cu    Cu3+1 0.995240 1.000000 0.924150 0.984052
Cu12  Cu    Cu3+1 0.004760 0.000000 0.075850 0.981770
H1    H     H_    0.637918 0.825162 0.429812 0.220684
H2    H     H_    0.409941 0.174822 0.399085 0.204968
H3    H     H_    0.409754 0.825001 0.398897 0.205812
H4    H     H_    0.639533 0.173818 0.427025 0.211508
H5    H     H_    0.137910 0.325746 0.429218 0.219934
H6    H     H_    0.882533 0.674936 0.530096 0.213083
H7    H     H_    0.877968 0.327942 0.540736 0.220610
H8    H     H_    0.140901 0.672246 0.424245 0.206548
H9    H     H_    0.118679 0.847712 0.769986 0.194973
H10   H     H_    0.880444 0.150236 0.230762 0.192685
H11   H     H_    0.881571 0.847379 0.229766 0.194381
H12   H     H_    0.119068 0.151118 0.769602 0.192886
H13   H     H_    0.618556 0.347698 0.769660 0.192498
H14   H     H_    0.380642 0.650828 0.230892 0.190374
H15   H     H_    0.381031 0.348592 0.230601 0.191533
H16   H     H_    0.619468 0.650286 0.768764 0.190104
H17   H     H_    0.075954 0.840031 0.087535 0.207595
H18   H     H_    0.925590 0.160404 0.911300 0.168575
H19   H     H_    0.924763 0.839099 0.912192 0.206784
H20   H     H_    0.075479 0.160252 0.088241 0.168212
H21   H     H_    0.575720 0.340077 0.087288 0.204864
H22   H     H_    0.426750 0.662273 0.911672 0.168001
H23   H     H_    0.426687 0.337231 0.912060 0.206562
H24   H     H_    0.573041 0.663829 0.087782 0.167314
H25   H     H_    0.299834 0.638075 0.819778 0.172174
H26   H     H_    0.705924 0.369296 0.177481 0.159353
H27   H     H_    0.697495 0.641724 0.182059 0.171338
H28   H     H_    0.298252 0.364609 0.819449 0.152722
H29   H     H_    0.797503 0.134257 0.820443 0.174705
H30   H     H_    0.205070 0.869916 0.179876 0.155297
H31   H     H_    0.203478 0.132367 0.179122 0.173764
H32   H     H_    0.795890 0.869340 0.818523 0.155504
O1    O     O_R   0.255040 0.869590 0.478480 -0.583743
O2    O     O_R   0.744960 0.130410 0.521520 -0.535694
O3    O     O_R   0.744960 0.869590 0.521520 -0.525909
O4    O     O_R   0.255040 0.130410 0.478480 -0.586239
O5    O     O_R   0.755040 0.369590 0.478480 -0.598767
O6    O     O_R   0.244960 0.630410 0.521520 -0.594250
O7    O     O_R   0.244960 0.369590 0.521520 -0.600184
O8    O     O_R   0.755040 0.630410 0.478480 -0.590315
O9    O     O_R   0.182050 0.796550 0.624440 -0.570005
O10   O     O_R   0.817950 0.203450 0.375560 -0.578887
O11   O     O_R   0.817950 0.796550 0.375560 -0.572109
O12   O     O_R   0.182050 0.203450 0.624440 -0.578134
O13   O     O_R   0.682050 0.296550 0.624440 -0.582113
O14   O     O_R   0.317950 0.703450 0.375560 -0.595050
O15   O     O_R   0.317950 0.296550 0.375560 -0.588140
O16   O     O_R   0.682050 0.703450 0.624440 -0.589955
O17   O     O_R   0.250530 0.763330 0.367210 -0.598489
O18   O     O_R   0.749470 0.236670 0.632790 -0.577275
O19   O     O_R   0.749470 0.763330 0.632790 -0.593150
O20   O     O_R   0.250530 0.236670 0.367210 -0.582182
O21   O     O_R   0.750530 0.263330 0.367210 -0.600595
O22   O     O_R   0.249470 0.736670 0.632790 -0.574930
O23   O     O_R   0.249470 0.263330 0.632790 -0.589584
O24   O     O_R   0.750530 0.736670 0.367210 -0.588979
O25   O     O_R   0.177260 0.690030 0.513710 -0.593244
O26   O     O_R   0.822740 0.309970 0.486290 -0.590247
O27   O     O_R   0.822740 0.690030 0.486290 -0.599973
O28   O     O_R   0.177260 0.309970 0.513710 -0.589250
O29   O     O_R   0.677260 0.190030 0.513710 -0.599997
O30   O     O_R   0.322740 0.809970 0.486290 -0.586964
O31   O     O_R   0.322740 0.190030 0.486290 -0.590721
O32   O     O_R   0.677260 0.809970 0.513710 -0.601099
O33   O     O_R   0.051640 0.926880 0.885090 -0.574792
O34   O     O_R   0.948360 0.073120 0.114910 -0.586099
O35   O     O_R   0.948360 0.926880 0.114910 -0.578240
O36   O     O_R   0.051640 0.073120 0.885090 -0.583121
O37   O     O_R   0.551640 0.426880 0.885090 -0.580520
O38   O     O_R   0.448360 0.573120 0.114910 -0.588220
O39   O     O_R   0.448360 0.426880 0.114910 -0.581528
O40   O     O_R   0.551640 0.573120 0.885090 -0.588519
O41   O     O_R   0.940620 0.926560 0.986760 -0.589409
O42   O     O_R   0.059380 0.073440 0.013240 -0.595951
O43   O     O_R   0.059380 0.926560 0.013240 -0.589305
O44   O     O_R   0.940620 0.073440 0.986760 -0.596973
O45   O     O_R   0.440620 0.426560 0.986760 -0.586616
O46   O     O_R   0.559380 0.573440 0.013240 -0.592370
O47   O     O_R   0.559380 0.426560 0.013240 -0.586254
O48   O     O_R   0.440620 0.573440 0.986760 -0.593947
N1    N     N_3   0.565607 0.741465 0.447143 -0.583901
H33   H     H_    0.572393 0.707186 0.394001 0.251691
H34   H     H_    0.537410 0.718010 0.506807 0.214483
N2    N     N_3   0.473299 0.257968 0.414967 -0.604653
H35   H     H_    0.465206 0.288688 0.471826 0.230827
H36   H     H_    0.500459 0.284965 0.357614 0.262599
N3    N     N_3   0.471169 0.741472 0.419646 -0.603242
H37   H     H_    0.462141 0.711936 0.477697 0.231593
H38   H     H_    0.498370 0.713141 0.363574 0.217355
N4    N     N_3   0.568828 0.257909 0.439286 -0.608927
H39   H     H_    0.575986 0.290397 0.384572 0.237652
H40   H     H_    0.541242 0.283270 0.497921 0.239438
N5    N     N_3   0.062515 0.241144 0.465358 -0.577030
H41   H     H_    0.061345 0.209525 0.414898 0.248791
H42   H     H_    0.042174 0.215042 0.527025 0.214522
N6    N     N_3   0.957693 0.758918 0.482237 -0.603245
H43   H     H_    0.957755 0.788433 0.535196 0.233683
H44   H     H_    0.978374 0.787049 0.422215 0.251845
N7    N     N_3   0.951818 0.241821 0.499661 -0.584928
H45   H     H_    0.951797 0.214470 0.554067 0.243477
H46   H     H_    0.971440 0.211215 0.441454 0.219755
N8    N     N_3   0.067816 0.757815 0.450832 -0.610194
H47   H     H_    0.067900 0.787353 0.397946 0.241125
H48   H     H_    0.047576 0.786419 0.510625 0.237130
C189  C     C_2   0.246833 0.999940 0.538301 0.451113
H49   H     H_    0.220467 0.001443 0.506519 0.103864
O49   O     O_2   0.227469 0.997950 0.620292 -0.548357
C190  C     C_2   0.714373 0.000870 0.590828 0.484028
H50   H     H_    0.689509 0.006019 0.662892 0.078228
O50   O     O_2   0.763328 0.998072 0.560163 -0.477656
C191  C     C_2   0.777440 0.500280 0.416991 0.502933
H51   H     H_    0.734103 0.493744 0.454422 0.081869
O51   O     O_2   0.798341 0.509045 0.335769 -0.513818
C192  C     C_2   0.215106 0.500525 0.590511 0.496516
H52   H     H_    0.258101 0.492652 0.565190 0.091764
O52   O     O_2   0.186782 0.510777 0.670679 -0.512240
C193  C     C_2   0.118504 0.812500 0.194600 0.314349
H53   H     H_    0.132770 0.779942 0.232779 0.087052
O53   O     O_2   0.077594 0.847302 0.235537 -0.563647
C194  C     C_2   0.885576 0.191288 0.804077 0.343252
H54   H     H_    0.919069 0.155122 0.770388 0.066138
O54   O     O_2   0.876102 0.234626 0.758973 -0.529011
C195  C     C_2   0.882393 0.811976 0.804445 0.330289
H55   H     H_    0.868104 0.779728 0.765897 0.087148
O55   O     O_2   0.923502 0.846526 0.763773 -0.551745
C196  C     C_2   0.116129 0.191807 0.194621 0.335421
H56   H     H_    0.082011 0.156708 0.229396 0.062752
O56   O     O_2   0.126454 0.235611 0.238343 -0.534331
C197  C     C_2   0.618910 0.315448 0.193210 0.295860
H57   H     H_    0.631286 0.280715 0.231978 0.084609
O57   O     O_2   0.581168 0.355715 0.232788 -0.573294
C198  C     C_2   0.387452 0.695489 0.803897 0.346860
H58   H     H_    0.421117 0.659588 0.770116 0.066983
O58   O     O_2   0.377936 0.738940 0.758970 -0.517623
C199  C     C_2   0.385036 0.307365 0.803664 0.330372
H59   H     H_    0.370846 0.275051 0.765032 0.091401
O59   O     O_2   0.426038 0.342140 0.763109 -0.550313
C200  C     C_2   0.612065 0.703773 0.194403 0.325715
H60   H     H_    0.578190 0.668857 0.231333 0.049441
O60   O     O_2   0.621989 0.750968 0.234597 -0.541112
C201  C     C_2   0.232960 0.631168 0.746077 0.459590
H61   H     H_    0.198746 0.629105 0.731852 0.096448
O61   O     O_2   0.266579 0.584115 0.717572 -0.554832
C202  C     C_2   0.771149 0.371725 0.251875 0.472711
H62   H     H_    0.739496 0.410986 0.281644 0.089649
O62   O     O_2   0.812352 0.378682 0.259650 -0.514336
C203  C     C_2   0.764593 0.632446 0.254530 0.471697
H63   H     H_    0.799262 0.628622 0.267386 0.096824
O63   O     O_2   0.729529 0.587207 0.284832 -0.546343
C204  C     C_2   0.231621 0.370904 0.747900 0.459793
H64   H     H_    0.263753 0.409609 0.718327 0.079123
O64   O     O_2   0.190417 0.379357 0.740593 -0.514123
C205  C     C_2   0.730953 0.128929 0.745498 0.441003
H65   H     H_    0.697250 0.127531 0.729793 0.026451
O65   O     O_2   0.763941 0.081102 0.718139 -0.541758
C206  C     C_2   0.269549 0.873825 0.255653 0.436503
H66   H     H_    0.236746 0.911457 0.286031 0.085852
O66   O     O_2   0.310011 0.882659 0.265242 -0.563476
C207  C     C_2   0.269614 0.127969 0.255390 0.435190
H67   H     H_    0.303274 0.126801 0.271231 0.047073
O67   O     O_2   0.236264 0.080537 0.283829 -0.567975
C208  C     C_2   0.729923 0.873597 0.745248 0.429895
H68   H     H_    0.762201 0.912044 0.715164 0.109920
O68   O     O_2   0.689006 0.881596 0.736896 -0.580149

loop_
_geom_bond_atom_site_label_1
_geom_bond_atom_site_label_2
_ccdc_geom_bond_type
C85   C182  S    
C197  O57   D    
C9    C169  A    
C34   C42   A    
C111  C195  S    
C181  C187  A    
C123  C207  S    
Cu11  O33   S    
C138  O40   A    
C119  C203  S    
C139  O37   A    
C27   C99   A    
C170  C178  A    
C139  O47   A    
N2    H35   S    
C42   C109  A    
C24   C96   A    
C156  N1    S    
C108  H24   S    
Cu2   O18   S    
C30   C38   A    
Cu3   Cu8   S    
C118  C202  S    
Cu9   O48   S    
Cu1   Cu6   S    
Cu12  O35   S    
Cu10  O47   S    
N3    H38   S    
C6    O9    A    
C196  H56   S    
C147  C155  A    
C7    O23   A    
C143  C151  A    
C90   C177  S    
Cu11  Cu12  S    
Cu8   O16   S    
C11   C167  A    
C82   C98   A    
C76   C84   A    
C126  H26   S    
C73   C81   A    
C161  C163  A    
C162  C164  A    
C195  H55   S    
C84   C100  A    
Cu4   Cu7   S    
Cu8   O32   S    
C4    O20   A    
C87   O27   A    
C199  O59   D    
C37   C114  A    
C27   C35   A    
C192  H52   S    
C55   C133  S    
C88   O7    A    
C21   C29   A    
C8    O24   A    
C81   C121  A    
C23   C31   A    
C24   C32   A    
C65   H13   S    
C5    C70   S    
C56   C134  S    
C146  C154  A    
C153  N4    S    
Cu3   O3    S    
C92   O32   A    
N6    H43   S    
C63   C71   A    
Cu1   O9    S    
C36   C44   A    
C89   O29   A    
C3    O16   A    
Cu9   O37   S    
C91   O31   A    
C12   C174  A    
C58   C140  S    
C176  C184  A    
C8    C71   S    
C48   C96   A    
Cu6   O30   S    
C15   H3    S    
C115  C199  S    
C122  C206  S    
C33   C41   A    
C183  C188  A    
C108  C116  A    
C21   C93   A    
C78   C94   A    
C148  C162  A    
C23   C95   A    
C135  O43   A    
C204  H64   S    
C114  C198  S    
C49   C97   A    
C21   C42   A    
C22   C41   A    
Cu7   O31   S    
C51   C107  A    
Cu6   O14   S    
C207  H67   S    
C24   C43   A    
C64   H12   S    
C85   O25   A    
C16   H4    S    
C192  O52   D    
C82   C122  A    
C161  C165  A    
C17   C175  A    
C60   C138  S    
C18   C176  A    
C6    C69   S    
C29   C125  A    
Cu2   O26   S    
C69   C77   A    
C53   C135  S    
C31   C127  A    
C45   C93   A    
C174  C182  A    
C71   C79   A    
C137  O39   A    
C179  C186  A    
C137  O45   A    
C11   C176  A    
C17   C144  A    
C1    C74   S    
Cu7   O7    S    
C18   C143  A    
C78   C118  A    
C2    O13   A    
C3    O19   A    
C149  C151  A    
C1    O17   A    
C208  H68   S    
C66   C74   A    
C49   C57   A    
C124  C132  A    
C136  O34   A    
C85   O6    A    
C5    O21   A    
C52   C60   A    
C59   C67   A    
C53   C61   A    
C141  C159  A    
C20   C174  A    
C189  O49   D    
C55   C63   A    
C86   C181  S    
Cu3   O19   S    
C56   C64   A    
Cu1   O1    S    
C10   C166  A    
Cu9   O45   S    
Cu12  O34   S    
C45   C53   A    
C138  O46   A    
C185  C189  S    
C22   C94   A    
C171  C179  A    
C169  C177  A    
C190  O50   D    
C133  O35   A    
C201  O61   D    
N8    H48   S    
C50   C98   A    
C133  O41   A    
C198  H58   S    
C7    C72   S    
C104  C112  A    
C120  C204  S    
C145  C163  A    
Cu4   O20   S    
C146  C164  A    
C14   C147  A    
C52   C100  A    
C199  H59   S    
C90   O1    A    
C109  C193  S    
C16   C145  A    
C195  O55   D    
C194  O54   D    
C4    O15   A    
N5    H41   S    
C178  C186  A    
C25   C38   A    
C46   C94   A    
C27   C40   A    
C128  H28   S    
Cu5   O5    S    
C91   C180  S    
C206  O66   D    
C62   H10   S    
C182  C188  A    
C89   C178  S    
Cu6   O6    S    
C60   C68   A    
C2    C73   S    
C25   C97   A    
Cu11  O41   S    
C39   C116  A    
C200  O60   D    
C191  O51   D    
C67   C75   A    
C131  H31   S    
C121  C129  A    
C22   C30   A    
C20   C141  A    
Cu4   O28   S    
C63   H11   S    
C15   C146  A    
Cu7   O15   S    
Cu11  O36   S    
C103  C111  A    
N1    H34   S    
Cu12  O43   S    
C150  N7    S    
C184  C187  A    
C32   C128  A    
C17   H5    S    
C152  N5    S    
C72   C80   A    
C105  H21   S    
C14   H2    S    
Cu9   Cu10  S    
C90   O30   A    
Cu10  O38   S    
C102  H18   S    
C13   C171  A    
C202  H62   S    
C196  O56   D    
C117  C125  A    
C25   C33   A    
C119  C127  A    
C158  C160  A    
Cu7   O23   S    
C124  C208  S    
C157  C167  A    
C80   C120  A    
C205  H65   S    
C158  C168  A    
C110  C194  S    
C164  C165  A    
C40   C115  A    
C130  H30   S    
C101  C109  A    
C177  C185  A    
C57   C139  S    
Cu1   O17   S    
N4    H39   S    
C193  O53   D    
C140  O48   A    
C86   O26   A    
C4    C75   S    
C188  C192  S    
Cu2   Cu5   S    
C205  O65   D    
C162  C166  A    
C79   C119  A    
C7    O12   A    
Cu3   O27   S    
C5    O10   A    
C153  C155  A    
C154  C156  A    
C172  C180  A    
N6    H44   S    
C173  C181  A    
C157  C159  A    
C83   C99   A    
C127  H27   S    
C74   C82   A    
C125  H25   S    
Cu4   O4    S    
C134  O36   A    
C47   C103  A    
C151  N6    S    
C50   C58   A    
C163  C166  A    
C147  C161  A    
C203  H63   S    
C38   C113  A    
C49   C105  A    
C54   C62   A    
C8    O11   A    
C23   C44   A    
Cu6   O22   S    
C66   H14   S    
N7    H45   S    
C19   C173  A    
C79   C95   A    
C92   C179  S    
N3    H37   S    
Cu10  O46   S    
C46   C54   A    
C61   H9    S    
C187  C191  S    
C45   C101  A    
C106  C114  A    
Cu2   O10   S    
C19   C142  A    
C102  C110  A    
C68   C76   A    
C35   C131  A    
C33   C129  A    
C36   C132  A    
C123  C131  A    
C57   C65   A    
C120  C128  A    
C26   C37   A    
C10   C170  A    
Cu8   O24   S    
C92   O3    A    
C28   C39   A    
Cu3   O11   S    
C142  C150  A    
C9    C165  A    
C10   C171  A    
C117  C201  S    
C75   C83   A    
C208  O68   D    
Cu12  O42   S    
N2    H36   S    
C140  O38   A    
C68   H16   S    
C88   O28   A    
C44   C111  A    
C16   C170  A    
C28   C36   A    
C144  C152  A    
C149  N8    S    
C29   C37   A    
C50   C106  A    
Cu5   O13   S    
C9    C172  A    
C148  C156  A    
C83   C123  A    
C103  H19   S    
C191  H51   S    
C30   C126  A    
Cu4   O12   S    
C70   C78   A    
C197  H57   S    
C67   H15   S    
C141  C149  A    
C201  H61   S    
C46   C102  A    
C15   C169  A    
C189  H49   S    
C198  O58   D    
C77   C117  A    
C1    O14   A    
C2    O18   A    
C59   C137  S    
C48   C104  A    
C129  H29   S    
C86   O5    A    
C65   C73   A    
C159  C168  A    
C6    O22   A    
C160  C167  A    
C155  N2    S    
C104  H20   S    
C58   C66   A    
Cu5   O21   S    
C31   C39   A    
C105  C113  A    
Cu2   O2    S    
C80   C96   A    
C145  C153  A    
C28   C100  A    
C32   C40   A    
Cu11  O44   S    
C52   C108  A    
C19   H7    S    
C62   C70   A    
C136  O44   A    
C132  H32   S    
C26   C34   A    
C143  C157  A    
C107  H23   S    
C51   C99   A    
C11   C173  A    
C121  C205  S    
C14   C172  A    
C87   C184  S    
C88   C183  S    
N1    H33   S    
C91   O4    A    
Cu5   O29   S    
C89   O2    A    
C204  O64   D    
C113  C197  S    
C203  O63   D    
C54   C136  S    
C154  N3    S    
C207  O67   D    
Cu9   O40   S    
C3    C76   S    
N7    H46   S    
C107  C115  A    
Cu10  O39   S    
C26   C98   A    
C12   C175  A    
C112  C196  S    
C202  O62   D    
C41   C110  A    
C134  O42   A    
C150  C152  A    
C51   C59   A    
C43   C112  A    
C20   H8    S    
C144  C158  A    
C35   C43   A    
C190  H50   S    
C77   C93   A    
C47   C55   A    
Cu8   O8    S    
C61   C69   A    
C48   C56   A    
N8    H47   S    
C87   O8    A    
C175  C183  A    
C142  C160  A    
C12   C168  A    
C186  C190  S    
C84   C124  A    
Cu1   O25   S    
C18   H6    S    
C194  H54   S    
N5    H42   S    
C106  H22   S    
C81   C97   A    
C206  H66   S    
C13   H1    S    
N4    H40   S    
C64   C72   A    
C193  H53   S    
C180  C185  A    
C101  H17   S    
C34   C130  A    
C200  H60   S    
C135  O33   A    
C47   C95   A    
C116  C200  S    
C118  C126  A    
C13   C148  A    
C122  C130  A    
