data_mof_unit_16034.cif
_audit_creation_date              2012-12-10T17:05:57-0500
_audit_creation_method            fapswitch 2.2
_symmetry_space_group_name_H-M    P1
_symmetry_Int_Tables_number       1
_space_group_crystal_system       triclinic
_cell_length_a                    23.458773
_cell_length_b                    29.761039
_cell_length_c                    19.382376
_cell_angle_alpha                 89.729525
_cell_angle_beta                  125.667284
_cell_angle_gamma                 90.358996
_cell_volume                      10993.355789

loop_
_atom_site_label
_atom_site_type_symbol
_atom_type_description
_atom_site_fract_x
_atom_site_fract_y
_atom_site_fract_z
_atom_type_partial_charge
C1    C     C_R   0.694430 0.810866 0.882008 0.876067
C2    C     C_R   0.307319 0.139961 0.221121 -0.098800
C3    C     C_R   0.752803 0.125206 0.693428 0.071988
C4    C     C_R   0.240324 0.365567 0.676029 0.168819
C5    C     C_R   0.760309 0.637050 0.325142 0.112742
C6    C     C_R   0.795279 0.336119 0.360651 0.131374
C7    C     C_R   0.252804 0.625206 0.693428 0.071992
C8    C     C_R   0.669533 0.874780 0.642725 -0.057146
C9    C     C_R   0.330725 0.126446 0.359051 -0.073902
C10   C     C_R   0.354221 0.861458 0.378809 -0.052376
C11   C     C_R   0.679960 0.120879 0.653579 -0.016095
C12   C     C_R   0.169538 0.374783 0.642733 -0.057124
C13   C     C_R   0.314173 0.851347 0.232765 -0.073352
C14   C     C_R   0.830736 0.626452 0.359062 -0.073900
C15   C     C_R   0.854261 0.361441 0.378839 -0.052403
C16   C     C_R   0.179961 0.620877 0.653579 -0.016104
C17   C     C_R   0.649566 0.878803 0.699198 -0.039562
C18   C     C_R   0.351827 0.122716 0.303585 0.069901
C19   C     C_R   0.360295 0.872475 0.311136 -0.046598
C20   C     C_R   0.653882 0.118952 0.704018 0.044433
C21   C     C_R   0.149569 0.378805 0.699203 -0.039572
C22   C     C_R   0.851830 0.622718 0.303589 0.069892
C23   C     C_R   0.860313 0.372467 0.311151 -0.046617
C24   C     C_R   0.696491 0.135977 0.786611 -0.127440
C25   C     C_R   0.153882 0.618952 0.704017 0.044436
C26   C     C_3   0.582228 0.873187 0.907457 -0.757257
C27   C     C_3   0.419295 0.130235 0.095036 -0.670963
C28   C     C_3   0.373967 0.899927 0.059210 -0.739706
C29   C     C_3   0.566066 0.135405 0.889416 -0.745264
C30   C     C_3   0.082227 0.373185 0.907458 -0.757277
C31   C     C_3   0.919270 0.630225 0.095008 -0.670957
C32   C     C_3   0.873895 0.399960 0.059166 -0.739696
C33   C     C_3   0.066067 0.635405 0.889416 -0.745271
C34   C     C_2   0.819078 0.859836 0.911441 0.392745
C35   C     C_R   0.194363 0.360974 0.780828 -0.079222
C36   C     C_2   0.183181 0.139491 0.090189 0.390251
C37   C     C_2   0.185078 0.840134 0.120956 0.395203
C38   C     C_2   0.818321 0.135207 0.923784 0.423745
C39   C     C_2   0.319079 0.359839 0.911449 0.392751
C40   C     C_2   0.683177 0.639501 0.090204 0.390236
C41   C     C_2   0.685093 0.340103 0.121008 0.395180
C42   C     C_2   0.318322 0.635208 0.923783 0.423740
C43   C     C_3   0.894690 0.817936 0.808162 -0.640898
C44   C     C_3   0.097851 0.112443 0.185798 -0.652104
C45   C     C_3   0.170481 0.757771 0.236114 -0.664228
C46   C     C_R   0.807320 0.639965 0.221126 -0.098787
C47   C     C_3   0.901836 0.082853 0.853449 -0.676721
C48   C     C_3   0.394699 0.317944 0.808176 -0.640913
C49   C     C_3   0.597856 0.612480 0.185844 -0.652076
C50   C     C_3   0.670582 0.257707 0.236166 -0.664261
C51   C     C_3   0.401837 0.582854 0.853454 -0.676715
C52   C     C_3   0.756617 0.819779 0.585861 -0.738141
C53   C     C_3   0.239969 0.185460 0.408413 -0.743219
C54   C     C_3   0.327930 0.781012 0.470543 -0.738442
C55   C     C_3   0.785557 0.080840 0.615815 -0.803121
C56   C     C_3   0.256631 0.319786 0.585875 -0.738159
C57   C     C_R   0.814190 0.351335 0.232784 -0.073327
C58   C     C_3   0.740015 0.685486 0.408449 -0.743207
C59   C     C_3   0.828044 0.280972 0.470606 -0.738422
C60   C     C_3   0.285570 0.580840 0.615827 -0.803139
C61   C     C_2   0.614888 0.870911 0.550090 0.413135
C62   C     C_2   0.383194 0.127103 0.452751 0.431247
C63   C     C_2   0.413357 0.870149 0.468557 0.454794
C64   C     C_2   0.632214 0.125939 0.559741 0.437695
C65   C     C_2   0.114896 0.370908 0.550098 0.413079
C66   C     C_2   0.883211 0.627106 0.452760 0.431222
C67   C     C_2   0.913400 0.370144 0.468580 0.454788
C68   C     C_R   0.196492 0.635977 0.786610 -0.127432
C69   C     C_2   0.132216 0.625933 0.559740 0.437742
C70   C     C_2   0.497964 0.913054 0.712747 0.539629
C71   C     C_2   0.518198 0.101579 0.314899 0.537373
C72   C     C_2   0.467800 0.939081 0.251171 0.478993
C73   C     C_2   0.483177 0.101448 0.685769 0.499161
C74   C     C_2   0.997969 0.413058 0.712754 0.539629
C75   C     C_2   0.018182 0.601562 0.314867 0.537424
C76   C     C_2   0.967743 0.439115 0.251123 0.478917
C77   C     C_2   0.983178 0.601447 0.685770 0.499141
C78   C     C_R   0.663248 0.846452 0.821199 -0.124660
C79   C     C_R   0.338164 0.153408 0.179791 -0.158815
C80   C     C_R   0.335652 0.846694 0.178811 -0.131286
C81   C     C_R   0.306633 0.189016 0.118212 0.876208
C82   C     C_R   0.662081 0.153514 0.820850 -0.131681
C83   C     C_R   0.163248 0.346452 0.821200 -0.124658
C84   C     C_R   0.838161 0.653408 0.179789 -0.158794
C85   C     C_R   0.835651 0.346695 0.178810 -0.131296
C86   C     C_R   0.162081 0.653514 0.820850 -0.131679
C87   C     C_R   0.596680 0.861173 0.794698 0.117119
C88   C     C_R   0.406308 0.140408 0.209391 0.169769
C89   C     C_R   0.388821 0.873626 0.187748 0.117317
C90   C     C_R   0.591608 0.143321 0.785586 0.137438
C91   C     C_R   0.096680 0.361173 0.794699 0.117110
C92   C     C_R   0.307343 0.810911 0.118097 0.851509
C93   C     C_R   0.906299 0.640400 0.209377 0.169743
C94   C     C_R   0.888796 0.373644 0.187723 0.117308
C95   C     C_R   0.091609 0.643321 0.785586 0.137439
C96   C     C_R   0.561657 0.891944 0.728469 -0.039502
C97   C     C_R   0.444919 0.113626 0.282005 -0.048713
C98   C     C_R   0.421508 0.905277 0.252582 -0.038316
C99   C     C_R   0.555471 0.114284 0.716643 -0.038796
C100  C     C_R   0.061659 0.391946 0.728472 -0.039460
C101  C     C_R   0.944910 0.613618 0.281991 -0.048693
C102  C     C_R   0.921480 0.405295 0.252556 -0.038324
C103  C     C_R   0.693992 0.189079 0.881919 0.884830
C104  C     C_R   0.055471 0.614285 0.716642 -0.038786
C105  C     C_R   0.587861 0.900963 0.679448 -0.197795
C106  C     C_R   0.415512 0.102304 0.326580 -0.167546
C107  C     C_R   0.409146 0.903961 0.316272 -0.182047
C108  C     C_R   0.587366 0.100689 0.676399 -0.133280
C109  C     C_R   0.087863 0.400964 0.679451 -0.197764
C110  C     C_R   0.915509 0.602302 0.326575 -0.167545
C111  C     C_R   0.909142 0.403965 0.316266 -0.182004
C112  C     C_R   0.087367 0.600689 0.676399 -0.133286
C113  C     C_R   0.057464 0.563327 0.615593 0.960356
C114  C     C_R   0.194430 0.310865 0.882008 0.876070
C115  C     C_R   0.940934 0.438534 0.381161 0.913478
C116  C     C_R   0.943523 0.563905 0.385642 0.957250
C117  C     C_R   0.057849 0.437361 0.617007 0.900530
C118  C     C_R   0.557464 0.063327 0.615594 0.960401
C119  C     C_R   0.440936 0.938532 0.381164 0.913422
C120  C     C_R   0.443524 0.063906 0.385643 0.957238
C121  C     C_R   0.557848 0.937360 0.617005 0.900494
C122  C     C_R   0.640625 0.750520 0.999875 0.922982
C123  C     C_R   0.359576 0.249194 0.000541 0.920783
C124  C     C_R   0.359307 0.750655 0.999921 0.918198
C125  C     C_R   0.806634 0.689016 0.118212 0.876204
C126  C     C_R   0.640363 0.248917 0.999374 0.890264
C127  C     C_R   0.140625 0.250520 0.999875 0.922998
C128  C     C_R   0.859576 0.749194 0.000541 0.920786
C129  C     C_R   0.859307 0.250655 0.999921 0.918194
C130  C     C_R   0.140364 0.748917 0.999375 0.890301
C131  C     C_1   0.580340 0.751682 0.999692 -0.131858
C132  C     C_1   0.420058 0.247444 0.001129 -0.115950
C133  C     C_1   0.419216 0.751846 0.999276 -0.123936
C134  C     C_1   0.580146 0.247045 0.999373 -0.144087
C135  C     C_1   0.080340 0.251681 0.999693 -0.131857
C136  C     C_R   0.807346 0.310912 0.118097 0.851487
C137  C     C_1   0.920059 0.747443 0.001130 -0.115954
C138  C     C_1   0.919216 0.251845 0.999276 -0.123937
C139  C     C_1   0.080146 0.747045 0.999374 -0.144056
C140  C     C_1   0.529387 0.752243 0.999412 0.017204
C141  C     C_1   0.470800 0.246357 0.000986 0.022114
C142  C     C_1   0.470002 0.752314 0.999183 0.029351
C143  C     C_1   0.529657 0.246147 0.000087 0.029469
C144  C     C_1   0.029387 0.252242 0.999412 0.017191
C145  C     C_1   0.970800 0.746357 0.000986 0.022078
C146  C     C_1   0.970002 0.252313 0.999183 0.029347
C147  C     C_R   0.193993 0.689079 0.881919 0.884826
C148  C     C_1   0.029657 0.746147 0.000087 0.029429
C149  C     C_R   0.767353 0.857822 0.817568 -0.127643
C150  C     C_R   0.234417 0.144463 0.184021 -0.133744
C151  C     C_R   0.248177 0.835948 0.210735 -0.089879
C152  C     C_R   0.770649 0.136257 0.829501 -0.097095
C153  C     C_R   0.267356 0.357826 0.817576 -0.127646
C154  C     C_R   0.734421 0.644474 0.184035 -0.133749
C155  C     C_R   0.748208 0.335919 0.210777 -0.089831
C156  C     C_R   0.270650 0.636258 0.829501 -0.097096
C157  C     C_R   0.789913 0.860734 0.763940 0.196430
C158  C     C_R   0.694360 0.860971 0.780823 -0.079210
C159  C     C_R   0.211611 0.144075 0.237516 0.229733
C160  C     C_R   0.240600 0.825665 0.276081 0.221792
C161  C     C_R   0.798688 0.129868 0.782453 0.207191
C162  C     C_R   0.289918 0.360740 0.763950 0.196438
C163  C     C_R   0.711623 0.644093 0.237538 0.229744
C164  C     C_R   0.740657 0.325621 0.276139 0.221817
C165  C     C_R   0.298689 0.629868 0.782452 0.207193
C166  C     C_R   0.740318 0.865561 0.676019 0.168834
C167  C     C_R   0.260293 0.137034 0.325122 0.112730
C168  C     C_R   0.295218 0.836155 0.360600 0.131365
H1    H     H_    0.569753 0.812204 0.848359 0.227523
H2    H     H_    0.316771 0.892930 0.017370 0.258466
H3    H     H_    0.812233 0.268904 0.511472 0.237691
H4    H     H_    0.318616 0.647095 0.658772 0.226335
H5    H     H_    0.263782 0.582498 0.547418 0.245523
H6    H     H_    0.256483 0.554461 0.624598 0.245052
H7    H     H_    0.341672 0.571191 0.652085 0.241408
H8    H     H_    0.569130 0.850398 0.527757 0.019986
H9    H     H_    0.370342 0.114033 0.494345 0.031581
H10   H     H_    0.466025 0.871696 0.486012 -0.011092
H11   H     H_    0.650656 0.118935 0.521101 0.070946
H12   H     H_    0.069154 0.350378 0.527768 0.020010
H13   H     H_    0.395684 0.895530 0.021853 0.234934
H14   H     H_    0.870368 0.614027 0.494356 0.031589
H15   H     H_    0.966063 0.371713 0.486020 -0.011084
H16   H     H_    0.150651 0.618910 0.521099 0.070930
H17   H     H_    0.452867 0.892365 0.694127 0.088680
H18   H     H_    0.559252 0.103198 0.382206 0.057949
H19   H     H_    0.507337 0.928280 0.242498 0.085450
H20   H     H_    0.440691 0.125115 0.648513 0.041340
H21   H     H_    0.952872 0.392370 0.694141 0.088681
H22   H     H_    0.059250 0.603194 0.382168 0.057892
H23   H     H_    0.007256 0.428331 0.242397 0.085474
H24   H     H_    0.382351 0.935402 0.080525 0.249173
H25   H     H_    0.940692 0.625115 0.648519 0.041335
H26   H     H_    0.564244 0.195272 0.832738 0.231289
H27   H     H_    0.621777 0.136206 0.945448 0.248226
H28   H     H_    0.549449 0.099997 0.869753 0.279342
H29   H     H_    0.533229 0.149936 0.907792 0.231524
H30   H     H_    0.069751 0.312204 0.848356 0.227525
H31   H     H_    0.139020 0.371077 0.959672 0.257912
H32   H     H_    0.052006 0.360645 0.931313 0.234033
H33   H     H_    0.639021 0.871080 0.959671 0.257909
H34   H     H_    0.068031 0.408865 0.888405 0.265762
H35   H     H_    0.934759 0.690090 0.158709 0.213392
H36   H     H_    0.863757 0.635943 0.041333 0.230461
H37   H     H_    0.927245 0.593732 0.109754 0.279090
H38   H     H_    0.953104 0.640951 0.075127 0.227327
H39   H     H_    0.910982 0.337076 0.114442 0.222460
H40   H     H_    0.816700 0.392956 0.017345 0.258466
H41   H     H_    0.895593 0.395573 0.021787 0.234935
H42   H     H_    0.882273 0.435435 0.080484 0.249146
H43   H     H_    0.064245 0.695272 0.832738 0.231290
H44   H     H_    0.552008 0.860648 0.931314 0.234030
H45   H     H_    0.121778 0.636206 0.945448 0.248228
H46   H     H_    0.049449 0.599997 0.869753 0.279342
H47   H     H_    0.033229 0.649935 0.907792 0.231524
H48   H     H_    0.804619 0.875606 0.949438 0.097813
H49   H     H_    0.199412 0.122978 0.054589 0.101619
H50   H     H_    0.190135 0.852427 0.072169 0.086666
H51   H     H_    0.800797 0.119697 0.959125 0.082516
H52   H     H_    0.304618 0.375609 0.949445 0.097816
H53   H     H_    0.699404 0.622990 0.054596 0.101631
H54   H     H_    0.690130 0.352392 0.072203 0.086650
H55   H     H_    0.568031 0.908867 0.888401 0.265767
H56   H     H_    0.300798 0.619698 0.959125 0.082517
H57   H     H_    0.893161 0.884148 0.844683 0.253732
H58   H     H_    0.911442 0.815747 0.765289 0.229611
H59   H     H_    0.858210 0.789620 0.794093 0.221367
H60   H     H_    0.941854 0.814384 0.874551 0.259190
H61   H     H_    0.115955 0.177973 0.162128 0.269601
H62   H     H_    0.044754 0.122295 0.166156 0.245016
H63   H     H_    0.121673 0.090338 0.242490 0.228615
H64   H     H_    0.092631 0.093556 0.133084 0.249607
H65   H     H_    0.164692 0.812533 0.297878 0.240798
H66   H     H_    0.434757 0.190103 0.158718 0.213408
H67   H     H_    0.208718 0.737857 0.293522 0.213261
H68   H     H_    0.179111 0.751537 0.186431 0.248412
H69   H     H_    0.116656 0.746327 0.211623 0.237925
H70   H     H_    0.892397 0.144503 0.796904 0.221966
H71   H     H_    0.881743 0.060358 0.798207 0.217584
H72   H     H_    0.887985 0.068389 0.894840 0.239743
H73   H     H_    0.959914 0.084671 0.890619 0.246699
H74   H     H_    0.393164 0.384155 0.844697 0.253725
H75   H     H_    0.411452 0.315756 0.765305 0.229612
H76   H     H_    0.358220 0.289628 0.794108 0.221369
H77   H     H_    0.363776 0.135937 0.041363 0.230447
H78   H     H_    0.441862 0.314393 0.874566 0.259180
H79   H     H_    0.615976 0.678002 0.162157 0.269591
H80   H     H_    0.544764 0.622343 0.166207 0.245006
H81   H     H_    0.621676 0.590381 0.242542 0.228613
H82   H     H_    0.592625 0.593585 0.133133 0.249624
H83   H     H_    0.664788 0.312440 0.297982 0.240814
H84   H     H_    0.708867 0.237792 0.293547 0.213253
H85   H     H_    0.679159 0.251501 0.186430 0.248446
H86   H     H_    0.616780 0.246238 0.211732 0.237919
H87   H     H_    0.392397 0.644500 0.796900 0.221968
H88   H     H_    0.427298 0.093745 0.109800 0.279104
H89   H     H_    0.381744 0.560356 0.798215 0.217579
H90   H     H_    0.387988 0.568392 0.894848 0.239746
H91   H     H_    0.459915 0.584672 0.890622 0.246699
H92   H     H_    0.747916 0.889641 0.580665 0.268342
H93   H     H_    0.700405 0.811176 0.538672 0.242236
H94   H     H_    0.781598 0.793412 0.635745 0.236440
H95   H     H_    0.782889 0.820294 0.553284 0.239013
H96   H     H_    0.255042 0.116149 0.424228 0.207766
H97   H     H_    0.295351 0.197002 0.451299 0.231644
H98   H     H_    0.216377 0.185518 0.444138 0.235503
H99   H     H_    0.453117 0.140973 0.075145 0.227321
H100  H     H_    0.209971 0.209165 0.354169 0.255626
H101  H     H_    0.290532 0.845922 0.463857 0.274881
H102  H     H_    0.385153 0.788045 0.511347 0.250169
H103  H     H_    0.316863 0.753976 0.424966 0.233206
H104  H     H_    0.312083 0.768947 0.511376 0.237697
H105  H     H_    0.818621 0.147090 0.658776 0.226335
H106  H     H_    0.763766 0.082501 0.547406 0.245526
H107  H     H_    0.756464 0.054462 0.624582 0.245053
H108  H     H_    0.841656 0.071185 0.652068 0.241404
H109  H     H_    0.247917 0.389647 0.580672 0.268338
H110  H     H_    0.411018 0.837040 0.114495 0.222451
H111  H     H_    0.200421 0.311181 0.538685 0.242225
H112  H     H_    0.281614 0.293420 0.635761 0.236447
H113  H     H_    0.282905 0.320304 0.553301 0.239018
H114  H     H_    0.755065 0.616174 0.424257 0.207763
H115  H     H_    0.795401 0.697020 0.451330 0.231658
H116  H     H_    0.716429 0.685551 0.444181 0.235496
H117  H     H_    0.710022 0.709193 0.354207 0.255624
H118  H     H_    0.790613 0.345870 0.463927 0.274889
H119  H     H_    0.885265 0.288015 0.511375 0.250163
H120  H     H_    0.816965 0.253935 0.425026 0.233204
N1    N     N_2   0.565479 0.846192 0.835890 -0.333779
N2    N     N_2   0.140422 0.152270 0.205651 -0.278060
N3    N     N_2   0.177710 0.805079 0.256777 -0.245455
N4    N     N_2   0.872815 0.127446 0.825251 -0.246079
N5    N     N_2   0.362376 0.361226 0.796997 -0.276402
N6    N     N_2   0.640439 0.652300 0.205683 -0.278066
N7    N     N_2   0.677790 0.305010 0.256857 -0.245472
N8    N     N_2   0.372815 0.627446 0.825250 -0.246077
N9    N     N_2   0.763814 0.863397 0.622906 -0.276676
N10   N     N_2   0.236793 0.140558 0.378129 -0.297722
N11   N     N_2   0.288915 0.821145 0.425830 -0.306617
N12   N     N_2   0.437673 0.155889 0.168728 -0.286307
N13   N     N_2   0.779367 0.124553 0.643376 -0.326966
N14   N     N_2   0.263821 0.363405 0.622917 -0.276680
N15   N     N_2   0.736819 0.640582 0.378159 -0.297727
N16   N     N_2   0.789003 0.321099 0.425897 -0.306625
N17   N     N_2   0.279368 0.624553 0.643375 -0.326963
N18   N     N_2   0.408940 0.869527 0.131138 -0.329379
N19   N     N_2   0.557011 0.161292 0.820320 -0.327686
N20   N     N_2   0.065478 0.346191 0.835889 -0.333776
N21   N     N_2   0.937662 0.655876 0.168709 -0.286340
N22   N     N_2   0.908895 0.369559 0.131091 -0.329374
N23   N     N_2   0.057011 0.661292 0.820320 -0.327687
N24   N     N_2   0.862370 0.861218 0.796985 -0.276404
O1    O     O_R   0.678330 0.769930 0.856640 -0.618140
O2    O     O_R   0.269970 0.178360 0.039920 -0.646847
O3    O     O_R   0.269970 0.821640 0.039920 -0.638337
O4    O     O_R   0.730030 0.178360 0.960080 -0.645221
O5    O     O_R   0.230030 0.321640 0.960080 -0.642943
O6    O     O_R   0.769970 0.678360 0.039920 -0.646853
O7    O     O_R   0.769970 0.321640 0.039920 -0.638322
O8    O     O_R   0.230030 0.678360 0.960080 -0.645223
O9    O     O_R   0.641350 0.724120 0.948260 -0.597710
O10   O     O_R   0.358650 0.275880 0.051740 -0.593030
O11   O     O_R   0.358650 0.724120 0.051740 -0.591114
O12   O     O_R   0.321670 0.230070 0.143360 -0.608166
O13   O     O_R   0.641350 0.275880 0.948260 -0.617880
O14   O     O_R   0.141350 0.224120 0.948260 -0.597694
O15   O     O_R   0.858650 0.775880 0.051740 -0.593040
O16   O     O_R   0.858650 0.224120 0.051740 -0.591108
O17   O     O_R   0.141350 0.775880 0.948260 -0.617869
O18   O     O_R   0.693050 0.775840 0.051700 -0.625916
O19   O     O_R   0.306950 0.224160 0.948300 -0.633575
O20   O     O_R   0.306950 0.775840 0.948300 -0.624291
O21   O     O_R   0.693050 0.224160 0.051700 -0.627443
O22   O     O_R   0.193050 0.275840 0.051700 -0.625920
O23   O     O_R   0.321670 0.769930 0.143360 -0.613160
O24   O     O_R   0.806950 0.724160 0.948300 -0.633575
O25   O     O_R   0.806950 0.275840 0.948300 -0.624294
O26   O     O_R   0.193050 0.724160 0.051700 -0.627441
O27   O     O_R   0.999060 0.545790 0.591600 -0.590440
O28   O     O_R   0.000940 0.454210 0.408400 -0.563803
O29   O     O_R   0.000940 0.545790 0.408400 -0.621233
O30   O     O_R   0.999060 0.454210 0.591600 -0.557465
O31   O     O_R   0.499060 0.045790 0.591600 -0.590437
O32   O     O_R   0.500940 0.954210 0.408400 -0.563815
O33   O     O_R   0.500940 0.045790 0.408400 -0.621247
O34   O     O_R   0.678330 0.230070 0.856640 -0.609884
O35   O     O_R   0.499060 0.954210 0.591600 -0.557460
O36   O     O_R   0.092510 0.545780 0.591590 -0.650635
O37   O     O_R   0.907490 0.454220 0.408410 -0.622855
O38   O     O_R   0.907490 0.545780 0.408410 -0.645633
O39   O     O_R   0.092510 0.454220 0.591590 -0.612739
O40   O     O_R   0.592510 0.045780 0.591590 -0.650619
O41   O     O_R   0.407490 0.954220 0.408410 -0.622843
O42   O     O_R   0.407490 0.045780 0.408410 -0.645623
O43   O     O_R   0.592510 0.954220 0.591590 -0.612753
O44   O     O_2   0.878312 0.845017 0.947426 -0.572249
O45   O     O_R   0.178330 0.269930 0.856640 -0.618143
O46   O     O_2   0.122532 0.152026 0.051605 -0.590087
O47   O     O_2   0.125870 0.833371 0.100946 -0.541840
O48   O     O_2   0.877900 0.150290 0.962837 -0.551605
O49   O     O_2   0.378313 0.345020 0.947436 -0.572251
O50   O     O_2   0.622526 0.652031 0.051628 -0.590085
O51   O     O_2   0.625893 0.333344 0.101027 -0.541832
O52   O     O_2   0.377900 0.650291 0.962836 -0.551601
O53   O     O_2   0.620689 0.889938 0.498549 -0.578674
O54   O     O_2   0.441049 0.143721 0.484556 -0.544802
O55   O     O_2   0.403952 0.877273 0.523121 -0.616266
O56   O     O_R   0.821670 0.730070 0.143360 -0.608164
O57   O     O_2   0.572748 0.140093 0.524895 -0.556586
O58   O     O_2   0.120686 0.389946 0.498557 -0.578638
O59   O     O_2   0.941060 0.643732 0.484559 -0.544789
O60   O     O_2   0.904003 0.377253 0.523154 -0.616287
O61   O     O_2   0.072757 0.640099 0.524894 -0.556567
O62   O     O_2   0.497533 0.953026 0.726372 -0.526352
O63   O     O_2   0.533417 0.089495 0.267473 -0.552285
O64   O     O_2   0.458900 0.979243 0.253906 -0.556219
O65   O     O_2   0.471646 0.065325 0.705608 -0.525156
O66   O     O_2   0.997540 0.453031 0.726376 -0.526362
O67   O     O_R   0.821670 0.269930 0.143360 -0.613159
O68   O     O_2   0.033378 0.589454 0.267430 -0.552261
O69   O     O_2   0.958842 0.479273 0.253898 -0.556214
O70   O     O_2   0.971647 0.565324 0.705606 -0.525148
O71   O     O_R   0.178330 0.730070 0.856640 -0.609885
O72   O     O_R   0.730030 0.821640 0.960080 -0.642939
Zn1   Zn    Zn3+2 0.715450 0.715450 0.930910 0.958296
Zn2   Zn    Zn3+2 0.062420 0.500000 0.500010 1.025950
Zn3   Zn    Zn3+2 0.437580 0.000000 0.499990 1.050666
Zn4   Zn    Zn3+2 0.562420 0.000000 0.500010 1.025950
Zn5   Zn    Zn3+2 0.284550 0.284550 0.069090 0.975490
Zn6   Zn    Zn3+2 0.284550 0.715450 0.069090 0.962996
Zn7   Zn    Zn3+2 0.715450 0.284550 0.930910 0.960567
Zn8   Zn    Zn3+2 0.215450 0.215450 0.930910 0.958310
Zn9   Zn    Zn3+2 0.784550 0.784550 0.069090 0.975480
Zn10  Zn    Zn3+2 0.784550 0.215450 0.069090 0.962994
Zn11  Zn    Zn3+2 0.215450 0.784550 0.930910 0.960574
Zn12  Zn    Zn3+2 0.937580 0.500000 0.499990 1.050650

loop_
_geom_bond_atom_site_label_1
_geom_bond_atom_site_label_2
_ccdc_geom_bond_type
C56   H112  S    
O38   Zn12  S    
C10   C63   S    
C121  O43   A    
C86   C147  S    
C72   O64   D    
H43   N23   S    
C92   O23   A    
C52   H93   S    
O33   Zn4   S    
C124  C133  S    
O1    Zn1   S    
C70   O62   D    
C136  O7    A    
C60   H6    S    
C40   O50   D    
C29   N19   S    
C30   N20   S    
C48   H78   S    
C131  C140  T    
C25   C112  A    
C134  C143  T    
C91   C100  A    
C4    C12   A    
H26   N19   S    
C88   C97   A    
O40   Zn4   S    
C66   H14   S    
C100  C109  A    
O6    Zn1   S    
C102  C111  A    
H66   N12   S    
C37   H50   S    
C48   H75   S    
C59   H3    S    
C34   C149  S    
C165  N8    S    
C30   H34   S    
C11   C20   A    
C150  C159  A    
C109  C117  S    
C75   H22   S    
C119  O41   A    
C93   C101  A    
C33   H45   S    
C74   C100  S    
C101  C110  A    
C59   H119  S    
C115  O37   A    
C168  N11   S    
C77   O70   D    
C56   H113  S    
O7    Zn7   S    
C80   C92   S    
C42   C156  S    
C125  O6    A    
O29   Zn2   S    
O10   Zn5   S    
C39   H52   S    
O3    Zn11  S    
C61   O53   D    
C130  O26   A    
C46   C84   A    
C49   H82   S    
C28   H2    S    
O32   Zn4   S    
H35   N21   S    
C110  C116  S    
C73   H20   S    
C50   H84   S    
C166  N9    S    
C36   O46   D    
H109  N14   S    
C59   H120  S    
H118  N16   S    
C16   C25   A    
C52   H95   S    
C28   N18   S    
C140  C142  S    
H87   N8    S    
C36   H49   S    
C21   C35   A    
C65   H12   S    
C83   C91   A    
C8    C17   A    
H39   N22   S    
C40   H53   S    
O37   Zn12  S    
C89   N18   S    
C32   H41   S    
C36   C150  S    
C130  O17   A    
C124  O20   A    
C53   H97   S    
C32   N22   S    
C159  C167  A    
C84   C93   A    
C160  C168  A    
O22   Zn5   S    
C45   H69   S    
C49   H80   S    
C3    C11   A    
C86   C95   A    
C81   O2    A    
C126  C134  S    
C10   C168  A    
C75   C101  S    
C26   H44   S    
C164  N7    S    
C120  O33   A    
C20   C108  A    
C78   C87   A    
C2    C150  A    
C30   H32   S    
C136  O67   A    
O26   Zn6   S    
C123  C132  S    
C45   H68   S    
C128  C137  S    
C33   H47   S    
O15   Zn9   S    
C99   C108  A    
C71   C97   S    
O67   Zn10  S    
C133  C142  T    
C5    C163  A    
C74   O66   D    
H96   N10   S    
C31   H37   S    
C27   H77   S    
C117  O30   A    
O35   Zn3   S    
H92   N9    S    
C80   C89   A    
C77   H25   S    
C60   N17   S    
C78   C158  A    
C57   C85   A    
O42   Zn3   S    
C54   H104  S    
C64   O57   D    
C32   H40   S    
C149  C158  A    
C152  C161  A    
C70   H17   S    
O30   Zn12  S    
C114  O45   A    
H30   N20   S    
O71   Zn11  S    
C53   N10   S    
C42   H56   S    
C69   O61   D    
O27   Zn12  S    
C76   C102  S    
O18   Zn9   S    
O8    Zn6   S    
C139  C148  T    
C47   H73   S    
C127  O14   A    
C43   N24   S    
C26   H33   S    
O41   Zn3   S    
C104  C112  A    
C64   H11   S    
H70   N4    S    
C90   N19   S    
O2    Zn8   S    
C29   H27   S    
C42   O52   D    
C33   N23   S    
C70   C96   S    
O72   Zn9   S    
C18   C106  A    
C72   H19   S    
H1    N1    S    
C121  O35   A    
C65   O58   D    
C113  O36   A    
C15   C67   S    
C45   N3    S    
C128  O15   A    
C114  O5    A    
C4    N14   S    
C5    N15   S    
C95   N23   S    
C51   N8    S    
C6    N16   S    
C47   H71   S    
C124  O11   A    
C51   H90   S    
C31   H36   S    
C129  O16   A    
C90   C99   A    
C43   H60   S    
C113  O27   A    
H74   N5    S    
C37   O47   D    
O45   Zn8   S    
C132  C141  T    
C23   C57   A    
C55   H106  S    
C38   O48   D    
C128  O24   A    
C38   H51   S    
C35   C153  A    
C21   C109  A    
C23   C111  A    
C147  O8    A    
C14   C22   A    
C159  N2    S    
C34   H48   S    
C95   C104  A    
C76   O69   D    
C115  O28   A    
C138  C146  T    
C126  O13   A    
C54   H102  S    
C13   C80   A    
C122  O9    A    
C9    C18   A    
C7    N17   S    
C58   N15   S    
C41   C155  S    
C19   C107  A    
C96   C105  A    
C50   H85   S    
C60   H5    S    
C157  N24   S    
C122  C131  S    
C62   O54   D    
C48   H76   S    
C122  O18   A    
C62   H9    S    
O5    Zn5   S    
C119  O32   A    
C31   N21   S    
C61   H8    S    
H79   N6    S    
C63   H10   S    
C39   C153  S    
C137  C145  T    
C44   H63   S    
C127  C135  S    
C141  C143  S    
C58   H115  S    
C47   N4    S    
O31   Zn3   S    
C50   N7    S    
C39   O49   D    
C2    C79   A    
C24   C152  A    
C27   H99   S    
C56   N14   S    
C22   C110  A    
H4    N17   S    
H65   N3    S    
C88   N12   S    
C162  N5    S    
C43   H58   S    
C49   H81   S    
O16   Zn10  S    
C7    C165  A    
C92   O3    A    
O13   Zn7   S    
C56   H111  S    
O14   Zn8   S    
C1    C78   S    
C25   C68   A    
C130  C139  S    
C107  C119  S    
C79   C88   A    
C46   C154  A    
C13   C19   A    
C129  O25   A    
C120  O42   A    
O21   Zn10  S    
C144  C146  S    
C35   C83   A    
O19   Zn8   S    
O17   Zn11  S    
C93   N21   S    
C98   C107  A    
O36   Zn2   S    
C118  O31   A    
C50   H86   S    
C74   H21   S    
C32   H42   S    
C34   O44   D    
C123  O19   A    
C10   C19   A    
C161  N4    S    
C55   H108  S    
C49   N6    S    
C13   C151  A    
C5    C14   A    
H114  N15   S    
C97   C106  A    
C7    C16   A    
C22   C46   A    
C6    C164  A    
C167  N10   S    
C4    C162  A    
C103  O34   A    
C118  O40   A    
C53   H100  S    
C52   H94   S    
H57   N24   S    
C84   C125  S    
O23   Zn6   S    
C51   H91   S    
H61   N2    S    
O24   Zn1   S    
C27   N12   S    
C45   H67   S    
C33   H46   S    
C12   C65   S    
C89   C98   A    
C55   H107  S    
C82   C90   A    
C153  C162  A    
H83   N7    S    
O34   Zn7   S    
C156  C165  A    
O28   Zn2   S    
C87   N1    S    
C66   O59   D    
C3    C161  A    
C75   O68   D    
C26   H55   S    
C60   H7    S    
C77   C104  S    
C149  C157  A    
C54   N11   S    
C48   N5    S    
O4    Zn10  S    
C67   O60   D    
C123  O10   A    
C1    O1    A    
C2    C18   A    
C68   C86   A    
C26   N1    S    
C72   C98   S    
C81   O12   A    
C57   C155  A    
C44   N2    S    
O43   Zn4   S    
C147  O71   A    
O12   Zn5   S    
H105  N13   S    
C73   O65   D    
C53   H98   S    
C67   H15   S    
C163  N6    S    
C44   H62   S    
C24   C82   A    
C41   O51   D    
C6    C15   A    
C129  C138  S    
C20   C24   A    
O39   Zn2   S    
C82   C103  S    
C71   O63   D    
C8    C61   S    
H110  N18   S    
C91   N20   S    
C15   C23   A    
C30   H31   S    
C51   H89   S    
C40   C154  S    
C37   C151  S    
C28   H24   S    
C38   C152  S    
C112  C113  S    
C43   H59   S    
O25   Zn7   S    
C63   O55   D    
C117  O39   A    
C126  O21   A    
C9    C62   S    
C108  C118  S    
C154  C163  A    
C9    C167  A    
O11   Zn6   S    
C31   H38   S    
C11   C64   S    
C79   C81   S    
C55   N13   S    
C85   C136  S    
C12   C21   A    
C103  O4    A    
C116  O29   A    
C52   N9    S    
C28   H13   S    
C17   C105  A    
C85   C94   A    
C1    O72   A    
C87   C96   A    
C54   H103  S    
C14   C66   S    
C105  C121  S    
C17   C158  A    
C8    C166  A    
C135  C144  T    
C29   H29   S    
C116  O38   A    
C71   H18   S    
C160  N3    S    
H101  N11   S    
C145  C148  S    
C59   N16   S    
C27   H88   S    
O20   Zn11  S    
C73   C99   S    
C94   N22   S    
C106  C120  S    
O56   Zn9   S    
C16   C69   S    
C41   H54   S    
C68   C156  A    
C157  C166  A    
O9    Zn1   S    
C155  C164  A    
C29   H28   S    
C151  C160  A    
C44   H64   S    
C76   H23   S    
C125  O56   A    
C58   H116  S    
C127  O22   A    
C69   H16   S    
C47   H72   S    
C111  C115  S    
C83   C114  S    
C3    N13   S    
C94   C102  A    
C58   H117  S    
