data_mof_unit_30115.cif
_audit_creation_date              2012-10-26T20:04:21-0400
_audit_creation_method            fapswitch 2.2
_symmetry_space_group_name_H-M    P1
_symmetry_Int_Tables_number       1
_space_group_crystal_system       triclinic
_cell_length_a                    15.029567
_cell_length_b                    13.849978
_cell_length_c                    14.33068
_cell_angle_alpha                 90.223709
_cell_angle_beta                  87.697571
_cell_angle_gamma                 89.908119
_cell_volume                      2980.62689348

loop_
_atom_site_label
_atom_site_type_symbol
_atom_type_description
_atom_site_fract_x
_atom_site_fract_y
_atom_site_fract_z
_atom_type_partial_charge
Br1   Br    Br    0.759759 0.508507 0.302873 -0.410126
Br2   Br    Br    0.252746 0.498219 0.702802 -0.399992
Br3   Br    Br    0.730367 0.449647 0.693936 -0.514423
Br4   Br    Br    0.255421 0.503253 0.303429 -0.478124
Br5   Br    Br    0.362766 0.732696 0.645254 -0.388180
Br6   Br    Br    0.634594 0.275437 0.353497 -0.411245
Br7   Br    Br    0.633854 0.727704 0.351447 -0.467007
Br8   Br    Br    0.361355 0.269067 0.643373 -0.426277
C1    C     C_R   0.329165 0.500181 0.501102 0.622067
C2    C     C_R   0.960187 0.577498 0.349421 0.307957
C3    C     C_R   0.454143 0.795286 0.569107 0.266706
C4    C     C_R   0.550456 0.206045 0.432934 0.303516
C5    C     C_R   0.547444 0.793748 0.431606 0.291601
C6    C     C_R   0.453080 0.205249 0.568088 0.282804
C7    C     C_R   0.541563 0.896171 0.425862 -0.036785
C8    C     C_R   0.464543 0.103454 0.577053 -0.048583
C9    C     C_R   0.465605 0.897255 0.577895 -0.051447
C10   C     C_R   0.546385 0.102846 0.426621 -0.025468
C11   C     C_R   0.504718 0.948447 0.502171 -0.111957
C12   C     C_R   0.670945 0.499932 0.499756 0.626706
C13   C     C_R   0.505276 0.051652 0.501891 -0.111773
C14   C     C_R   0.570575 0.947631 0.345486 0.264715
C15   C     C_R   0.438172 0.051607 0.659177 0.299580
C16   C     C_R   0.440014 0.949834 0.659885 0.303262
C17   C     C_R   0.581225 0.048849 0.348219 0.273184
C18   C     C_R   0.500360 0.499875 0.331164 0.602532
C19   C     C_R   0.499461 0.500170 0.668840 0.601197
C20   C     C_1   0.500524 0.499752 0.228811 0.062383
C21   C     C_1   0.499338 0.500483 0.771195 0.051405
C22   C     C_1   0.500457 0.499957 0.143372 0.008587
C23   C     C_R   0.952714 0.515856 0.509441 -0.107065
C24   C     C_1   0.499497 0.500522 0.856624 -0.004815
C25   C     C_1   0.500178 0.500249 0.042710 0.011990
C26   C     C_1   0.499860 0.500423 0.957273 0.005472
C27   C     C_R   0.817614 0.520966 0.420985 0.144356
C28   C     C_R   0.185477 0.494204 0.590059 0.160114
C29   C     C_R   0.767529 0.500636 0.502822 0.019131
C30   C     C_R   0.232664 0.501658 0.504034 0.019358
C31   C     C_R   0.807967 0.486033 0.588277 0.126041
C32   C     C_R   0.188874 0.518250 0.421458 0.106934
C33   C     C_R   0.901978 0.492101 0.592243 -0.003525
C34   C     C_R   0.046924 0.515703 0.509463 -0.103665
C35   C     C_R   0.096819 0.537194 0.426011 -0.015534
C36   C     C_3   0.904246 0.544516 0.813506 0.023655
C37   C     C_3   0.857056 0.527240 0.907871 -0.323633
C38   C     C_3   0.134442 0.711570 0.307331 0.013400
C39   C     C_3   0.154434 0.775480 0.223088 -0.344781
C40   C     C_3   0.083340 0.329188 0.745002 0.027262
C41   C     C_3   0.128929 0.289511 0.829642 -0.316164
C42   C     C_3   0.889266 0.710885 0.295807 0.020857
C43   C     C_3   0.847811 0.755155 0.210783 -0.317786
C44   C     C_3   0.501139 0.891220 0.218396 0.021060
C45   C     C_R   0.909686 0.537607 0.425503 -0.026655
C46   C     C_3   0.514303 0.833571 0.128445 -0.358443
C47   C     C_3   0.487335 0.134171 0.785547 0.012115
C48   C     C_3   0.457434 0.187742 0.874275 -0.331751
C49   C     C_3   0.498859 0.865569 0.779888 0.013581
C50   C     C_3   0.482474 0.842882 0.882765 -0.350652
C51   C     C_3   0.703640 0.074655 0.250939 0.027687
C52   C     C_3   0.736394 0.125542 0.162166 -0.339850
C53   C     C_R   0.091375 0.491527 0.591742 -0.011064
C54   C     C_R   0.947460 0.474619 0.675366 0.282855
C55   C     C_R   0.053072 0.578131 0.350226 0.319070
C56   C     C_R   0.040383 0.466068 0.672745 0.277217
Cu1   Cu    Cu3+1 0.500000 0.597420 0.500000 1.078972
Cu2   Cu    Cu3+1 0.500000 0.402580 0.500000 1.117361
H1    H     H_    0.869159 0.603980 0.777774 0.134617
H2    H     H_    0.203050 0.739127 0.174167 0.186500
H3    H     H_    0.122323 0.305570 0.681089 0.161648
H4    H     H_    0.015117 0.297930 0.744048 0.155009
H5    H     H_    0.091316 0.311246 0.894672 0.167942
H6    H     H_    0.131532 0.209463 0.825666 0.116509
H7    H     H_    0.197974 0.317682 0.831658 0.213441
H8    H     H_    0.944353 0.758652 0.316544 0.102291
H9    H     H_    0.837853 0.708939 0.353812 0.171758
H10   H     H_    0.791916 0.709566 0.187989 0.216461
H11   H     H_    0.821932 0.828426 0.228397 0.108445
H12   H     H_    0.973759 0.567395 0.826253 0.170198
H13   H     H_    0.898575 0.760919 0.152586 0.146866
H14   H     H_    0.473814 0.963500 0.201090 0.152839
H15   H     H_    0.451973 0.851999 0.264523 0.133022
H16   H     H_    0.540377 0.760474 0.143774 0.190381
H17   H     H_    0.449698 0.825996 0.094201 0.094460
H18   H     H_    0.562346 0.871217 0.080298 0.152017
H19   H     H_    0.525822 0.185417 0.739979 0.146784
H20   H     H_    0.531985 0.074392 0.805351 0.114176
H21   H     H_    0.420216 0.138093 0.922348 0.164266
H22   H     H_    0.516428 0.215861 0.909843 0.108093
H23   H     H_    0.891023 0.468558 0.945349 0.184281
H24   H     H_    0.413752 0.249419 0.857076 0.194663
H25   H     H_    0.556096 0.916381 0.773134 0.087393
H26   H     H_    0.518186 0.797421 0.743284 0.158542
H27   H     H_    0.426841 0.790621 0.891815 0.191725
H28   H     H_    0.543400 0.810719 0.911190 0.087595
H29   H     H_    0.465396 0.910157 0.922013 0.154310
H30   H     H_    0.717271 0.996345 0.241198 0.167963
H31   H     H_    0.742943 0.101228 0.310055 0.150039
H32   H     H_    0.726482 0.204722 0.169237 0.210629
H33   H     H_    0.808428 0.110668 0.148872 0.096519
H34   H     H_    0.858397 0.594182 0.950705 0.105360
H35   H     H_    0.699162 0.098890 0.101839 0.155833
H36   H     H_    0.786654 0.506500 0.898317 0.192589
H37   H     H_    0.197545 0.699529 0.343354 0.170952
H38   H     H_    0.087956 0.751379 0.356323 0.089289
H39   H     H_    0.092167 0.790185 0.186375 0.160068
H40   H     H_    0.183098 0.845067 0.246078 0.094118
N1    N     N_R   0.500000 0.743810 0.500000 -0.238598
N2    N     N_R   0.500000 0.256190 0.500000 -0.235326
O1    O     O_R   0.370260 0.582280 0.500020 -0.460042
O2    O     O_3   0.099103 0.622641 0.276599 -0.480087
O3    O     O_3   0.079756 0.430984 0.751324 -0.506937
O4    O     O_3   0.920627 0.617108 0.272753 -0.483467
O5    O     O_3   0.583951 0.900723 0.260675 -0.533311
O6    O     O_3   0.411572 0.098362 0.741292 -0.491959
O7    O     O_3   0.419920 0.904204 0.743944 -0.487184
O8    O     O_3   0.611693 0.094490 0.267210 -0.516929
O9    O     O_R   0.629740 0.417720 0.499980 -0.440312
O10   O     O_R   0.629740 0.582280 0.499980 -0.467453
O11   O     O_R   0.370260 0.417720 0.500020 -0.447516
O12   O     O_R   0.500000 0.582290 0.376050 -0.456418
O13   O     O_R   0.500000 0.417710 0.623950 -0.453624
O14   O     O_R   0.500000 0.582290 0.623950 -0.468875
O15   O     O_R   0.500000 0.417710 0.376050 -0.448999
O16   O     O_3   0.902549 0.458637 0.759913 -0.502474

loop_
_geom_bond_atom_site_label_1
_geom_bond_atom_site_label_2
_ccdc_geom_bond_type
C47   C48   S    
C8    C13   A    
C49   H26   S    
C19   C21   S    
C10   C13   A    
C2    C55   A    
C40   H3    S    
C5    N1    A    
C52   H33   S    
C14   O5    S    
C46   H18   S    
C19   O13   A    
C35   C55   A    
C49   O7    S    
C44   O5    S    
C7    C11   A    
C11   C13   A    
C50   H27   S    
C18   O12   A    
Br5   C3    S    
C21   C24   T    
C52   H32   S    
C42   H8    S    
Br6   C4    S    
C48   H22   S    
C27   C45   A    
C14   C17   A    
C2    C45   A    
C46   H17   S    
C54   C56   A    
C32   C35   A    
Br4   C32   S    
C51   O8    S    
C39   H39   S    
Cu2   O9    S    
Cu1   O10   S    
C2    O4    S    
C37   H23   S    
C34   C35   A    
C48   H24   S    
Br3   C31   S    
C51   C52   S    
C10   C17   A    
C33   C54   A    
C12   O10   A    
C12   O9    A    
C19   O14   A    
C44   C46   S    
C25   C26   T    
C7    C14   A    
C1    O1    A    
C9    C16   A    
C36   H12   S    
C43   H10   S    
C31   C33   A    
C17   O8    S    
Cu2   N2    S    
C4    N2    A    
C56   O3    S    
C38   H38   S    
C41   H6    S    
C24   C26   S    
C47   H19   S    
C53   C56   A    
C50   H29   S    
C43   H11   S    
C15   C16   A    
C39   H40   S    
C42   O4    S    
C42   C43   S    
Cu2   O13   S    
Cu1   O14   S    
C23   C45   A    
C34   C53   A    
Cu1   O1    S    
C49   H25   S    
C40   C41   S    
C8    C15   A    
Cu2   O11   S    
C5    C7    A    
C3    N1    A    
C51   H31   S    
C6    C8    A    
C18   O15   A    
C28   C53   A    
C39   H2    S    
C46   H16   S    
C36   C37   S    
Br1   C27   S    
Br2   C28   S    
C38   C39   S    
C3    C9    A    
Br8   C6    S    
C23   C33   A    
C22   C25   S    
C27   C29   A    
C54   O16   S    
C40   H4    S    
C48   H21   S    
C37   H34   S    
C47   O6    S    
C38   H37   S    
C18   C20   S    
C47   H20   S    
C28   C30   A    
C50   H28   S    
C20   C22   T    
C29   C31   A    
C38   O2    S    
C42   H9    S    
C15   O6    S    
C30   C32   A    
C12   C29   S    
C49   C50   S    
C23   C34   A    
C41   H5    S    
C55   O2    S    
C1    O11   A    
C6    N2    A    
C1    C30   S    
C9    C11   A    
Cu1   O12   S    
C36   O16   S    
C41   H7    S    
C44   H15   S    
C43   H13   S    
C37   H36   S    
Br7   C5    S    
C40   O3    S    
C16   O7    S    
Cu1   Cu2   S    
C51   H30   S    
C4    C10   A    
Cu2   O15   S    
C36   H1    S    
C44   H14   S    
Cu1   N1    S    
C52   H35   S    
