data_mof_unit_55063.cif
_audit_creation_date              2012-12-10T17:08:44-0500
_audit_creation_method            fapswitch 2.2
_symmetry_space_group_name_H-M    P1
_symmetry_Int_Tables_number       1
_space_group_crystal_system       triclinic
_cell_length_a                    15.732358
_cell_length_b                    10.728279
_cell_length_c                    10.030482
_cell_angle_alpha                 90.317433
_cell_angle_beta                  90.405375
_cell_angle_gamma                 90.721737
_cell_volume                      1692.75253492

loop_
_atom_site_label
_atom_site_type_symbol
_atom_type_description
_atom_site_fract_x
_atom_site_fract_y
_atom_site_fract_z
_atom_type_partial_charge
C1    C     C_R   0.501213 0.262741 0.499492 0.991027
C2    C     C_2   0.521534 0.868401 0.499794 -0.556917
C3    C     C_2   0.538278 0.068551 0.396988 0.379335
C4    C     C_R   0.338299 0.499588 0.499598 0.894884
C5    C     C_2   0.501703 0.130672 0.497329 -0.551677
C6    C     C_2   0.547090 0.575690 0.927764 0.098691
C7    C     C_2   0.558784 0.552253 0.075522 -0.132084
C8    C     C_R   0.504090 0.737511 0.499940 0.980568
C9    C     C_R   0.661662 0.499489 0.500391 0.884074
C10   C     C_3   0.049295 0.389605 0.590742 -0.432814
C11   C     C_3   0.047373 0.474529 0.356850 -0.410981
C12   C     C_3   0.950798 0.388049 0.592567 0.368866
C13   C     C_3   0.949370 0.475969 0.358122 -0.469825
C14   C     C_1   0.750528 0.497463 0.501466 -0.187713
C15   C     C_3   0.082459 0.495512 0.499764 0.245772
C16   C     C_3   0.878329 0.203505 0.644394 0.101001
C17   C     C_3   0.850751 0.076901 0.589724 -0.870958
C18   C     C_3   0.432642 0.914271 0.210017 0.156109
C19   C     C_3   0.419160 0.852201 0.074798 -0.842062
C20   C     C_3   0.665328 0.137775 0.320171 0.144039
C21   C     C_3   0.709140 0.210530 0.209987 -0.803811
C22   C     C_3   0.587966 0.690912 0.866578 -0.324771
C23   C     C_3   0.917416 0.495121 0.502723 0.216386
C24   C     C_3   0.646338 0.768687 0.959319 -0.425359
C25   C     C_3   0.678590 0.886028 0.889400 -0.885449
C26   C     C_3   0.912073 0.770044 0.714151 0.098404
C27   C     C_3   0.900889 0.790028 0.863088 -0.837238
C28   C     C_3   0.952181 0.622592 0.556034 0.274034
C29   C     C_3   0.050661 0.621993 0.553422 -0.463824
C30   C     C_1   0.825831 0.495883 0.502253 -0.047559
C31   C     C_1   0.173941 0.496314 0.498575 -0.075975
C32   C     C_1   0.249315 0.497807 0.498630 -0.189424
C33   C     C_2   0.523141 0.935386 0.386936 0.422967
H1    H     H_    0.074126 0.403391 0.694086 0.137881
H2    H     H_    0.071533 0.548771 0.289319 0.175776
H3    H     H_    0.069278 0.383488 0.316879 0.189918
H4    H     H_    0.923829 0.386923 0.315620 0.225645
H5    H     H_    0.926353 0.552388 0.293008 0.162140
H6    H     H_    0.077050 0.639332 0.655283 0.200652
H7    H     H_    0.073983 0.699208 0.489015 0.140582
H8    H     H_    0.820671 0.253850 0.677658 0.144946
H9    H     H_    0.921617 0.188510 0.731065 0.130826
H10   H     H_    0.907385 0.022496 0.560925 0.244915
H11   H     H_    0.814724 0.025185 0.666959 0.202967
H12   H     H_    0.930562 0.407810 0.697303 0.089816
H13   H     H_    0.809444 0.088640 0.500798 0.247952
H14   H     H_    0.428165 0.016907 0.196087 0.157436
H15   H     H_    0.380877 0.882035 0.277408 0.118625
H16   H     H_    0.424872 0.749587 0.083975 0.264628
H17   H     H_    0.354783 0.873845 0.035956 0.200590
H18   H     H_    0.467100 0.887684 0.003299 0.253500
H19   H     H_    0.693600 0.043161 0.324827 0.129105
H20   H     H_    0.677407 0.188183 0.416124 0.122757
H21   H     H_    0.682164 0.305495 0.203115 0.267336
H22   H     H_    0.778268 0.218875 0.232063 0.204245
H23   H     H_    0.929049 0.696426 0.486604 0.062465
H24   H     H_    0.700031 0.161609 0.112949 0.248142
H25   H     H_    0.713706 0.860957 0.797604 0.258151
H26   H     H_    0.624512 0.946736 0.862345 0.264424
H27   H     H_    0.722133 0.938927 0.957193 0.257576
H28   H     H_    0.611273 0.797731 0.049812 0.279879
H29   H     H_    0.701859 0.712319 0.989889 0.218333
H30   H     H_    0.626095 0.663006 0.779432 0.242958
H31   H     H_    0.535871 0.752391 0.833352 0.218882
H32   H     H_    0.853790 0.801753 0.661652 0.143040
H33   H     H_    0.967801 0.827118 0.681670 0.134462
H34   H     H_    0.535894 0.910627 0.596226 0.129885
H35   H     H_    0.959561 0.762796 0.917203 0.249544
H36   H     H_    0.888147 0.889832 0.883810 0.206562
H37   H     H_    0.846754 0.732575 0.899357 0.264470
H38   H     H_    0.467637 0.084308 0.577111 0.128819
H39   H     H_    0.477394 0.421863 0.896451 0.158099
H40   H     H_    0.615187 0.587529 0.126204 0.167820
H41   H     H_    0.073373 0.298256 0.554901 0.196842
H42   H     H_    0.444549 0.477860 0.100818 0.159273
N1    N     N_2   0.500900 0.501330 0.852150 -0.214042
N2    N     N_2   0.500920 0.501360 0.147810 -0.199994
O1    O     O_R   0.499990 0.319060 0.613040 -0.626301
O2    O     O_3   0.513025 0.881283 0.261703 -0.573104
O3    O     O_3   0.577518 0.129241 0.291940 -0.565317
O4    O     O_3   0.923929 0.641968 0.688654 -0.616899
O5    O     O_R   0.500010 0.319100 0.386900 -0.554349
O6    O     O_R   0.377130 0.499990 0.613120 -0.608870
O7    O     O_R   0.377160 0.500030 0.386980 -0.622950
O8    O     O_R   0.499990 0.680900 0.613100 -0.648730
O9    O     O_R   0.500010 0.680940 0.386960 -0.548570
O10   O     O_R   0.622840 0.499970 0.613020 -0.628043
O11   O     O_R   0.622870 0.500010 0.386880 -0.619009
O12   O     O_3   0.920174 0.271157 0.543359 -0.611934
Zn1   Zn    Zn3+2 0.499980 0.499970 0.650990 0.920661
Zn2   Zn    Zn3+2 0.500020 0.500030 0.349010 0.967868

loop_
_geom_bond_atom_site_label_1
_geom_bond_atom_site_label_2
_ccdc_geom_bond_type
C24   H28   S    
C10   H41   S    
H39   N1    S    
C18   H14   S    
C28   H23   S    
C7    H40   S    
O1    Zn1   S    
C12   C23   S    
C26   C27   S    
C1    C5    S    
C28   C29   S    
C18   C19   S    
C10   C15   S    
C9    O11   A    
C21   H21   S    
C3    C33   S    
C6    C22   S    
C13   C23   S    
C8    O8    A    
C27   H35   S    
C22   H30   S    
C11   C15   S    
C18   O2    S    
C25   H27   S    
C13   H4    S    
C27   H36   S    
C7    N2    D    
C16   O12   S    
C1    O1    A    
C14   C30   T    
C3    O3    S    
C15   C29   S    
C20   O3    S    
C26   H33   S    
C23   C30   S    
C12   O12   S    
C24   C25   S    
C2    H34   S    
C21   H22   S    
C20   H20   S    
C1    O5    A    
O5    Zn2   S    
C11   H3    S    
C9    C14   S    
C17   H10   S    
C21   H24   S    
C19   H16   S    
C31   C32   T    
C4    O7    A    
O11   Zn2   S    
C29   H6    S    
C10   H1    S    
C23   C28   S    
C17   H13   S    
C6    N1    D    
H42   N2    S    
C13   H5    S    
C4    C32   S    
C27   H37   S    
C10   C12   S    
C2    C33   D    
O7    Zn2   S    
C26   O4    S    
C22   C24   S    
C25   H25   S    
C16   H9    S    
O6    Zn1   S    
N2    Zn2   S    
C24   H29   S    
C28   O4    S    
C26   H32   S    
C2    C8    S    
C33   O2    S    
C12   H12   S    
C3    C5    D    
C18   H15   S    
O8    Zn1   S    
C15   C31   S    
C6    C7    S    
O9    Zn2   S    
C11   H2    S    
C17   H11   S    
C5    H38   S    
C9    O10   A    
C11   C13   S    
C19   H17   S    
C16   C17   S    
C4    O6    A    
C29   H7    S    
C8    O9    A    
C22   H31   S    
C19   H18   S    
C20   C21   S    
C20   H19   S    
O10   Zn1   S    
C25   H26   S    
C16   H8    S    
N1    Zn1   S    
