data_mof_unit_11489.cif
_audit_creation_date              2012-12-11T16:48:31-0500
_audit_creation_method            fapswitch 2.2
_symmetry_space_group_name_H-M    P1
_symmetry_Int_Tables_number       1
_space_group_crystal_system       triclinic
_cell_length_a                    17.383775
_cell_length_b                    24.485771
_cell_length_c                    15.01929
_cell_angle_alpha                 89.918031
_cell_angle_beta                  125.842621
_cell_angle_gamma                 89.810491
_cell_volume                      5182.30538923

loop_
_atom_site_label
_atom_site_type_symbol
_atom_type_description
_atom_site_fract_x
_atom_site_fract_y
_atom_site_fract_z
_atom_type_partial_charge
C1    C     C_R   0.313687 0.372313 0.907950 -0.111679
C2    C     C_R   0.427786 0.497423 0.631337 0.110170
C3    C     C_R   0.069276 0.853219 0.907776 -0.074956
C4    C     C_R   0.319414 0.356751 0.999793 0.114188
C5    C     C_R   0.626503 0.318918 0.994979 0.106389
C6    C     C_R   0.867656 0.821894 0.004057 0.103571
C7    C     C_R   0.142487 0.827230 0.000076 0.136985
C8    C     C_3   0.179758 0.567729 0.081831 0.300049
C9    C     C_3   0.096816 0.529438 0.041454 -0.746742
C10   C     C_3   0.659511 0.593758 0.728386 0.308675
C11   C     C_3   0.677294 0.550248 0.670102 -0.802555
C12   C     C_3   0.852430 0.094415 0.287188 0.302461
C13   C     C_R   0.071910 0.996549 0.368725 0.107433
C14   C     C_3   0.841467 0.052712 0.354193 -0.798923
C15   C     C_3   0.256867 0.097499 0.940002 0.291475
C16   C     C_3   0.312873 0.046888 0.951298 -0.762400
C17   C     C_R   0.027275 0.001445 0.699306 0.122373
C18   C     C_R   0.194996 0.499280 0.637336 0.132618
C19   C     C_R   0.824655 0.497322 0.279326 0.118115
C20   C     C_R   0.689914 0.998896 0.642097 0.132698
C21   C     C_R   0.323365 0.998761 0.270536 0.116781
C22   C     C_2   0.978716 0.453355 0.366817 -0.098812
C23   C     C_2   0.078843 0.456894 0.460168 -0.093433
C24   C     C_2   0.478032 0.954815 0.363360 -0.085403
C25   C     C_R   0.652298 0.348721 0.087969 -0.138124
C26   C     C_2   0.575929 0.958102 0.462169 -0.110058
C27   C     C_2   0.924551 0.498209 0.323979 -0.174995
C28   C     C_2   0.111465 0.501045 0.525084 -0.150513
C29   C     C_2   0.424266 0.999769 0.318581 -0.182879
C30   C     C_2   0.603493 0.000246 0.531512 -0.175267
C31   C     C_R   0.198998 0.681544 0.019822 -0.024704
C32   C     C_R   0.766174 0.680869 0.920107 0.010387
C33   C     C_R   0.732118 0.177542 0.082442 0.016213
C34   C     C_R   0.244654 0.217299 0.987110 -0.031505
C35   C     C_R   0.250828 0.681850 0.976339 -0.028815
C36   C     C_R   0.842678 0.851195 0.910828 -0.120406
C37   C     C_R   0.764979 0.666896 0.009771 -0.038731
C38   C     C_R   0.730247 0.161685 0.991452 -0.032718
C39   C     C_R   0.178891 0.224218 0.010212 -0.037035
C40   C     C_R   0.255476 0.729078 0.926743 -0.178696
C41   C     C_R   0.833678 0.691567 0.110113 -0.133989
C42   C     C_R   0.660192 0.186358 0.890895 -0.144325
C43   C     C_R   0.174532 0.273126 0.055136 -0.187810
C44   C     C_R   0.628261 0.238797 0.889277 0.207292
C45   C     C_R   0.221735 0.318497 0.053609 0.213359
C46   C     C_R   0.221979 0.777847 0.936789 0.200939
C47   C     C_R   0.160711 0.852583 0.091487 -0.134186
C48   C     C_R   0.861262 0.744472 0.109291 0.216345
C49   C     C_R   0.648072 0.261502 0.988186 -0.032742
C50   C     C_R   0.267359 0.313585 0.001620 -0.069170
C51   C     C_R   0.184181 0.778691 0.997457 -0.075209
C52   C     C_R   0.844101 0.765664 0.010777 -0.037888
C53   C     C_R   0.399498 0.626904 0.086080 -0.136750
C54   C     C_R   0.598529 0.624461 0.909467 -0.134477
C55   C     C_R   0.899438 0.122144 0.090055 -0.137066
C56   C     C_R   0.063468 0.149529 0.910710 -0.204098
C57   C     C_R   0.689575 0.226065 0.079350 0.047675
C58   C     C_R   0.309679 0.637630 0.990569 0.036254
C59   C     C_R   0.285476 0.262212 0.978585 0.013793
C60   C     C_R   0.168482 0.730445 0.033702 0.037402
C61   C     C_R   0.807558 0.729351 0.922219 0.042878
C62   C     C_3   0.756845 0.233639 0.200758 0.019975
C63   C     C_3   0.277978 0.240829 0.880698 0.063335
C64   C     C_3   0.199623 0.714318 0.146660 0.055395
C65   C     C_3   0.742238 0.735777 0.800222 0.017785
C66   C     C_3   0.224470 0.658274 0.125758 0.361388
C67   C     C_3   0.696688 0.681874 0.797314 0.357771
C68   C     C_3   0.804019 0.179956 0.204806 0.357142
C69   C     C_R   0.685548 0.640961 0.002026 0.070830
C70   C     C_3   0.235593 0.189454 0.892961 0.372355
C71   C     C_R   0.408773 0.447066 0.478002 0.136751
C72   C     C_R   0.437606 0.451121 0.410384 0.175179
C73   C     C_R   0.079375 0.949379 0.603682 0.172448
C74   C     C_R   0.096373 0.945546 0.525153 0.126449
C75   C     C_R   0.392036 0.494310 0.516346 -0.084380
C76   C     C_R   0.458035 0.502178 0.386595 -0.089537
C77   C     C_R   0.069662 0.000653 0.638040 -0.092769
C78   C     C_R   0.111851 0.992534 0.485175 -0.088947
C79   C     C_R   0.376022 0.542758 0.458443 0.176454
C80   C     C_R   0.808611 0.134085 0.997552 0.066347
C81   C     C_R   0.422662 0.549747 0.408035 0.094582
C82   C     C_R   0.102955 0.047315 0.611689 0.120179
C83   C     C_R   0.137945 0.039782 0.548480 0.171500
C84   C     C_3   0.499143 0.401265 0.459328 -0.473423
C85   C     C_3   0.469942 0.397704 0.535442 -0.448172
C86   C     C_3   0.028378 0.899399 0.467566 -0.442160
C87   C     C_3   0.010742 0.902673 0.554078 -0.471368
C88   C     C_R   0.513864 0.455233 0.282235 -0.116476
C89   C     C_R   0.445356 0.453103 0.696317 -0.135852
C90   C     C_R   0.053168 0.952528 0.303089 -0.123321
C91   C     C_R   0.128297 0.178262 0.003953 0.098079
C92   C     C_R   0.007857 0.954887 0.737813 -0.120439
C93   C     C_R   0.243331 0.544732 0.698081 -0.133101
C94   C     C_R   0.770472 0.543350 0.258759 -0.128597
C95   C     C_R   0.740566 0.044573 0.700349 -0.144719
C96   C     C_R   0.267796 0.044665 0.246251 -0.118496
C97   C     C_R   0.515862 0.546140 0.281733 -0.130216
C98   C     C_R   0.448982 0.543741 0.695288 -0.159368
C99   C     C_R   0.051319 0.043226 0.305108 -0.155465
C100  C     C_R   0.003689 0.046269 0.735350 -0.143607
C101  C     C_R   0.244257 0.453746 0.699299 -0.126742
C102  C     C_R   0.500981 0.501815 0.326463 0.116850
C103  C     C_R   0.766963 0.452359 0.249412 -0.102268
C104  C     C_R   0.741284 0.953366 0.702745 -0.109948
C105  C     C_R   0.267397 0.953355 0.247785 -0.093371
C106  C     C_R   0.308194 0.621353 0.902931 -0.104937
C107  C     C_R   0.683103 0.631376 0.091596 -0.100744
C108  C     C_R   0.808519 0.121904 0.906763 -0.087261
C109  C     C_R   0.153147 0.149020 0.093949 -0.147767
C110  C     C_R   0.407052 0.370275 0.092007 -0.055015
C111  C     C_R   0.558312 0.349762 0.906187 -0.061742
C112  C     C_R   0.938692 0.850807 0.093606 -0.065369
H1    H     H_    0.257666 0.363614 0.823113 0.103802
H2    H     H_    0.849282 0.676484 0.186580 0.142762
H3    H     H_    0.644789 0.171301 0.814698 0.150373
H4    H     H_    0.132732 0.276343 0.087133 0.161253
H5    H     H_    0.804757 0.269082 0.223411 0.046532
H6    H     H_    0.225828 0.264152 0.804559 0.066188
H7    H     H_    0.263462 0.737308 0.211624 0.079234
H8    H     H_    0.692326 0.770758 0.774111 0.057647
H9    H     H_    0.300015 0.646748 0.184559 0.043477
H10   H     H_    0.620868 0.688395 0.763757 -0.002683
H11   H     H_    0.878760 0.187420 0.235196 -0.015167
H12   H     H_    0.691453 0.334150 0.171203 0.125601
H13   H     H_    0.161048 0.182796 0.822279 0.039777
H14   H     H_    0.471678 0.366535 0.400800 0.213727
H15   H     H_    0.531302 0.404955 0.621894 0.213320
H16   H     H_    0.964078 0.910389 0.384835 0.213196
H17   H     H_    0.037456 0.865924 0.608047 0.220310
H18   H     H_    0.575918 0.410174 0.502454 0.200680
H19   H     H_    0.427411 0.360726 0.521777 0.225395
H20   H     H_    0.064669 0.860970 0.471876 0.226237
H21   H     H_    0.936723 0.915009 0.520498 0.200137
H22   H     H_    0.427279 0.641090 0.167485 0.123265
H23   H     H_    0.799655 0.838123 0.826642 0.120347
H24   H     H_    0.572329 0.627177 0.824932 0.073588
H25   H     H_    0.926950 0.126200 0.174765 0.074184
H26   H     H_    0.023888 0.163825 0.826703 0.129617
H27   H     H_    0.517100 0.413510 0.305541 0.106545
H28   H     H_    0.421971 0.411685 0.669542 0.118788
H29   H     H_    0.075199 0.910750 0.329419 0.120929
H30   H     H_    0.019405 0.912895 0.728374 0.121977
H31   H     H_    0.231214 0.586130 0.667157 0.120825
H32   H     H_    0.798004 0.583889 0.284628 0.102725
H33   H     H_    0.726781 0.085909 0.668813 0.114708
H34   H     H_    0.203534 0.837351 0.174921 0.109229
H35   H     H_    0.290413 0.086507 0.255500 0.108908
H36   H     H_    0.526691 0.587855 0.305838 0.148560
H37   H     H_    0.435095 0.585684 0.668110 0.139241
H38   H     H_    0.066121 0.084953 0.332945 0.137509
H39   H     H_    0.005838 0.088731 0.721936 0.142805
H40   H     H_    0.232991 0.411930 0.671529 0.093790
H41   H     H_    0.786608 0.410005 0.255627 0.095807
H42   H     H_    0.727800 0.911263 0.676329 0.100904
H43   H     H_    0.289352 0.911293 0.259709 0.095274
H44   H     H_    0.252714 0.628833 0.817186 0.112146
H45   H     H_    0.955536 0.538162 0.334554 0.146465
H46   H     H_    0.729694 0.646922 0.173448 0.101947
H47   H     H_    0.751029 0.125870 0.821274 0.100693
H48   H     H_    0.195708 0.162435 0.178496 0.120482
H49   H     H_    0.437850 0.356663 0.174742 0.112998
H50   H     H_    0.504520 0.335439 0.824849 0.141744
H51   H     H_    0.990467 0.835626 0.175427 0.144137
H52   H     H_    0.029014 0.838626 0.824108 0.121078
H53   H     H_    0.947107 0.413133 0.349348 0.122940
H54   H     H_    0.119888 0.419308 0.486674 0.124668
H55   H     H_    0.446677 0.914476 0.341805 0.128584
H56   H     H_    0.071527 0.538839 0.501974 0.137179
H57   H     H_    0.620184 0.921899 0.486043 0.133356
H58   H     H_    0.245418 0.549400 0.155128 0.119242
H59   H     H_    0.188450 0.572238 0.014402 0.083056
H60   H     H_    0.029224 0.549795 0.976237 0.257396
H61   H     H_    0.105332 0.492199 0.006093 0.223470
H62   H     H_    0.093315 0.517839 0.110557 0.263699
H63   H     H_    0.582648 0.604341 0.674669 0.105932
H64   H     H_    0.679036 0.576204 0.807511 0.086190
H65   H     H_    0.752972 0.537387 0.722579 0.253334
H66   H     H_    0.632040 0.514146 0.652969 0.197775
H67   H     H_    0.456585 0.039739 0.334085 0.143561
H68   H     H_    0.659747 0.566490 0.591098 0.273247
H69   H     H_    0.927480 0.108388 0.338371 0.103941
H70   H     H_    0.835529 0.073917 0.211677 0.090759
H71   H     H_    0.767614 0.037116 0.305541 0.257295
H72   H     H_    0.890946 0.017918 0.376601 0.197299
H73   H     H_    0.858127 0.071740 0.430693 0.270198
H74   H     H_    0.182222 0.091252 0.868350 0.099826
H75   H     H_    0.260415 0.101607 0.016004 0.101158
H76   H     H_    0.388070 0.050984 0.023261 0.258755
H77   H     H_    0.282018 0.010310 0.963020 0.208846
H78   H     H_    0.559452 0.036232 0.510764 0.144060
H79   H     H_    0.309797 0.041392 0.875858 0.268273
H80   H     H_    0.293242 0.729246 0.889454 0.162099
I1    I     I_    0.582829 0.280525 0.740488 -0.469988
I2    I     I_    0.460944 0.632835 0.408981 -0.461968
I3    I     I_    0.071966 0.130930 0.617099 -0.456023
I4    I     I_    0.233103 0.096565 0.551863 -0.331313
I5    I     I_    0.220288 0.391704 0.127439 -0.503772
I6    I     I_    0.245216 0.849132 0.874042 -0.459665
I7    I     I_    0.895237 0.789338 0.250178 -0.462823
I8    I     I_    0.683125 0.232426 0.276658 -0.294429
I9    I     I_    0.414697 0.231646 0.912526 -0.273799
I10   I     I_    0.086496 0.716794 0.164872 -0.294918
I11   I     I_    0.820271 0.734712 0.729637 -0.315083
I12   I     I_    0.278603 0.602062 0.444063 -0.341954
N1    N     N_R   0.395410 0.396350 0.944340 -0.044816
N2    N     N_R   0.474920 0.471030 0.794350 -0.042843
N3    N     N_R   0.025080 0.971030 0.205650 -0.044108
N4    N     N_R   0.974920 0.971030 0.794350 -0.047243
N5    N     N_R   0.320260 0.527820 0.794570 -0.044749
N6    N     N_R   0.679740 0.527820 0.205430 -0.044993
N7    N     N_R   0.820260 0.027820 0.794570 -0.045580
N8    N     N_R   0.179740 0.027820 0.205430 -0.040547
N9    N     N_R   0.524590 0.527840 0.205200 -0.048158
N10   N     N_R   0.475410 0.527840 0.794800 -0.045191
N11   N     N_R   0.024590 0.027840 0.205200 -0.044890
N12   N     N_R   0.604590 0.396350 0.055660 -0.047030
N13   N     N_R   0.975410 0.027840 0.794800 -0.046409
N14   N     N_R   0.320750 0.471000 0.795020 -0.044792
N15   N     N_R   0.679250 0.471000 0.204980 -0.048060
N16   N     N_R   0.820750 0.971000 0.795020 -0.046038
N17   N     N_R   0.179250 0.971000 0.204980 -0.048316
N18   N     N_R   0.393620 0.602490 0.942710 -0.044813
N19   N     N_R   0.606380 0.602490 0.057290 -0.044784
N20   N     N_R   0.893620 0.102490 0.942710 -0.042545
N21   N     N_R   0.106380 0.102490 0.057290 -0.047462
N22   N     N_R   0.451720 0.396350 0.057510 -0.047882
N23   N     N_R   0.895410 0.896350 0.944340 -0.046482
N24   N     N_R   0.548280 0.396350 0.942490 -0.052847
N25   N     N_R   0.951720 0.896350 0.057510 -0.053129
N26   N     N_R   0.048280 0.896350 0.942490 -0.049125
N27   N     N_R   0.104590 0.896350 0.055660 -0.047127
N28   N     N_R   0.449930 0.602500 0.055880 -0.039602
N29   N     N_R   0.550070 0.602500 0.944120 -0.040107
N30   N     N_R   0.949930 0.102500 0.055880 -0.037553
N31   N     N_R   0.050070 0.102500 0.944120 -0.044884
N32   N     N_R   0.525080 0.471030 0.205650 -0.047485
Ni1   Ni    Ni4+2 0.435420 0.434270 0.870230 0.222419
Ni2   Ni    Ni4+2 0.564580 0.434270 0.129770 0.234421
Ni3   Ni    Ni4+2 0.935420 0.934270 0.870230 0.225363
Ni4   Ni    Ni4+2 0.064580 0.934270 0.129770 0.224536
Ni5   Ni    Ni4+2 0.563430 0.564580 0.128740 0.234714
Ni6   Ni    Ni4+2 0.436570 0.564580 0.871260 0.226812
Ni7   Ni    Ni4+2 0.063430 0.064580 0.128740 0.230147
Ni8   Ni    Ni4+2 0.936570 0.064580 0.871260 0.224520
O1    O     O_3   0.159245 0.618075 0.109297 -0.555664
O2    O     O_3   0.715316 0.639973 0.747316 -0.555071
O3    O     O_3   0.789543 0.138443 0.259299 -0.557748
O4    O     O_3   0.296964 0.143780 0.926013 -0.552952

loop_
_geom_bond_atom_site_label_1
_geom_bond_atom_site_label_2
_ccdc_geom_bond_type
C44   C49   A    
C31   C66   S    
C67   H10   S    
N22   Ni2   S    
C37   C69   S    
C13   C90   A    
C73   C74   A    
C87   H21   S    
C95   H33   S    
C41   H2    S    
C72   C76   A    
C28   H56   S    
C54   N29   A    
C99   N11   A    
C14   H71   S    
C69   C107  A    
C57   C62   S    
C108  H47   S    
C20   C30   S    
C40   C46   A    
N7    N16   A    
C17   C92   A    
C10   C11   S    
C44   I1    S    
N12   N24   A    
C64   H7    S    
C1    H1    S    
C35   C58   S    
C96   N8    A    
N5    N14   A    
C45   C50   A    
N15   Ni2   S    
C24   C26   S    
C32   C61   A    
C38   C42   A    
N8    Ni7   S    
C3    C7    A    
C52   C61   A    
C87   H17   S    
C108  N20   A    
C67   O2    S    
C46   I6    S    
C47   N27   A    
C45   I5    S    
C15   C16   S    
C6    C52   S    
C10   H63   S    
C49   C57   A    
C3    N26   A    
N12   Ni2   S    
C83   I4    S    
C96   H35   S    
N20   N30   A    
C24   C29   D    
C104  N16   A    
C62   H5    S    
C64   I10   S    
N19   N29   A    
C81   I2    S    
C71   C85   S    
C22   H53   S    
C19   C103  A    
C101  N14   A    
C103  H41   S    
C56   C91   A    
C12   H70   S    
C12   H69   S    
C26   H57   S    
N32   Ni2   S    
C8    C9    S    
C65   C67   S    
C40   H80   S    
N16   Ni3   S    
C9    H61   S    
C11   H65   S    
N9    N32   A    
C92   H30   S    
C34   C70   S    
C74   C78   A    
C97   C102  A    
C93   H31   S    
C8    H59   S    
N30   Ni7   S    
N2    N10   A    
C98   N10   A    
C47   H34   S    
N18   N28   A    
C68   O3    S    
C97   N9    A    
C84   H14   S    
C5    C49   S    
N26   Ni3   S    
C111  H50   S    
C42   C44   A    
C78   C83   A    
C68   H11   S    
C39   C91   S    
C99   H38   S    
C110  H49   S    
C8    H58   S    
C60   C64   S    
C107  N19   A    
N8    N17   A    
C100  H39   S    
C76   C102  S    
C88   N32   A    
C15   H74   S    
C10   H64   S    
N17   Ni4   S    
C86   H16   S    
N28   Ni5   S    
N21   N31   A    
N1    N22   A    
C24   H55   S    
C18   C28   S    
C84   C85   S    
C110  N22   A    
C79   C81   A    
C63   H6    S    
C109  N21   A    
C86   C87   S    
N20   Ni8   S    
C39   C43   A    
C48   I7    S    
C23   C28   D    
C21   C29   S    
C46   C51   A    
C82   C83   A    
N6    N15   A    
C34   C39   A    
C4    C50   S    
N27   Ni4   S    
C58   C106  A    
C18   C101  A    
C64   C66   S    
C31   C60   A    
C13   C99   A    
C2    C89   A    
C88   H27   S    
C92   N4    A    
C16   H79   S    
C43   H4    S    
C23   H54   S    
C56   H26   S    
C17   C77   S    
N29   Ni6   S    
C88   C102  A    
C89   N2    A    
C65   I11   S    
C63   C70   S    
C48   C52   A    
C89   H28   S    
C54   H24   S    
N31   Ni8   S    
N3    N11   A    
C66   H9    S    
C9    H62   S    
C56   N31   A    
C11   H66   S    
C32   C37   A    
C74   C86   S    
N25   Ni4   S    
N1    Ni1   S    
C43   C45   A    
C82   I3    S    
C72   C84   S    
C19   C94   A    
N3    Ni4   S    
C32   C67   S    
C10   O2    S    
C3    H52   S    
C70   H13   S    
N23   N25   A    
C20   C95   A    
C12   C14   S    
C8    O1    S    
C94   N6    A    
C36   N23   A    
C106  H44   S    
C22   C27   D    
C93   N5    A    
C34   C59   A    
C97   H36   S    
C31   C35   A    
C85   H15   S    
N21   Ni7   S    
C50   C59   A    
C55   N30   A    
C73   C87   S    
C36   H23   S    
N23   Ni3   S    
C107  H46   S    
C19   C27   S    
N4    N13   A    
C14   H73   S    
C112  H51   S    
C4    C110  A    
C13   C78   S    
C33   C57   A    
C63   I9    S    
C105  H43   S    
N11   Ni7   S    
N7    Ni8   S    
C25   N12   A    
C111  N24   A    
C53   H22   S    
C33   C38   A    
N6    Ni5   S    
N4    Ni3   S    
C100  N13   A    
N5    Ni6   S    
C14   H72   S    
C53   C58   A    
C16   H76   S    
C26   C30   D    
C20   C104  A    
C21   C96   A    
C27   H45   S    
C12   O3    S    
C5    C111  A    
C80   C108  A    
C101  H40   S    
C59   C63   S    
C76   C81   A    
C55   H25   S    
C62   C68   S    
N10   Ni6   S    
C1    C4    A    
C95   N7    A    
C91   C109  A    
C51   C60   A    
N9    Ni5   S    
C35   C40   A    
N13   Ni8   S    
C62   I8    S    
N24   Ni1   S    
N18   Ni6   S    
C85   H19   S    
C71   C75   A    
C55   C80   A    
C86   H20   S    
C106  N18   A    
C54   C69   A    
C38   C80   S    
C77   C82   A    
N19   Ni5   S    
C105  N17   A    
C84   H18   S    
C1    N1    A    
C65   H8    S    
C6    C36   A    
N2    Ni1   S    
C30   H78   S    
C37   C41   A    
N26   N27   A    
C17   C100  A    
C21   C105  A    
C25   H12   S    
C90   H29   S    
C94   H32   S    
C41   C48   A    
C112  N25   A    
C53   N28   A    
C7    C51   S    
C90   N3    A    
C61   C65   S    
C42   H3    S    
C71   C72   A    
C15   O4    S    
C2    C98   A    
C103  N15   A    
C79   I12   S    
C29   H67   S    
C70   O4    S    
C18   C93   A    
C73   C77   A    
C22   C23   S    
C9    H60   S    
C6    C112  A    
C11   H68   S    
N14   Ni1   S    
C104  H42   S    
C109  H48   S    
C75   C79   A    
C16   H77   S    
C98   H37   S    
C15   H75   S    
C2    C75   S    
C66   O1    S    
C33   C68   S    
C7    C47   A    
C5    C25   A    
