data_mof_unit_43569.cif
_audit_creation_date              2012-12-10T17:09:53-0500
_audit_creation_method            fapswitch 2.2
_symmetry_space_group_name_H-M    P1
_symmetry_Int_Tables_number       1
_space_group_crystal_system       triclinic
_cell_length_a                    10.733692
_cell_length_b                    13.025146
_cell_length_c                    11.772299
_cell_angle_alpha                 99.811673
_cell_angle_beta                  93.540964
_cell_angle_gamma                 93.720565
_cell_volume                      1613.92465872

loop_
_atom_site_label
_atom_site_type_symbol
_atom_type_description
_atom_site_fract_x
_atom_site_fract_y
_atom_site_fract_z
_atom_type_partial_charge
C1    C     C_R   0.495605 0.299032 0.477410 0.864600
C2    C     C_R   0.067903 0.534318 0.605324 0.047640
C3    C     C_R   0.125779 0.500497 0.501989 -0.131953
C4    C     C_R   0.055935 0.435351 0.409131 -0.159186
C5    C     C_R   0.928458 0.411504 0.414333 0.355465
C6    C     C_R   0.868970 0.459761 0.508924 -0.182584
C7    C     C_R   0.478958 0.813723 0.532908 -0.208331
C8    C     C_R   0.486755 0.184825 0.459918 -0.110648
C9    C     C_R   0.418528 0.014173 0.347740 -0.109371
C10   C     C_R   0.428522 0.122339 0.357678 0.262837
C11   C     C_R   0.533863 0.136893 0.548810 -0.141234
C12   C     C_R   0.261993 0.504523 0.500861 0.821912
C13   C     C_R   0.512054 0.029826 0.543228 0.035046
C14   C     C_R   0.457481 0.966380 0.440714 0.040063
C15   C     C_R   0.441210 0.857463 0.434770 0.219925
C16   C     C_R   0.508982 0.881364 0.640080 0.257825
C17   C     C_R   0.534139 0.987423 0.642576 -0.134666
C18   C     C_R   0.339012 0.455143 0.035625 -0.133084
C19   C     C_R   0.360606 0.454394 0.154446 0.122779
C20   C     C_R   0.570678 0.516970 0.146714 0.548156
C21   C     C_R   0.540596 0.541219 0.034508 -0.181530
C22   C     C_R   0.435419 0.488575 0.971108 -0.137778
C23   C     C_R   0.491654 0.700237 0.521430 0.856712
C24   C     C_R   0.434941 0.465874 0.847487 0.464689
C25   C     C_R   0.609178 0.592725 0.856425 0.363581
C26   C     C_R   0.619193 0.605169 0.979286 0.316644
C27   C     C_R   0.735322 0.483219 0.499912 0.857798
C28   C     C_R   0.131715 0.597180 0.704205 -0.112803
C29   C     C_R   0.085304 0.599320 0.812551 -0.153978
C30   C     C_R   0.978119 0.536578 0.823290 -0.107117
C31   C     C_R   0.907900 0.482698 0.724486 0.316450
C32   C     C_R   0.944328 0.495054 0.613358 0.007592
Cu1   Cu    Cu3+1 0.509250 0.507730 0.615930 1.082758
Cu2   Cu    Cu3+1 0.490750 0.492270 0.384070 1.073510
H1    H     H_    0.102709 0.393876 0.338189 0.185930
H2    H     H_    0.562959 0.038008 0.724318 0.214812
H3    H     H_    0.585050 0.183320 0.624193 0.221763
H4    H     H_    0.244700 0.436419 0.997409 0.174187
H5    H     H_    0.283534 0.429525 0.200401 0.158816
H6    H     H_    0.219004 0.642061 0.699241 0.170295
H7    H     H_    0.137293 0.643648 0.888892 0.188845
H8    H     H_    0.950583 0.528642 0.908431 0.222776
H9    H     H_    0.375724 0.969174 0.267701 0.223086
N1    N     N_R   0.523180 0.519350 0.790130 -0.269312
N2    N     N_R   0.476820 0.480650 0.209890 -0.225134
O1    O     O_R   0.506570 0.354460 0.582000 -0.508008
O2    O     O_R   0.490940 0.341410 0.386200 -0.541972
O3    O     O_R   0.327470 0.506530 0.597920 -0.563304
O4    O     O_R   0.311840 0.493480 0.402120 -0.603719
O5    O     O_R   0.509060 0.658590 0.613800 -0.543262
O6    O     O_R   0.493430 0.645540 0.418000 -0.548290
O7    O     O_R   0.688160 0.506520 0.597880 -0.549235
O8    O     O_R   0.672530 0.493470 0.402080 -0.543360
Br1   Br    Br    0.352795 0.176341 0.229550 -0.364394
S1    S     S_3+6 0.358143 0.340379 0.781915 0.065725
O9    O     O_2   0.290772 0.338892 0.666276 -0.296306
O10   O     O_2   0.459015 0.265991 0.767878 -0.233230
O11   O     O_3   0.254625 0.288873 0.862338 -0.486933
H10   H     H_    0.171451 0.306971 0.833826 0.363351
Br2   Br    Br    0.725982 0.676276 0.785238 -0.330956
S2    S     S_3+6 0.714300 0.711154 0.065163 0.070679
O12   O     O_2   0.672261 0.732835 0.185786 -0.304066
O13   O     O_2   0.848438 0.684448 0.069215 -0.241104
O14   O     O_3   0.703227 0.820667 0.008600 -0.429443
H11   H     H_    0.764824 0.872868 0.056439 0.399040
S3    S     S_3+6 0.718494 0.465714 0.157529 0.104602
O15   O     O_2   0.694426 0.362348 0.194475 -0.195097
O16   O     O_2   0.772342 0.446280 0.041581 -0.248170
O17   O     O_3   0.824269 0.543498 0.250630 -0.484485
H12   H     H_    0.781790 0.606468 0.280747 0.370472
Br3   Br    Br    0.788322 0.372490 0.746703 -0.415789
Br4   Br    Br    0.864121 0.275303 0.337812 -0.332722
Br5   Br    Br    0.352404 0.772008 0.298334 -0.429683
Br6   Br    Br    0.493252 0.841004 0.788279 -0.358123

loop_
_geom_bond_atom_site_label_1
_geom_bond_atom_site_label_2
_ccdc_geom_bond_type
S3    O16   D    
C21   C26   A    
C1    C8    S    
C6    C32   A    
C12   O3    A    
C12   O4    A    
Cu1   O7    S    
Cu2   O6    S    
C16   Br6   S    
C20   S3    S    
C28   C29   A    
C26   S2    S    
C5    Br4   S    
C5    C6    A    
C1    O1    A    
S3    O17   S    
C28   H6    S    
C2    C32   A    
C18   C19   A    
C11   H3    S    
C3    C12   S    
Cu1   O5    S    
C15   Br5   S    
C6    C27   S    
C16   C17   A    
C25   Br2   S    
C9    C10   A    
C20   N2    A    
C31   Br3   S    
S3    O15   D    
C4    H1    S    
C13   C14   A    
Cu1   O1    S    
O17   H12   S    
C25   N1    A    
C9    H9    S    
C1    O2    A    
C23   O5    A    
C25   C26   A    
C24   S1    S    
S2    O14   S    
C9    C14   A    
C29   C30   A    
C23   O6    A    
C31   C32   A    
S1    O9    D    
C19   N2    A    
Cu1   Cu2   S    
Cu2   N2    S    
C19   H5    S    
C7    C16   A    
C17   H2    S    
S1    O10   D    
C24   N1    A    
C22   C24   A    
O11   H10   S    
C3    C4    A    
C27   O7    A    
Cu2   O4    S    
C29   H7    S    
C18   C22   A    
Cu1   N1    S    
S2    O13   D    
C4    C5    A    
C27   O8    A    
C13   C17   A    
O14   H11   S    
C2    C3    A    
C18   H4    S    
C11   C13   A    
C30   C31   A    
C8    C11   A    
C7    C23   S    
C7    C15   A    
S2    O12   D    
C10   Br1   S    
C20   C21   A    
Cu2   O8    S    
C8    C10   A    
S1    O11   S    
Cu1   O3    S    
C14   C15   A    
C30   H8    S    
C2    C28   A    
Cu2   O2    S    
C21   C22   A    
