data_mof_unit_48824.cif
_audit_creation_date              2013-03-05T16:14:16-0500
_audit_creation_method            fapswitch 2.2
_symmetry_space_group_name_H-M    P1
_symmetry_Int_Tables_number       1
_space_group_crystal_system       triclinic
_cell_length_a                    10.688621
_cell_length_b                    10.626958
_cell_length_c                    10.041832
_cell_angle_alpha                 88.204267
_cell_angle_beta                  92.585905
_cell_angle_gamma                 91.090584
_cell_volume                      1138.72843163

loop_
_atom_site_label
_atom_site_type_symbol
_atom_site_description
_atom_site_fract_x
_atom_site_fract_y
_atom_site_fract_z
_atom_type_partial_charge
O1    O     O_R   0.499990 0.316750 0.614620 -0.567091
O2    O     O_R   0.500010 0.683250 0.385380 -0.567089
O3    O     O_R   0.499990 0.316780 0.385290 -0.619676
O4    O     O_R   0.500010 0.683220 0.614710 -0.619608
C1    C     C_R   0.498780 0.260628 0.501305 0.905398
C2    C     C_R   0.501212 0.739372 0.498695 0.905576
O5    O     O_R   0.316760 0.500000 0.614660 -0.547320
O6    O     O_R   0.683240 0.500000 0.385340 -0.547360
O7    O     O_R   0.316760 0.500020 0.385330 -0.643472
O8    O     O_R   0.683240 0.499980 0.614670 -0.643383
C3    C     C_R   0.260226 0.492319 0.496908 0.949184
C4    C     C_R   0.739775 0.507682 0.503092 0.949528
Zn1   Zn    Zn3+2 0.500000 0.499980 0.653120 1.053955
Zn2   Zn    Zn3+2 0.500000 0.500020 0.346880 1.053872
H1    H     H_    0.215897 0.484950 0.892451 0.253182
H2    H     H_    0.784067 0.514956 0.107540 0.253170
C5    C     C_R   0.177445 0.619976 0.040893 0.248752
C6    C     C_R   0.822589 0.379923 0.959121 0.248701
C7    C     C_R   0.133942 0.634894 0.169309 -0.135089
C8    C     C_R   0.866093 0.365009 0.830698 -0.135063
H3    H     H_    0.131099 0.727620 0.210714 0.231361
H4    H     H_    0.868981 0.272282 0.789306 0.231428
C9    C     C_R   0.096539 0.529821 0.246336 -0.069099
C10   C     C_R   0.903441 0.470096 0.753658 -0.069289
C11   C     C_R   0.102653 0.407798 0.195525 0.231078
C12   C     C_R   0.897267 0.592103 0.804461 0.231417
C13   C     C_R   0.146392 0.392669 0.068158 0.318629
C14   C     C_R   0.853530 0.607238 0.931813 0.318545
C15   C     C_R   0.182501 0.498087 0.990873 -0.356431
C16   C     C_R   0.817476 0.501819 0.009123 -0.356448
C17   C     C_R   0.934270 0.571138 0.401688 0.397606
C18   C     C_R   0.065738 0.428858 0.598310 0.397555
C19   C     C_R   0.874080 0.516769 0.509984 -0.188540
C20   C     C_R   0.125923 0.483227 0.490016 -0.188855
C21   C     C_R   0.942115 0.456471 0.615717 -0.041213
C22   C     C_R   0.057886 0.543500 0.384275 -0.041201
C23   C     C_R   0.439647 0.066518 0.394249 -0.067162
C24   C     C_R   0.560315 0.933484 0.605761 -0.066947
H5    H     H_    0.392417 0.117996 0.312401 0.200640
H6    H     H_    0.607534 0.882008 0.687617 0.200763
C25   C     C_R   0.442327 0.937779 0.391698 -0.071657
C26   C     C_R   0.557641 0.062221 0.608309 -0.071687
H7    H     H_    0.395508 0.889702 0.309358 0.199770
H8    H     H_    0.604460 0.110297 0.690650 0.199749
C27   C     C_R   0.502740 0.872175 0.497389 -0.041698
C28   C     C_R   0.497235 0.127826 0.502614 -0.041664
C29   C     C_R   0.528096 0.607072 0.066474 0.429220
C30   C     C_R   0.471898 0.392929 0.933525 0.429163
C31   C     C_R   0.528322 0.606211 0.924953 -0.141196
C32   C     C_R   0.471682 0.393788 0.075047 -0.141393
H9    H     H_    0.551946 0.691670 0.869639 0.216708
H10   H     H_    0.448057 0.308329 0.130361 0.216670
N1    N     N_R   0.499970 0.499970 0.857200 -0.161112
N2    N     N_R   0.500030 0.500030 0.142800 -0.161133
N3    N     N_R   0.217755 0.727800 0.962547 0.249323
O9    O     O_R   0.265844 0.713834 0.847285 -0.331652
O10   O     O_R   0.208638 0.840974 0.006669 -0.259207
N4    N     N_R   0.782339 0.272091 0.037490 0.249316
O11   O     O_R   0.734277 0.286048 0.152768 -0.331548
O12   O     O_R   0.791491 0.158916 0.993378 -0.259157
N5    N     N_R   0.067424 0.298816 0.274602 0.243341
O13   O     O_R   0.148411 0.211303 0.304230 -0.324643
O14   O     O_R   0.956353 0.289241 0.322161 -0.321038
N6    N     N_R   0.932360 0.701086 0.725345 0.243290
O15   O     O_R   0.850981 0.788075 0.694945 -0.325614
O16   O     O_R   0.043657 0.711015 0.678297 -0.320485
Cl1   Cl    Cl    0.154167 0.240407 0.005978 -0.348400
Cl2   Cl    Cl    0.845646 0.759536 0.993873 -0.348581
Cl3   Cl    Cl    0.861086 0.689389 0.301521 -0.451849
Cl4   Cl    Cl    0.138915 0.310557 0.698405 -0.451980
Cl5   Cl    Cl    0.567481 0.751831 0.136449 -0.440390
Cl6   Cl    Cl    0.432470 0.248181 0.863547 -0.440471

loop_
_geom_bond_atom_site_label_1
_geom_bond_atom_site_label_2
_geom_bond_distance
_ccdc_geom_bond_type
C7    C9    1.400613 A    
O7    Zn2   2.013298 S    
C17   C19   1.392817 A    
Zn1   N1    2.049348 S    
H1    C15   1.079866 S    
C6    C16   1.406791 A    
C2    C27   1.410739 S    
O5    C3    1.307547 A    
C30   N1    1.387274 A    
C11   C13   1.396409 A    
C5    C15   1.406751 A    
C1    C28   1.410730 S    
C5    N3    1.439728 S    
C12   C14   1.396266 A    
C32   N2    1.358651 A    
C17   Cl3   1.757843 S    
O6    C4    1.307550 A    
N6    O15   1.301281 A    
N3    O9    1.301250 A    
C30   C32   1.421563 A    
C23   C28   1.398651 A    
O2    Zn2   1.997032 S    
C29   C31   1.421562 A    
N6    O16   1.300891 A    
C11   N5    1.437496 S    
C25   C27   1.392253 A    
C24   H6    1.083755 S    
O7    C3    1.296420 A    
C29   Cl5   1.747542 S    
O2    C2    1.300613 A    
O3    Zn2   1.973221 S    
C26   H8    1.083764 S    
C30   Cl6   1.747540 S    
C29   N2    1.387275 A    
C31   N1    1.358649 A    
O8    C4    1.296430 A    
C14   C16   1.400832 A    
C7    H3    1.082934 S    
C10   C12   1.411894 A    
C24   C26   1.369992 A    
C9    C22   1.475483 S    
C20   C22   1.404293 A    
N3    O10   1.301561 A    
C23   C25   1.370008 A    
N5    O13   1.301081 A    
C19   C21   1.404343 A    
O1    C1    1.300604 A    
N4    O11   1.301252 A    
C10   C21   1.475489 S    
O1    Zn1   1.997032 S    
N4    O12   1.301564 A    
Zn2   N2    2.049348 S    
C18   C21   1.378939 A    
O5    Zn1   1.979132 S    
C9    C11   1.412024 A    
C13   Cl1   1.757303 S    
C13   C15   1.400837 A    
C6    C8    1.405039 A    
C23   H5    1.083764 S    
O4    C2    1.292655 A    
C26   C28   1.392246 A    
C31   H9    1.081374 S    
C32   H10   1.081375 S    
N5    O14   1.300531 A    
C12   N6    1.437327 S    
C17   C22   1.378940 A    
C5    C7    1.404985 A    
C24   C27   1.398651 A    
C18   Cl4   1.757808 S    
O6    Zn2   1.979130 S    
C14   Cl2   1.757283 S    
C4    C19   1.435639 S    
H2    C16   1.079865 S    
C6    N4    1.439727 S    
C3    C20   1.435617 S    
C25   H7    1.083764 S    
C8    C10   1.400622 A    
O4    Zn1   1.973223 S    
C8    H4    1.082931 S    
O3    C1    1.292658 A    
O8    Zn1   2.013296 S    
C18   C20   1.392782 A    
