data_mof_unit_52876.cif
_audit_creation_date              2013-03-05T15:51:32-0500
_audit_creation_method            fapswitch 2.2
_symmetry_space_group_name_H-M    P1
_symmetry_Int_Tables_number       1
_space_group_crystal_system       triclinic
_cell_length_a                    15.88565
_cell_length_b                    10.866897
_cell_length_c                    9.577882
_cell_angle_alpha                 90.410705
_cell_angle_beta                  89.93935
_cell_angle_gamma                 92.501472
_cell_volume                      1651.78952542

loop_
_atom_site_label
_atom_site_type_symbol
_atom_site_description
_atom_site_fract_x
_atom_site_fract_y
_atom_site_fract_z
_atom_type_partial_charge
O1    O     O_R   0.499990 0.319640 0.618810 -0.589385
O2    O     O_R   0.500000 0.319660 0.381240 -0.582992
C1    C     C_R   0.506696 0.263080 0.500276 0.798858
O3    O     O_R   0.379430 0.499990 0.618840 -0.557203
O4    O     O_R   0.379440 0.500020 0.381260 -0.572026
C2    C     C_R   0.340275 0.499795 0.500154 0.832683
Cu1   Cu    Cu3+1 0.499990 0.499990 0.640660 0.933826
Cu2   Cu    Cu3+1 0.500010 0.500010 0.359340 0.936302
O5    O     O_R   0.500000 0.680340 0.618760 -0.614341
O6    O     O_R   0.500010 0.680360 0.381190 -0.599071
O7    O     O_R   0.620560 0.499980 0.618740 -0.600065
O8    O     O_R   0.620570 0.500010 0.381160 -0.590847
C3    C     C_R   0.495545 0.737659 0.501617 0.778088
C4    C     C_R   0.659686 0.500635 0.499952 0.801991
C5    C     C_3   0.049009 0.475094 0.657770 0.229388
C6    C     C_3   0.045203 0.401449 0.408174 -0.471185
C7    C     C_3   0.947851 0.403068 0.409300 -0.414467
H1    H     H_    0.925317 0.382776 0.686063 0.132032
H2    H     H_    0.064405 0.378102 0.680803 0.074079
H3    H     H_    0.068725 0.416370 0.299772 0.207297
H4    H     H_    0.065359 0.309183 0.440991 0.171846
H5    H     H_    0.921248 0.311136 0.441560 0.166115
H6    H     H_    0.925041 0.419604 0.301397 0.193104
C8    C     C_1   0.749276 0.502108 0.500613 -0.184560
C9    C     C_3   0.082928 0.502822 0.507088 0.177655
C10   C     C_3   0.949629 0.477952 0.661187 -0.093516
C11   C     C_3   0.917045 0.504642 0.509976 0.232408
C12   C     C_3   0.955182 0.630506 0.460209 -0.387049
C13   C     C_3   0.052437 0.628109 0.454025 -0.346388
C14   C     C_1   0.824784 0.503468 0.503769 -0.100422
C15   C     C_1   0.175136 0.501737 0.502906 -0.023257
C16   C     C_1   0.250637 0.500758 0.500821 -0.136406
H7    H     H_    0.081067 0.706960 0.513821 0.214245
H8    H     H_    0.073304 0.641926 0.344000 0.175206
H9    H     H_    0.936148 0.705696 0.531284 0.168126
H10   H     H_    0.930600 0.651735 0.354641 0.172752
H11   H     H_    0.495558 0.109201 0.279424 0.162575
C17   C     C_R   0.556191 0.122953 0.753936 -0.161317
H12   H     H_    0.590195 0.211243 0.752341 0.161851
C18   C     C_R   0.547122 0.065298 0.882796 -0.161118
H13   H     H_    0.570037 0.111345 0.976823 0.135946
C19   C     C_R   0.505658 0.950529 0.890836 -0.134692
H14   H     H_    0.493993 0.908431 0.991547 0.141006
C20   C     C_R   0.481164 0.888175 0.768811 -0.150563
H15   H     H_    0.445839 0.802116 0.782296 0.178175
C21   C     C_R   0.498694 0.939819 0.635532 0.090883
C22   C     C_R   0.523835 0.065623 0.630526 0.096922
C23   C     C_R   0.514398 0.129316 0.502884 -0.118788
C24   C     C_R   0.500831 0.062923 0.378659 -0.211902
H16   H     H_    0.487787 0.887143 0.281407 0.166159
C25   C     C_R   0.493760 0.935766 0.380300 -0.210812
C26   C     C_R   0.492452 0.872389 0.507207 -0.110198
H17   H     H_    0.405294 0.359814 0.128348 0.142129
C27   C     C_R   0.612218 0.663747 0.145155 -0.148332
H18   H     H_    0.617792 0.671704 0.255175 0.199245
C28   C     C_R   0.667127 0.743397 0.073248 -0.223324
H19   H     H_    0.709942 0.805888 0.129864 0.149866
C29   C     C_R   0.667259 0.743073 0.929451 -0.199553
H20   H     H_    0.710009 0.805509 0.873492 0.150426
C30   C     C_R   0.612291 0.663373 0.856713 -0.142042
H21   H     H_    0.617241 0.671775 0.746776 0.199471
C31   C     C_R   0.555100 0.580500 0.925622 0.191521
C32   C     C_R   0.555069 0.580558 0.075336 0.207049
N1    N     N_R   0.500800 0.501210 0.147910 -0.200541
C33   C     C_R   0.447923 0.422962 0.073417 -0.055653
H22   H     H_    0.405325 0.359864 0.869530 0.152970
C34   C     C_R   0.447931 0.423010 0.925391 -0.042023
N2    N     N_R   0.500820 0.501290 0.852040 -0.207006
N3    N     N_R   0.092516 0.552815 0.764380 0.130697
O9    O     O_R   0.093214 0.672438 0.759402 -0.391012
O10   O     O_R   0.138438 0.501397 0.858088 -0.381434
C35   C     C_3   0.912054 0.562704 0.775672 -0.343665
C36   C     C_3   0.917248 0.508604 0.922454 -0.805162
H23   H     H_    0.881966 0.418180 0.926779 0.232554
H24   H     H_    0.983232 0.496155 0.954426 0.293201
H25   H     H_    0.888447 0.571822 0.998689 0.236436
H26   H     H_    0.941846 0.656658 0.774158 0.247015
H27   H     H_    0.844095 0.574537 0.755942 0.200220

loop_
_geom_bond_atom_site_label_1
_geom_bond_atom_site_label_2
_geom_bond_distance
_ccdc_geom_bond_type
C9    C15   1.465849 S    
C2    C16   1.424460 S    
C6    H4    1.113271 S    
C21   C26   1.427724 A    
C10   C35   1.561730 S    
C36   H23   1.110794 S    
H1    C10   1.115392 S    
Cu1   Cu2   2.694450 S    
Cu1   O7    1.926590 S    
C10   C11   1.571708 S    
C7    H6    1.113914 S    
C12   C13   1.547384 S    
O4    C2    1.297016 A    
O7    C4    1.295783 A    
C5    C9    1.566653 S    
C27   C32   1.417593 A    
C29   C30   1.387290 A    
C13   H7    1.108412 S    
C1    C23   1.464442 S    
C28   H19   1.083038 S    
C30   C31   1.416996 A    
C4    C8    1.422608 S    
N3    O10   1.301558 A    
O5    C3    1.290688 A    
C35   H27   1.109337 S    
C35   H26   1.106632 S    
Cu1   N2    2.024575 S    
C21   C22   1.408540 A    
C22   C23   1.420476 A    
C12   H9    1.111590 S    
C6    C7    1.547389 S    
C33   C34   1.417780 A    
H17   C33   1.081732 S    
C6    H3    1.113647 S    
C18   C19   1.387375 A    
H22   C34   1.081744 S    
C11   C14   1.466388 S    
C36   H24   1.106546 S    
C19   C20   1.393943 A    
O3    Cu1   1.926761 S    
C20   C21   1.420539 A    
C9    C13   1.553877 S    
C5    N3    1.473708 S    
C27   C28   1.387704 A    
C25   C26   1.401036 A    
C7    C11   1.555167 S    
O3    C2    1.296332 A    
C5    C10   1.580687 S    
C24   C25   1.381658 A    
C29   H20   1.083066 S    
C13   H8    1.113607 S    
C34   N2    1.366753 A    
C30   H21   1.060116 S    
O1    C1    1.293632 A    
C5    H2    1.115951 S    
C31   C32   1.433945 A    
C3    C26   1.467658 S    
H11   C24   1.083518 S    
C15   C16   1.200031 T    
Cu2   O8    1.926763 S    
H16   C25   1.083507 S    
C17   C22   1.418531 A    
Cu2   N1    2.025209 S    
C18   H13   1.082715 S    
O8    C4    1.296807 A    
C36   H25   1.110830 S    
C19   H14   1.082876 S    
C20   H15   1.077934 S    
C6    C9    1.548826 S    
Cu1   O5    1.972525 S    
C27   H18   1.060165 S    
C23   C24   1.399038 A    
O1    Cu1   1.969495 S    
O2    Cu2   1.972525 S    
C35   C36   1.531409 S    
O6    C3    1.310163 A    
O4    Cu2   1.926589 S    
C7    H5    1.113273 S    
C31   N2    1.381632 A    
N1    C33   1.366707 A    
O2    C1    1.305845 A    
C17   C18   1.392624 A    
C17   H12   1.080510 S    
C28   C29   1.377248 A    
N3    O9    1.300710 A    
C8    C14   1.199352 T    
C32   N1    1.382867 A    
C12   H10   1.113602 S    
Cu2   O6    1.969493 S    
C11   C12   1.549647 S    
