data_mof_unit_9970.cif
_audit_creation_date              2012-12-10T17:08:11-0500
_audit_creation_method            fapswitch 2.2
_symmetry_space_group_name_H-M    P1
_symmetry_Int_Tables_number       1
_space_group_crystal_system       triclinic
_cell_length_a                    23.513085
_cell_length_b                    11.035186
_cell_length_c                    9.848045
_cell_angle_alpha                 111.527284
_cell_angle_beta                  98.350577
_cell_angle_gamma                 90.766798
_cell_volume                      2345.65506445

loop_
_atom_site_label
_atom_site_type_symbol
_atom_type_description
_atom_site_fract_x
_atom_site_fract_y
_atom_site_fract_z
_atom_type_partial_charge
C1    C     C_R   0.496031 0.253897 0.440256 0.856744
C2    C     C_R   0.504349 0.746091 0.559692 0.854430
C3    C     C_R   0.231151 0.499463 0.380895 -0.104322
C4    C     C_R   0.769224 0.512226 0.623786 -0.103954
C5    C     C_R   0.290280 0.499375 0.379348 -0.224959
C6    C     C_R   0.710096 0.513101 0.625498 -0.211328
C7    C     C_R   0.328579 0.501101 0.503734 -0.026738
C8    C     C_R   0.671495 0.499655 0.496783 -0.047144
C9    C     C_R   0.306658 0.503883 0.630190 -0.225635
C10   C     C_R   0.693189 0.485819 0.366544 -0.212166
C11   C     C_R   0.247425 0.504444 0.631693 -0.103431
C12   C     C_R   0.752438 0.485364 0.365295 -0.101485
C13   C     C_R   0.209458 0.502153 0.507001 0.357361
C14   C     C_R   0.790583 0.498330 0.493831 0.355159
C15   C     C_2   0.494354 0.114134 0.406405 -0.359051
C16   C     C_2   0.506998 0.885832 0.593357 -0.348150
C17   C     C_2   0.502211 0.069618 0.516117 -0.133489
C18   C     C_2   0.500465 0.930306 0.483536 -0.149174
C19   C     C_2   0.503670 0.512676 0.081771 0.081176
C20   C     C_2   0.495028 0.489657 0.918304 0.093656
C21   C     C_R   0.390992 0.500194 0.501181 0.790185
C22   C     C_R   0.609028 0.500039 0.498920 0.791863
C23   C     C_R   0.880120 0.602905 0.484146 0.534311
C24   C     C_R   0.119754 0.397176 0.515973 0.532053
C25   C     C_R   0.879841 0.393341 0.503826 0.534664
C26   C     C_R   0.120119 0.607491 0.498229 0.532023
C27   C     C_R   0.939659 0.392085 0.507030 -0.014454
C28   C     C_R   0.060277 0.608517 0.494535 -0.013445
C29   C     C_R   0.969845 0.499633 0.498745 -0.017691
C30   C     C_R   0.030076 0.500825 0.502401 -0.017642
C31   C     C_R   0.939949 0.606032 0.486917 -0.014021
C32   C     C_R   0.059953 0.394292 0.513817 -0.013005
C33   C     C_R   0.969876 0.286375 0.518499 -0.161004
C34   C     C_R   0.030058 0.714223 0.483025 -0.161689
C35   C     C_R   0.029402 0.287430 0.521761 -0.162585
C36   C     C_R   0.970501 0.712936 0.479110 -0.161933
Cu1   Cu    Cu3+1 0.509980 0.521810 0.644910 0.960880
Cu2   Cu    Cu3+1 0.490020 0.478190 0.355090 0.973136
H1    H     H_    0.947663 0.202524 0.524981 0.189911
H2    H     H_    0.052281 0.798176 0.476795 0.189637
H3    H     H_    0.051353 0.204297 0.530514 0.188872
H4    H     H_    0.948537 0.795983 0.470138 0.189190
H5    H     H_    0.202084 0.497431 0.283993 0.143862
H6    H     H_    0.798566 0.522750 0.723595 0.144650
H7    H     H_    0.305961 0.498723 0.281084 0.146009
H8    H     H_    0.694683 0.524090 0.727519 0.175340
H9    H     H_    0.335178 0.505197 0.727624 0.144245
H10   H     H_    0.664480 0.475532 0.265841 0.171162
H11   H     H_    0.230984 0.506919 0.729777 0.140936
H12   H     H_    0.768760 0.474526 0.264456 0.144747
H13   H     H_    0.493433 0.863695 0.368388 0.172156
H14   H     H_    0.509743 0.136221 0.631262 0.190761
H15   H     H_    0.514149 0.952677 0.708333 0.152657
H16   H     H_    0.486751 0.047316 0.291413 0.146802
H17   H     H_    0.459309 0.423363 0.845899 0.110192
H18   H     H_    0.531622 0.596153 0.157923 0.126309
N1    N     N_R   0.851477 0.497819 0.492932 -0.470375
N2    N     N_R   0.148498 0.502609 0.508039 -0.469457
N3    N     N_2   0.475010 0.445410 0.137370 -0.024578
N4    N     N_2   0.524990 0.554590 0.862630 -0.028557
O1    O     O_R   0.505330 0.332340 0.577400 -0.581947
O2    O     O_R   0.494670 0.667660 0.422600 -0.598254
O3    O     O_R   0.488470 0.295500 0.332650 -0.548215
O4    O     O_R   0.511530 0.704500 0.667350 -0.611723
O5    O     O_R   0.426310 0.518390 0.622390 -0.603213
O6    O     O_R   0.573690 0.481610 0.377610 -0.581351
O7    O     O_R   0.409450 0.481550 0.377650 -0.592585
O8    O     O_R   0.590550 0.518450 0.622350 -0.562747
O9    O     O_2   0.850842 0.704501 0.474314 -0.532928
O10   O     O_2   0.148873 0.294876 0.524173 -0.537776
O11   O     O_2   0.850158 0.290891 0.510930 -0.531184
O12   O     O_2   0.149812 0.710708 0.492847 -0.535168
O13   O     O_3   0.575161 0.614136 0.948732 -0.540872
C37   C     C_3   0.579229 0.742901 0.953161 0.181223
H19   H     H_    0.536219 0.784419 0.950049 0.137300
H20   H     H_    0.599713 0.744768 0.859087 0.173306
C38   C     C_3   0.617143 0.828813 0.097572 -0.421976
H21   H     H_    0.598450 0.823169 0.192727 0.223291
H22   H     H_    0.660994 0.792527 0.101769 0.241286
C39   C     C_3   0.621703 0.971129 0.111390 -0.877635
H23   H     H_    0.640694 0.979522 0.018024 0.258226
H24   H     H_    0.649812 0.030574 0.216722 0.275415
H25   H     H_    0.578441 0.010442 0.111707 0.253202
O14   O     O_3   0.453303 0.325750 0.042131 -0.522820
C40   C     C_3   0.392558 0.323342 0.026777 0.146440
H26   H     H_    0.375600 0.311735 0.910979 0.114121
H27   H     H_    0.375796 0.414330 0.099949 0.133283
C41   C     C_3   0.369489 0.206256 0.055590 -0.329980
H28   H     H_    0.387859 0.116221 0.986670 0.220443
H29   H     H_    0.382925 0.221032 0.173753 0.233189
C42   C     C_3   0.303857 0.187728 0.018871 -0.904129
H30   H     H_    0.284273 0.275957 0.086858 0.253899
H31   H     H_    0.288617 0.103025 0.042637 0.268678
H32   H     H_    0.289429 0.168603 0.899877 0.267583

loop_
_geom_bond_atom_site_label_1
_geom_bond_atom_site_label_2
_ccdc_geom_bond_type
C19   H18   S    
C27   C29   A    
C26   O12   S    
O13   C37   S    
C23   O9    S    
C36   H4    S    
C19   C20   S    
C24   O10   S    
C38   H21   S    
C27   C33   A    
C3    H5    S    
C33   H1    S    
C37   H20   S    
C34   H2    S    
Cu1   Cu2   S    
C39   H25   S    
C40   C41   S    
Cu1   O8    S    
N4    O13   S    
C15   C17   D    
C16   H15   S    
C22   O6    A    
Cu2   O6    S    
C37   C38   S    
Cu1   O5    S    
C8    C22   S    
C1    C15   S    
C20   N4    D    
C2    C16   S    
C3    C13   A    
C41   H28   S    
C40   H27   S    
C28   C34   A    
C24   N2    A    
C21   O7    A    
C25   N1    A    
C20   H17   S    
C1    O3    A    
C17   H14   S    
C2    O4    A    
C18   H13   S    
C38   H22   S    
C37   H19   S    
C15   H16   S    
O14   C40   S    
C39   H24   S    
C42   H30   S    
C5    C7    A    
C6    C8    A    
C13   N2    S    
C4    H6    S    
C19   N3    D    
C40   H26   S    
C5    H7    S    
C23   C31   A    
C24   C32   A    
C29   C30   A    
C11   H11   S    
C42   H31   S    
C26   N2    A    
C12   H12   S    
C41   C42   S    
C17   C18   S    
N3    O14   S    
C9    C11   A    
C22   O8    A    
C10   C12   A    
C25   O11   S    
C4    C6    A    
C12   C14   A    
C9    H9    S    
C10   H10   S    
Cu1   O4    S    
Cu2   O3    S    
C38   C39   S    
C23   N1    A    
C14   N1    S    
C6    H8    S    
C21   O5    A    
C8    C10   A    
C32   C35   A    
C41   H29   S    
C39   H23   S    
C3    C5    A    
C1    O1    A    
Cu1   O1    S    
C25   C27   A    
C26   C28   A    
C28   C30   A    
C29   C31   A    
C7    C21   S    
C42   H32   S    
C30   C32   A    
C11   C13   A    
C33   C35   A    
C34   C36   A    
C4    C14   A    
C35   H3    S    
Cu1   N4    S    
Cu2   N3    S    
C7    C9    A    
Cu2   O7    S    
C16   C18   D    
C31   C36   A    
C2    O2    A    
Cu2   O2    S    
