data_mof_unit_50489.cif
_audit_creation_date              2013-03-05T16:14:31-0500
_audit_creation_method            fapswitch 2.2
_symmetry_space_group_name_H-M    P1
_symmetry_Int_Tables_number       1
_space_group_crystal_system       triclinic
_cell_length_a                    10.668711
_cell_length_b                    10.720613
_cell_length_c                    9.503472
_cell_angle_alpha                 90.586231
_cell_angle_beta                  90.112679
_cell_angle_gamma                 89.951296
_cell_volume                      1086.90139692

loop_
_atom_site_label
_atom_site_type_symbol
_atom_site_description
_atom_site_fract_x
_atom_site_fract_y
_atom_site_fract_z
_atom_type_partial_charge
O1    O     O_R   0.500060 0.316850 0.620870 -0.589637
O2    O     O_R   0.499940 0.683150 0.379130 -0.589643
O3    O     O_R   0.500000 0.316860 0.379090 -0.529538
O4    O     O_R   0.500000 0.683140 0.620910 -0.529510
C1    C     C_R   0.499781 0.260401 0.499274 0.918406
C2    C     C_R   0.500212 0.739598 0.500726 0.918373
O5    O     O_R   0.316880 0.499960 0.620870 -0.570160
O6    O     O_R   0.683120 0.500040 0.379130 -0.570141
O7    O     O_R   0.316830 0.499970 0.379090 -0.559066
O8    O     O_R   0.683170 0.500030 0.620910 -0.559080
C3    C     C_R   0.259880 0.499885 0.499953 0.886288
C4    C     C_R   0.740122 0.500134 0.500050 0.886266
Cu1   Cu    Cu3+1 0.500030 0.499990 0.643150 1.059489
Cu2   Cu    Cu3+1 0.499970 0.500010 0.356850 1.059516
C5    C     C_3   0.042098 0.483734 0.633122 -0.188695
C6    C     C_3   0.957910 0.516314 0.366903 -0.188630
C7    C     C_3   0.958207 0.389888 0.550043 -0.228951
C8    C     C_3   0.041800 0.610158 0.449983 -0.228990
H1    H     H_    0.925378 0.298089 0.587545 0.240302
H2    H     H_    0.074635 0.701955 0.412481 0.240302
H3    H     H_    0.076207 0.469663 0.741895 0.236951
H4    H     H_    0.923821 0.530434 0.258137 0.237047
C9    C     C_3   0.876803 0.499767 0.499692 -0.160257
C10   C     C_3   0.123202 0.500277 0.500328 -0.160250
C11   C     C_3   0.959820 0.591326 0.580523 0.361523
C12   C     C_3   0.040183 0.408720 0.419499 0.361527
C13   C     C_3   0.597816 0.042273 0.574400 0.281369
C14   C     C_3   0.402167 0.957726 0.425602 0.281349
C15   C     C_3   0.605897 0.957055 0.443433 0.046431
C16   C     C_3   0.394086 0.042944 0.556568 0.046438
C17   C     C_3   0.499355 0.875176 0.501737 -0.196991
C18   C     C_3   0.500629 0.124823 0.498264 -0.196996
C19   C     C_3   0.491208 0.961603 0.632593 0.029972
C20   C     C_3   0.508774 0.038396 0.367408 0.029972
C21   C     C_3   0.494713 0.613979 0.052487 -0.176859
C22   C     C_3   0.505284 0.386022 0.947512 -0.176956
C23   C     C_3   0.400885 0.551493 0.951612 0.397992
C24   C     C_3   0.599111 0.448506 0.048385 0.398009
H5    H     H_    0.490314 0.709233 0.099168 0.178514
H6    H     H_    0.509684 0.290768 0.900830 0.178523
N1    N     N_3   0.500090 0.499970 0.858290 -0.227416
N2    N     N_3   0.499910 0.500030 0.141710 -0.227413
C25   C     C_3   0.593875 0.560010 0.951875 0.109270
C26   C     C_3   0.406123 0.439990 0.048125 0.109267
N3    N     N_R   0.913773 0.693684 0.667485 0.138416
O9    O     O_R   0.962356 0.715262 0.790920 -0.265379
O10   O     O_R   0.829394 0.768810 0.617874 -0.314544
N4    N     N_R   0.086228 0.306362 0.332535 0.138415
O11   O     O_R   0.037633 0.284780 0.209107 -0.265360
O12   O     O_R   0.170614 0.231240 0.382137 -0.314562
N5    N     N_3   0.721677 0.910565 0.381186 -0.470851
H7    H     H_    0.772296 0.987851 0.346802 0.284630
H8    H     H_    0.697470 0.858572 0.291589 0.220274
N6    N     N_3   0.278307 0.089436 0.618815 -0.470846
H9    H     H_    0.227676 0.012148 0.653169 0.284626
H10   H     H_    0.302513 0.141404 0.708430 0.220271
N7    N     N_R   0.704569 0.084878 0.658190 0.135848
O13   O     O_R   0.775904 0.004261 0.720762 -0.247947
O14   O     O_R   0.723626 0.203137 0.680105 -0.375454
N8    N     N_R   0.295413 0.915120 0.341813 0.135804
O15   O     O_R   0.224018 0.995742 0.279337 -0.247914
O16   O     O_R   0.276401 0.796867 0.319819 -0.375409
N9    N     N_3   0.480421 0.921731 0.778154 -0.482204
H11   H     H_    0.480195 0.002022 0.841447 0.223016
H12   H     H_    0.561845 0.872379 0.803068 0.279947
N10   N     N_3   0.519556 0.078266 0.221847 -0.482188
H13   H     H_    0.519790 0.997973 0.158556 0.223020
H14   H     H_    0.438126 0.127608 0.196932 0.279936
N11   N     N_R   0.289391 0.612865 0.896787 0.140133
O17   O     O_R   0.179453 0.583532 0.944942 -0.351185
O18   O     O_R   0.300903 0.711318 0.819245 -0.291640
N12   N     N_R   0.710600 0.387126 0.103203 0.140254
O19   O     O_R   0.820567 0.416706 0.055356 -0.351387
O20   O     O_R   0.699110 0.288558 0.180553 -0.291613
N13   N     N_3   0.698680 0.630023 0.895303 -0.470837
H15   H     H_    0.741621 0.676488 0.979691 0.239769
H16   H     H_    0.763911 0.565451 0.857444 0.289076
N14   N     N_3   0.301323 0.369971 0.104698 -0.470847
H17   H     H_    0.236090 0.434538 0.142563 0.289108
H18   H     H_    0.258383 0.323507 0.020306 0.239710

loop_
_geom_bond_atom_site_label_1
_geom_bond_atom_site_label_2
_geom_bond_distance
_ccdc_geom_bond_type
N10   H14   1.044787 S    
N9    H12   1.044788 S    
C23   N11   1.456880 S    
C13   C15   1.538903 S    
N13   H15   1.044973 S    
C20   N10   1.456834 S    
Cu1   N1    2.044577 S    
N3    O9    1.300195 A    
C13   C19   1.536658 S    
O5    C3    1.299058 A    
C16   N6    1.455991 S    
C4    C9    1.458224 S    
C7    C9    1.542403 S    
O1    C1    1.298953 A    
C7    C12   1.534432 S    
C21   C23   1.534291 S    
C10   C12   1.523589 S    
C24   N2    1.484758 S    
N14   H18   1.044981 S    
C5    C11   1.535961 S    
C3    C10   1.458192 S    
N8    O16   1.298786 A    
O4    Cu1   1.976972 S    
N11   O18   1.299489 A    
C21   N2    1.495082 S    
C14   C16   1.538906 S    
C6    H4    1.106914 S    
C17   C19   1.545731 S    
C21   C25   1.536171 S    
C12   N4    1.452804 S    
Cu2   N2    2.044579 S    
C1    C18   1.453433 S    
N4    O12   1.298532 A    
N10   H13   1.045060 S    
C14   C20   1.536657 S    
Cu1   Cu2   2.720845 S    
C25   N13   1.454198 S    
N1    C25   1.480652 S    
C22   N1    1.495068 S    
O2    C2    1.298953 A    
C8    C11   1.534430 S    
N2    C26   1.480663 S    
C24   N12   1.456848 S    
N3    O10   1.298535 A    
C6    C12   1.535950 S    
N6    H10   1.045021 S    
C19   N9    1.456837 S    
N5    H7    1.044949 S    
C22   H6    1.110209 S    
N12   O20   1.299421 A    
C13   N7    1.459359 S    
N14   H17   1.043098 S    
C15   C20   1.537697 S    
N8    O15   1.298983 A    
N5    H8    1.045022 S    
C18   C20   1.545729 S    
C21   H5    1.110209 S    
O7    Cu2   1.965679 S    
N13   H16   1.043094 S    
O5    Cu1   1.965000 S    
O6    C4    1.299090 A    
O7    C3    1.300478 A    
O3    Cu2   1.976972 S    
O8    C4    1.300461 A    
O4    C2    1.298100 A    
C5    C10   1.543358 S    
C6    C9    1.543339 S    
C8    C10   1.542385 S    
C22   C26   1.536170 S    
O1    Cu1   1.972602 S    
C11   N3    1.452800 S    
C15   N5    1.455992 S    
C5    C7    1.555351 S    
N6    H9    1.044940 S    
N4    O11   1.300193 A    
O6    Cu2   1.965000 S    
C16   C19   1.537694 S    
C13   C18   1.546096 S    
C14   C17   1.546094 S    
N12   O19   1.299776 A    
O3    C1    1.298101 A    
O8    Cu1   1.965680 S    
C23   C26   1.515075 S    
C26   N14   1.454196 S    
C24   C25   1.515070 S    
C15   C17   1.543918 S    
C16   C18   1.543922 S    
N7    O13   1.298988 A    
C22   C24   1.534269 S    
C7    H1    1.107459 S    
C2    C17   1.453427 S    
C8    H2    1.107465 S    
C9    C11   1.523613 S    
C23   N1    1.484768 S    
N11   O17   1.299881 A    
O2    Cu2   1.972602 S    
N7    O14   1.298818 A    
N9    H11   1.045060 S    
C5    H3    1.106971 S    
C14   N8    1.459360 S    
C6    C8    1.555330 S    
