data_mof_unit_15463.cif
_audit_creation_date              2012-12-11T15:27:45-0500
_audit_creation_method            fapswitch 2.2
_symmetry_space_group_name_H-M    P1
_symmetry_Int_Tables_number       1
_space_group_crystal_system       triclinic
_cell_length_a                    23.145546
_cell_length_b                    7.299202
_cell_length_c                    15.143989
_cell_angle_alpha                 90.001296
_cell_angle_beta                  107.962628
_cell_angle_gamma                 89.998833
_cell_volume                      2433.78025346

loop_
_atom_site_label
_atom_site_type_symbol
_atom_type_description
_atom_site_fract_x
_atom_site_fract_y
_atom_site_fract_z
_atom_type_partial_charge
O1    O     O_R   0.711000 0.648610 0.341170 -0.537353
O2    O     O_R   0.289000 0.351390 0.658830 -0.546172
O3    O     O_R   0.789000 0.148610 0.158830 -0.537372
O4    O     O_R   0.211000 0.851390 0.841170 -0.546244
O5    O     O_R   0.829650 0.322030 0.336650 -0.540886
O6    O     O_R   0.170350 0.677970 0.663350 -0.538959
O7    O     O_R   0.670350 0.822030 0.163350 -0.540890
O8    O     O_R   0.329650 0.177970 0.836650 -0.538957
C1    C     C_R   0.854282 0.485822 0.356758 0.740030
C2    C     C_R   0.145716 0.514179 0.643250 0.739913
C3    C     C_R   0.645717 0.985822 0.143241 0.740048
C4    C     C_R   0.354283 0.014179 0.856750 0.739966
O9    O     O_R   0.713950 0.319280 0.352070 -0.537284
O10   O     O_R   0.286050 0.680720 0.647930 -0.533788
O11   O     O_R   0.786050 0.819280 0.147930 -0.537317
O12   O     O_R   0.213950 0.180720 0.852070 -0.533753
O13   O     O_R   0.672470 0.142870 0.174360 -0.529323
O14   O     O_R   0.327530 0.857130 0.825640 -0.532821
O15   O     O_R   0.827530 0.642870 0.325640 -0.529316
O16   O     O_R   0.172470 0.357130 0.674360 -0.532804
C5    C     C_R   0.701671 0.487850 0.375970 0.816724
C6    C     C_R   0.298990 0.512730 0.624761 0.751900
C7    C     C_R   0.798331 0.987845 0.124032 0.816778
C8    C     C_R   0.201005 0.012736 0.875236 0.751978
O17   O     O_3   0.736530 0.478650 0.191680 -0.385356
O18   O     O_3   0.263470 0.521350 0.808320 -0.382285
O19   O     O_3   0.763470 0.978650 0.308320 -0.385330
O20   O     O_3   0.236530 0.021350 0.691680 -0.382254
V1    V     V_3+5 0.752500 0.206170 0.260820 1.531803
V2    V     V_3+5 0.247500 0.793830 0.739180 1.475637
V3    V     V_3+5 0.747500 0.706170 0.239180 1.531779
V4    V     V_3+5 0.252500 0.293830 0.760820 1.475697
C9    C     C_R   0.826874 0.002138 0.050437 -0.115861
C10   C     C_R   0.170837 0.008140 0.947313 -0.169815
C11   C     C_R   0.673134 0.502173 0.449571 -0.115886
C12   C     C_R   0.329166 0.508095 0.552695 -0.169759
C13   C     C_R   0.822377 0.101729 0.896166 -0.229673
C14   C     C_R   0.176828 0.056180 0.108105 -0.240610
C15   C     C_R   0.677597 0.602246 0.603758 -0.229679
C16   C     C_R   0.323161 0.555581 0.391861 -0.240610
C17   C     C_R   0.792888 0.066704 0.962569 0.281320
C18   C     C_R   0.205916 0.036478 0.040010 0.319827
C19   C     C_R   0.707097 0.567079 0.537382 0.281353
C20   C     C_R   0.294079 0.536085 0.459974 0.319814
C21   C     C_R   0.889583 0.972269 0.071937 0.312210
C22   C     C_R   0.106608 0.000520 0.922600 0.239284
C23   C     C_R   0.610438 0.472086 0.428107 0.312211
C24   C     C_R   0.393397 0.500623 0.577417 0.239358
C25   C     C_R   0.920929 0.040009 0.011029 -0.000086
C26   C     C_R   0.077582 0.048999 0.989262 0.033114
C27   C     C_R   0.579068 0.539973 0.488954 -0.000122
C28   C     C_R   0.422410 0.548883 0.510708 0.033107
C29   C     C_R   0.885793 0.090760 0.920011 -0.034893
C30   C     C_R   0.113358 0.062318 0.083424 0.010447
C31   C     C_R   0.614187 0.591088 0.579924 -0.034899
C32   C     C_R   0.386630 0.561844 0.416535 0.010430
C33   C     C_R   0.985446 0.060088 0.036954 -0.037003
C34   C     C_R   0.013605 0.077479 0.965946 -0.073967
C35   C     C_R   0.514543 0.559880 0.463008 -0.037010
C36   C     C_R   0.486379 0.577494 0.533999 -0.073943
C37   C     C_R   0.977145 0.138112 0.876559 0.445429
C38   C     C_R   0.022088 0.085250 0.130510 0.368795
C39   C     C_R   0.522820 0.638475 0.623331 0.445412
C40   C     C_R   0.477894 0.584668 0.369427 0.368786
C41   C     C_R   0.914204 0.139978 0.854632 -0.160593
C42   C     C_R   0.085575 0.086543 0.152293 -0.249029
C43   C     C_R   0.585759 0.640490 0.645258 -0.160580
C44   C     C_R   0.414406 0.585835 0.347643 -0.249009
C45   C     C_1   0.416772 0.006906 0.918701 -0.152708
C46   C     C_1   0.583228 0.993079 0.081288 -0.135501
C47   C     C_1   0.083228 0.506907 0.581299 -0.152704
C48   C     C_1   0.916772 0.493078 0.418711 -0.135491
C49   C     C_1   0.469146 0.002349 0.969942 0.034396
C50   C     C_1   0.530853 0.997610 0.030049 0.034467
C51   C     C_1   0.030854 0.502349 0.530058 0.034398
C52   C     C_1   0.969147 0.497609 0.469951 0.034468
H1    H     H_    0.887356 0.187690 0.786497 0.152038
H2    H     H_    0.113481 0.105866 0.223714 0.127125
H3    H     H_    0.612591 0.688474 0.713349 0.152041
H4    H     H_    0.386495 0.604877 0.276204 0.127125
O21   O     O_3   0.071361 0.939302 0.836204 -0.618890
H5    H     H_    0.097235 0.889658 0.800758 0.291474
O22   O     O_3   0.917500 0.868229 0.149571 -0.623927
H6    H     H_    0.952924 0.805702 0.139383 0.305094
O23   O     O_3   0.428664 0.439717 0.663865 -0.618856
H7    H     H_    0.402806 0.390409 0.699417 0.291429
O24   O     O_3   0.582561 0.367731 0.350571 -0.623900
H8    H     H_    0.547161 0.305183 0.360820 0.305092
O25   O     O_3   0.268464 0.042679 0.062307 -0.649565
H9    H     H_    0.286244 0.063828 0.129991 0.288111
O26   O     O_3   0.731051 0.092120 0.943064 -0.649065
H10   H     H_    0.714045 0.138029 0.878587 0.296615
O27   O     O_3   0.231529 0.542129 0.437669 -0.649574
H11   H     H_    0.213740 0.563006 0.369964 0.288102
O28   O     O_3   0.768923 0.592694 0.556858 -0.649044
H12   H     H_    0.785911 0.638860 0.621291 0.296614
H13   H     H_    0.796066 0.145775 0.827078 0.126712
H14   H     H_    0.203830 0.071725 0.180246 0.125191
H15   H     H_    0.703893 0.646567 0.672805 0.126720
H16   H     H_    0.296154 0.570849 0.319706 0.125187
O29   O     O_3   0.000823 0.220609 0.813309 -0.613511
H17   H     H_    0.039797 0.279614 0.847874 0.296990
O30   O     O_3   0.995366 0.129038 0.197809 -0.621855
H18   H     H_    0.027211 0.144656 0.258520 0.295973
O31   O     O_3   0.499116 0.721163 0.686503 -0.613520
H19   H     H_    0.460129 0.780036 0.651880 0.296974
O32   O     O_3   0.504602 0.628233 0.302086 -0.621861
H20   H     H_    0.472753 0.643592 0.241358 0.295975

loop_
_geom_bond_atom_site_label_1
_geom_bond_atom_site_label_2
_ccdc_geom_bond_type
C44   H4    S    
O24   H8    S    
O1    C5    A    
O29   H17   S    
O19   V1    S    
C9    C21   A    
C49   C50   S    
O3    C7    A    
O28   H12   S    
C10   C18   A    
C1    C48   S    
C4    C45   S    
O15   V3    S    
C13   H13   S    
O21   H5    S    
C3    C46   S    
C25   C33   A    
C33   C38   A    
O23   H7    S    
O18   V4    S    
C35   C40   A    
O27   H11   S    
C36   C39   A    
C40   C44   A    
O9    V1    S    
C14   C18   A    
O4    C8    A    
O1    V3    S    
O13   V1    S    
C31   C43   A    
O2    V4    S    
O3    V1    S    
C46   C50   T    
C20   O27   S    
C28   C36   A    
C1    O15   A    
C15   C31   A    
C2    O16   A    
C7    C9    S    
O2    C6    A    
C19   O28   S    
O32   H20   S    
C45   C49   T    
C10   C22   A    
C39   O31   S    
C11   C19   A    
C16   C20   A    
C14   H14   S    
C13   C29   A    
C2    C47   S    
C34   C37   A    
O11   C7    A    
C11   C23   A    
C35   C36   A    
O12   C8    A    
C21   O22   S    
O10   V2    S    
O5    V1    S    
C42   H2    S    
C39   C43   A    
O7    V3    S    
C38   C42   A    
C26   C34   A    
C43   H3    S    
O26   H10   S    
C23   C27   A    
C16   C32   A    
C32   C44   A    
C8    C10   S    
C37   O29   S    
C23   O24   S    
O7    C3    A    
C51   C52   S    
O5    C1    A    
C22   O21   S    
C15   H15   S    
O22   H6    S    
C14   C30   A    
C21   C25   A    
O8    C4    A    
O9    C5    A    
C48   C52   T    
C26   C30   A    
O14   V2    S    
O6    V2    S    
C12   C20   A    
C27   C35   A    
C29   C41   A    
C40   O32   S    
C38   O30   S    
O16   V4    S    
C3    O13   A    
C41   H1    S    
C17   O26   S    
O17   V3    S    
C16   H16   S    
C15   C19   A    
O11   V3    S    
C30   C42   A    
O12   V4    S    
C6    C12   S    
O31   H19   S    
C22   C26   A    
C18   O25   S    
C9    C17   A    
O10   C6    A    
O20   V2    S    
C5    C11   S    
C47   C51   T    
C33   C34   A    
O8    V4    S    
C25   C29   A    
C12   C24   A    
C27   C31   A    
C13   C17   A    
O6    C2    A    
C37   C41   A    
C24   C28   A    
C4    O14   A    
O30   H18   S    
C24   O23   S    
O25   H9    S    
O4    V2    S    
C28   C32   A    
