data_mof_unit_21509.cif
_audit_creation_date              2012-12-11T18:44:58-0500
_audit_creation_method            fapswitch 2.2
_symmetry_space_group_name_H-M    P1
_symmetry_Int_Tables_number       1
_space_group_crystal_system       triclinic
_cell_length_a                    8.460686
_cell_length_b                    14.359927
_cell_length_c                    18.709162
_cell_angle_alpha                 97.121456
_cell_angle_beta                  91.426697
_cell_angle_gamma                 92.279631
_cell_volume                      2252.72593822

loop_
_atom_site_label
_atom_site_type_symbol
_atom_type_description
_atom_site_fract_x
_atom_site_fract_y
_atom_site_fract_z
_atom_type_partial_charge
Ba1   Ba    Ba6+2 0.843240 0.541620 0.463500 1.634519
Ba2   Ba    Ba6+2 0.346570 0.458460 0.536510 1.659241
C1    C     C_3   0.692966 0.875502 0.280902 -0.131085
C2    C     C_3   0.646678 0.778940 0.303734 0.361433
C3    C     C_3   0.466917 0.268486 0.319457 0.345302
C4    C     C_3   0.564420 0.335801 0.279510 -0.343827
C5    C     C_3   0.112360 0.276711 0.746708 0.375708
C6    C     C_3   0.153072 0.263017 0.824791 -0.235477
C7    C     C_3   0.624084 0.213321 0.722430 0.347841
C8    C     C_3   0.719469 0.178168 0.784092 -0.236374
C9    C     C_R   0.003941 0.452169 0.049340 0.016256
C10   C     C_R   0.914382 0.408657 0.099303 0.025950
C11   C     C_R   0.761964 0.371327 0.079538 -0.073486
C12   C     C_3   0.081261 0.779222 0.235389 0.323271
C13   C     C_R   0.696855 0.375556 0.010325 0.063972
C14   C     C_R   0.788810 0.415448 0.958351 0.033112
C15   C     C_R   0.941731 0.455049 0.978489 -0.009457
C16   C     C_R   0.731945 0.416167 0.886904 -0.116018
C17   C     C_R   0.824399 0.453621 0.834729 -0.043805
C18   C     C_R   0.973569 0.498255 0.856020 0.006490
C19   C     C_R   0.031702 0.498606 0.928217 0.001696
C20   C     C_R   0.772331 0.446843 0.761638 0.013338
C21   C     C_R   0.870021 0.484610 0.711160 -0.266913
C22   C     C_R   0.013396 0.535041 0.731612 0.009197
C23   C     C_3   0.059292 0.862458 0.185816 -0.046808
C24   C     C_R   0.065211 0.542307 0.805548 -0.058591
C25   C     C_R   0.154779 0.493467 0.070593 0.016334
C26   C     C_R   0.213485 0.493477 0.142622 0.005820
C27   C     C_R   0.119729 0.452424 0.193768 -0.035959
C28   C     C_R   0.974941 0.405847 0.169545 -0.031322
C29   C     C_R   0.207339 0.591053 0.830725 -0.050483
C30   C     C_R   0.267563 0.588491 0.901038 0.018370
C31   C     C_R   0.181141 0.541372 0.949924 -0.000624
C32   C     C_R   0.243389 0.538521 0.020778 -0.009189
C33   C     C_R   0.414928 0.632034 0.922621 -0.068581
C34   C     C_3   0.262618 0.759922 0.653914 0.295694
C35   C     C_R   0.481027 0.627094 0.991452 0.054180
C36   C     C_R   0.394169 0.580867 0.041678 0.027066
C37   C     C_R   0.363615 0.536865 0.163817 -0.047423
C38   C     C_R   0.453597 0.577202 0.112329 -0.111667
C39   C     C_R   0.418153 0.540084 0.236430 0.009003
C40   C     C_R   0.323208 0.500664 0.285916 -0.285760
C41   C     C_R   0.172785 0.460914 0.267441 0.067747
C42   C     C_R   0.696542 0.937629 0.536668 -0.027718
C43   C     C_R   0.518151 0.798129 0.491709 0.034693
C44   C     C_R   0.382687 0.762278 0.449668 -0.211611
C45   C     C_3   0.333916 0.811446 0.724288 -0.360815
C46   C     C_R   0.280682 0.823143 0.419376 0.060815
C47   C     C_R   0.324649 0.918726 0.421496 -0.021367
C48   C     C_R   0.461751 0.956450 0.462348 0.033342
C49   C     C_R   0.559759 0.896591 0.497284 -0.043658
C50   C     C_R   0.636379 0.093483 0.508633 -0.004971
C51   C     C_R   0.736661 0.034768 0.542215 0.028324
C52   C     C_R   0.678149 0.190274 0.510596 0.014183
C53   C     C_R   0.816119 0.227788 0.548186 -0.240056
C54   C     C_R   0.919817 0.170047 0.579914 0.025156
C55   C     C_R   0.878940 0.073554 0.577604 -0.136115
C56   C     C_3   0.942621 0.237170 0.342587 0.291229
C57   C     C_R   0.499258 0.053743 0.471494 -0.020732
C58   C     C_3   0.884989 0.164272 0.279688 -0.385281
C59   C     C_3   0.739692 0.726027 0.683183 0.312393
C60   C     C_3   0.829792 0.804680 0.736552 -0.044530
H1    H     H_    0.734105 0.763276 0.345225 0.109684
H2    H     H_    0.387829 0.761518 0.757112 0.103653
H3    H     H_    0.425421 0.864696 0.712951 0.112852
H4    H     H_    0.241280 0.848589 0.756333 0.111060
H5    H     H_    0.845221 0.281019 0.362975 0.042405
H6    H     H_    0.775462 0.126257 0.293281 0.126108
H7    H     H_    0.976759 0.112215 0.265618 0.103356
H8    H     H_    0.860547 0.198834 0.231013 0.094877
H9    H     H_    0.826382 0.685224 0.650356 0.025741
H10   H     H_    0.935469 0.772894 0.758277 0.091941
H11   H     H_    0.530561 0.780581 0.328798 -0.054298
H12   H     H_    0.377696 0.308989 0.351258 0.070376
H13   H     H_    0.669575 0.301918 0.256420 0.105425
H14   H     H_    0.494949 0.357998 0.234058 0.041986
H15   H     H_    0.601975 0.398385 0.317604 0.141555
H16   H     H_    0.782428 0.864071 0.240982 0.135565
H17   H     H_    0.162983 0.346671 0.737525 0.069238
H18   H     H_    0.981948 0.276342 0.738785 -0.133419
H19   H     H_    0.088313 0.313281 0.861826 0.025510
H20   H     H_    0.281645 0.277072 0.836227 0.110728
H21   H     H_    0.708782 0.239685 0.684512 -0.112834
H22   H     H_    0.781943 0.239064 0.816565 0.103734
H23   H     H_    0.810445 0.130417 0.760840 0.084607
H24   H     H_    0.692110 0.339930 0.118841 0.058984
H25   H     H_    0.829772 0.478718 0.655391 0.072508
H26   H     H_    0.616231 0.385052 0.871453 0.102738
H27   H     H_    0.905270 0.368696 0.205190 0.083650
H28   H     H_    0.274855 0.630093 0.795721 0.100443
H29   H     H_    0.479344 0.670274 0.885535 0.085245
H30   H     H_    0.569860 0.607420 0.127547 0.129849
H31   H     H_    0.370196 0.497245 0.339562 0.045139
H32   H     H_    0.960750 0.028632 0.600644 0.091718
H33   H     H_    0.849912 0.301159 0.547473 0.053326
H34   H     H_    0.776750 0.894477 0.560957 0.105581
H35   H     H_    0.419459 0.100434 0.451460 0.115980
H36   H     H_    0.006640 0.921587 0.219740 0.119722
H37   H     H_    0.346623 0.712541 0.625721 0.049158
O1    O     O_2   0.887710 0.436190 0.327560 -0.483651
O2    O     O_3   0.626045 0.764219 0.640414 -0.665819
O3    O     O_3   0.999803 0.803190 0.301261 -0.639521
O4    O     O_2   0.301980 0.563840 0.672490 -0.460728
O5    O     O_3   0.054330 0.556590 0.583490 -0.475992
O6    O     O_3   0.555270 0.390630 0.635330 -0.456557
O7    O     O_3   0.121139 0.713645 0.668962 -0.669306
O8    O     O_3   0.637720 0.384870 0.467990 -0.478146
O9    O     O_3   0.145220 0.339960 0.601250 -0.479687
O10   O     O_2   0.249817 0.171262 0.565224 -0.432788
O11   O     O_3   0.177062 0.205471 0.699276 -0.581914
O12   O     O_3   0.135370 0.443490 0.416520 -0.482709
O13   O     O_3   0.551980 0.615210 0.532020 -0.500901
O14   O     O_2   0.394410 0.269100 0.474240 -0.452045
O15   O     O_3   0.569423 0.220702 0.361542 -0.662228
O16   O     O_2   0.437556 0.453567 0.758656 -0.458935
O17   O     O_3   0.519859 0.281631 0.750851 -0.605045
O18   O     O_3   0.634420 0.609440 0.364670 -0.509777
O19   O     O_2   0.746193 0.537430 0.242050 -0.456264
O20   O     O_3   0.071279 0.287654 0.319902 -0.665872
O21   O     O_3   0.647154 0.709078 0.243492 -0.619303
O22   O     O_2   0.795290 0.730930 0.525800 -0.460132
O23   O     O_3   0.044470 0.660110 0.398750 -0.465035
O24   O     O_2   0.962962 0.827979 0.440125 -0.463852
P1    P     P_3+3 0.061800 0.409390 0.339760 0.967100
P2    P     P_3+3 0.622760 0.718740 0.547830 0.949491
P3    P     P_3+3 0.077210 0.777925 0.386113 0.950871
P4    P     P_3+3 0.127890 0.590690 0.660240 0.959561
P5    P     P_3+3 0.120362 0.220516 0.611013 1.015357
P6    P     P_3+3 0.609891 0.597877 0.271403 0.936850
P7    P     P_3+3 0.573146 0.265979 0.453281 0.927375
P8    P     P_3+3 0.574098 0.393520 0.728288 0.983791
C61   C     C_1   0.004057 0.188743 0.399772 0.227959
N1    N     N_1   0.058735 0.150438 0.444138 -0.297095
C62   C     C_1   0.656439 0.662742 0.725575 0.170814
N2    N     N_1   0.589386 0.616544 0.761851 -0.298641
C63   C     C_1   0.760762 0.941109 0.340745 0.278506
N3    N     N_1   0.815662 0.993855 0.387033 -0.306173
C64   C     C_3   0.887426 0.887076 0.698338 -0.320436
H38   H     H_    0.939495 0.860268 0.646918 0.137696
H39   H     H_    0.787746 0.931976 0.687604 0.113952
H40   H     H_    0.979081 0.930951 0.732028 0.122476
C65   C     C_3   0.738936 0.843828 0.803541 -0.419676
H41   H     H_    0.631768 0.878929 0.788216 0.134870
H42   H     H_    0.705936 0.787944 0.837064 0.105716
H43   H     H_    0.815487 0.896699 0.838262 0.136574
C66   C     C_3   0.563097 0.922277 0.243998 -0.499899
H44   H     H_    0.474194 0.946979 0.283705 0.129494
H45   H     H_    0.612187 0.984491 0.220709 0.126406
H46   H     H_    0.512000 0.872088 0.198932 0.155100
C67   C     C_3   0.377931 0.195836 0.264616 -0.334432
H47   H     H_    0.462412 0.151313 0.232897 0.103508
H48   H     H_    0.298723 0.150274 0.292724 0.112973
H49   H     H_    0.303428 0.230901 0.227073 0.085810
C68   C     C_3   0.209575 0.909544 0.159956 -0.444113
H50   H     H_    0.179134 0.963259 0.124480 0.133772
H51   H     H_    0.274357 0.949187 0.206414 0.118815
H52   H     H_    0.283061 0.858019 0.128388 0.132593
C69   C     C_1   0.110310 0.167329 0.839597 0.298048
N4    N     N_1   0.076943 0.091874 0.851312 -0.316319
C70   C     C_1   0.530215 0.134282 0.682745 0.323223
N5    N     N_1   0.456093 0.071182 0.652839 -0.281026
C71   C     C_1   0.004059 0.692878 0.197969 0.328259
N6    N     N_1   0.942331 0.627418 0.165426 -0.284830
C72   C     C_3   0.618191 0.126044 0.834502 -0.393278
H53   H     H_    0.512615 0.165922 0.850695 0.147850
H54   H     H_    0.578346 0.055539 0.807408 0.121249
H55   H     H_    0.689417 0.116573 0.883530 0.130644
C73   C     C_3   0.529289 0.337614 0.993850 -0.414519
H56   H     H_    0.472310 0.315120 0.042132 0.112989
H57   H     H_    0.456555 0.392448 0.974386 0.123930
H58   H     H_    0.528973 0.276006 0.952003 0.111866
C74   C     C_3   0.642397 0.673374 0.010160 -0.411679
H59   H     H_    0.693580 0.704875 0.964108 0.112542
H60   H     H_    0.632397 0.730332 0.055367 0.119097
H61   H     H_    0.725370 0.620847 0.025733 0.137408
C75   C     C_3   0.254576 0.757054 0.246221 -0.383372
H62   H     H_    0.316422 0.818376 0.276157 0.093902
H63   H     H_    0.265340 0.696634 0.276707 0.043916
H64   H     H_    0.312254 0.738441 0.194088 0.096896
C76   C     C_3   0.338458 0.659305 0.437046 -0.238748
H65   H     H_    0.429487 0.609838 0.432273 0.158352
H66   H     H_    0.255597 0.639389 0.478251 0.133284
H67   H     H_    0.297497 0.642725 0.380938 0.037546
C77   C     C_3   0.218356 0.977575 0.381200 -0.360859
H68   H     H_    0.186826 0.942023 0.327029 0.099485
H69   H     H_    0.109057 0.986962 0.411438 0.190556
H70   H     H_    0.270309 0.045098 0.369905 0.095543
C78   C     C_3   0.946851 0.838221 0.118583 -0.439437
H71   H     H_    0.002949 0.788919 0.077158 0.135744
H72   H     H_    0.832604 0.805523 0.131992 0.132542
H73   H     H_    0.919216 0.902818 0.094438 0.126002
C79   C     C_1   0.224536 0.831267 0.607362 0.202037
N7    N     N_1   0.193398 0.889230 0.572285 -0.295464

loop_
_geom_bond_atom_site_label_1
_geom_bond_atom_site_label_2
_ccdc_geom_bond_type
C36   C38   A    
C53   C54   A    
C8    H23   S    
O23   P3    S    
C3    O15   S    
C40   H31   S    
C39   C40   A    
C17   C18   A    
C6    C69   S    
C35   C74   S    
C5    C6    S    
C37   C39   A    
O16   P8    D    
C43   C44   A    
C54   C55   A    
C10   C11   A    
O5    P4    S    
C2    H1    S    
Ba2   O13   S    
C35   C36   A    
C5    H18   S    
C78   H73   S    
C6    H20   S    
C48   C57   A    
C58   H7    S    
C26   C27   A    
C50   C57   A    
C22   C24   A    
C16   C17   A    
C28   H27   S    
Ba1   O13   S    
C3    C4    S    
C20   P8    S    
Ba2   O14   S    
C12   O3    S    
C19   C31   A    
C43   C49   A    
C56   C58   S    
C13   C14   A    
C66   H46   S    
Ba2   O8    S    
C77   H68   S    
C34   C45   S    
C78   H72   S    
C1    C63   S    
C8    H22   S    
C3    H12   S    
Ba1   O23   S    
C12   C75   S    
C73   H56   S    
C42   C51   A    
C75   H64   S    
C9    C15   A    
C56   C61   S    
C14   C15   A    
C67   H49   S    
C11   H24   S    
C22   P4    S    
O2    P2    S    
C21   C22   A    
C9    C25   A    
O18   P6    S    
C7    C8    S    
C45   H4    S    
C68   H51   S    
C76   H67   S    
C10   C28   A    
Ba2   P4    S    
C59   H9    S    
C73   H57   S    
O12   P1    S    
C24   C29   A    
C34   C79   S    
C27   C41   A    
O15   P7    S    
C65   H43   S    
C60   C65   S    
O8    P7    S    
Ba1   O1    S    
Ba2   O9    S    
C74   H60   S    
C59   C62   S    
C48   C49   A    
C66   H45   S    
C73   H58   S    
C25   C32   A    
C52   P7    S    
C44   C46   A    
Ba2   O12   S    
O14   P7    D    
C34   O7    S    
O21   P6    S    
C30   C33   A    
C44   C76   S    
C4    H13   S    
C17   C20   A    
C68   H52   S    
O6    P8    S    
C43   P2    S    
C45   H2    S    
C51   C55   A    
C61   N1    T    
C4    H15   S    
C7    C70   S    
O3    P3    S    
O20   P1    S    
O7    P4    S    
C60   C64   S    
C3    C67   S    
C6    H19   S    
C78   H71   S    
O1    P1    D    
C12   C71   S    
C59   O2    S    
C15   C19   A    
O22   P2    D    
C27   C28   A    
C42   H34   S    
C23   C78   S    
C47   C77   S    
C56   H5    S    
O10   P5    D    
C29   C30   A    
C58   H8    S    
C29   H28   S    
C31   C32   A    
C68   H50   S    
C50   C52   A    
Ba1   O18   S    
C38   H30   S    
Ba1   O5    S    
C2    H11   S    
C64   H39   S    
C7    H21   S    
C77   H70   S    
C42   C49   A    
C53   H33   S    
C75   H62   S    
Ba1   O8    S    
Ba2   O5    S    
C55   H32   S    
C11   C13   A    
C69   N4    T    
C57   H35   S    
C65   H42   S    
C13   C73   S    
C40   C41   A    
C1    C2    S    
C37   C38   A    
O4    P4    D    
C50   C51   A    
C5    H17   S    
C66   H44   S    
C52   C53   A    
C72   H53   S    
C8    C72   S    
C76   H66   S    
C33   C35   A    
C23   C68   S    
C32   C36   A    
C7    O17   S    
C72   H55   S    
Ba1   P2    S    
C63   N3    T    
O24   P3    D    
C64   H40   S    
C9    C10   A    
C74   H61   S    
C4    H14   S    
C62   N2    T    
C71   N6    T    
Ba2   O6    S    
C26   C37   A    
C5    O11   S    
C60   H10   S    
C79   N7    T    
C72   H54   S    
Ba1   P1    S    
O19   P6    D    
C30   C31   A    
C39   P6    S    
O17   P8    S    
C18   C24   A    
Ba2   O4    S    
C46   C47   A    
Ba1   Ba2   S    
C75   H63   S    
C56   O20   S    
C77   H69   S    
C34   H37   S    
C67   H48   S    
C54   P5    S    
C12   C23   S    
C59   C60   S    
C70   N5    T    
Ba1   O22   S    
C16   H26   S    
C64   H38   S    
C46   P3    S    
C74   H59   S    
C23   H36   S    
C18   C19   A    
C58   H6    S    
C1    C66   S    
C14   C16   A    
C47   C48   A    
C25   C26   A    
C65   H41   S    
C20   C21   A    
C2    O21   S    
C21   H25   S    
O9    P5    S    
O13   P2    S    
C1    H16   S    
C41   P1    S    
C45   H3    S    
Ba1   O12   S    
C76   H65   S    
O11   P5    S    
C67   H47   S    
C33   H29   S    
