data_mof_unit_21825.cif
_audit_creation_date              2012-12-11T16:26:25-0500
_audit_creation_method            fapswitch 2.2
_symmetry_space_group_name_H-M    P1
_symmetry_Int_Tables_number       1
_space_group_crystal_system       triclinic
_cell_length_a                    14.015275
_cell_length_b                    14.012901
_cell_length_c                    31.835027
_cell_angle_alpha                 89.96327
_cell_angle_beta                  90.013166
_cell_angle_gamma                 119.990022
_cell_volume                      5415.13262178

loop_
_atom_site_label
_atom_site_type_symbol
_atom_type_description
_atom_site_fract_x
_atom_site_fract_y
_atom_site_fract_z
_atom_type_partial_charge
C1    C     C_R   0.567492 0.444001 0.810484 0.546036
C2    C     C_R   0.443825 0.568041 0.189310 0.542374
C3    C     C_3   0.835336 0.267466 0.433382 -0.130716
C4    C     C_3   0.379102 0.117782 0.066449 -0.104910
C5    C     C_3   0.732136 0.566997 0.433443 -0.130748
C6    C     C_3   0.336386 0.086643 0.552369 -0.104571
C7    C     C_3   0.172271 0.437404 0.931425 -0.130541
C8    C     C_3   0.750085 0.663726 0.552362 -0.104572
C9    C     C_3   0.266352 0.829745 0.930909 -0.110830
C10   C     C_3   0.913630 0.249944 0.552438 -0.104540
C11   C     C_3   0.566247 0.730209 0.933812 -0.129274
C12   C     C_R   0.432529 0.876611 0.310453 0.545581
C13   C     C_R   0.124780 0.556494 0.189171 0.543151
C14   C     C_1   0.026481 0.536787 0.015944 0.031192
C15   C     C_1   0.530767 0.011677 0.479375 0.019108
C16   C     C_1   0.467714 0.481890 0.017355 0.014582
C17   C     C_1   0.988197 0.519056 0.479359 0.019138
C18   C     C_1   0.512728 0.982551 0.017031 0.026133
C19   C     C_1   0.480864 0.469202 0.479392 0.019079
C20   C     C_1   0.532899 0.017373 0.516972 0.025738
C21   C     C_R   0.875665 0.431905 0.689273 0.542441
C22   C     C_1   0.019849 0.534194 0.978376 0.021273
C23   C     C_1   0.484384 0.467164 0.516990 0.025737
C24   C     C_1   0.516314 0.987839 0.979421 0.017906
C25   C     C_1   0.982575 0.515565 0.516957 0.025710
C26   C     C_1   0.469861 0.478505 0.979753 0.012586
C27   C     C_R   0.936462 0.474203 0.850380 -0.030194
C28   C     C_R   0.541010 0.072996 0.647575 -0.024510
C29   C     C_R   0.526632 0.460769 0.850904 -0.030441
C30   C     C_R   0.927087 0.468123 0.647576 -0.024529
C31   C     C_R   0.538489 0.065003 0.850737 -0.029679
C32   C     C_R   0.555900 0.123349 0.810448 0.546080
C33   C     C_R   0.531925 0.459114 0.647590 -0.024552
C34   C     C_R   0.473518 0.934900 0.350738 -0.030281
C35   C     C_R   0.076001 0.542888 0.147044 -0.027518
C36   C     C_R   0.461396 0.526370 0.350737 -0.030356
C37   C     C_R   0.468032 0.927888 0.147689 -0.024579
C38   C     C_R   0.064998 0.538517 0.350730 -0.030200
C39   C     C_R   0.459366 0.531339 0.147767 -0.024308
C40   C     C_R   0.934675 0.561975 0.871055 -0.142792
C41   C     C_R   0.629926 0.071806 0.627598 -0.145570
C42   C     C_R   0.439298 0.370379 0.871459 -0.142119
C43   C     C_R   0.568129 0.443807 0.689277 0.542517
C44   C     C_R   0.928199 0.558207 0.627568 -0.145589
C45   C     C_R   0.628750 0.069259 0.871828 -0.142215
C46   C     C_R   0.441761 0.370231 0.627638 -0.145559
C47   C     C_R   0.561327 0.932806 0.371296 -0.142359
C48   C     C_R   0.080837 0.634180 0.126519 -0.139792
C49   C     C_R   0.371508 0.438546 0.371294 -0.142546
C50   C     C_R   0.557696 0.928842 0.127458 -0.145831
C51   C     C_R   0.066826 0.628346 0.371220 -0.142271
C52   C     C_R   0.370991 0.440202 0.128026 -0.150666
C53   C     C_R   0.969072 0.586306 0.912649 -0.175113
C54   C     C_R   0.876796 0.432593 0.810397 0.546148
C55   C     C_R   0.624700 0.047695 0.584912 -0.171670
C56   C     C_R   0.416271 0.378490 0.913414 -0.177963
C57   C     C_R   0.952297 0.577094 0.584872 -0.171645
C58   C     C_R   0.619205 0.037012 0.913708 -0.175532
C59   C     C_R   0.422841 0.375464 0.584950 -0.171639
C60   C     C_R   0.584634 0.964894 0.413159 -0.173815
C61   C     C_R   0.060252 0.630405 0.083575 -0.159460
C62   C     C_R   0.380281 0.415231 0.413168 -0.173839
C63   C     C_R   0.575521 0.952386 0.084690 -0.172261
C64   C     C_R   0.034706 0.619567 0.413081 -0.173817
C65   C     C_R   0.556234 0.124371 0.689272 0.542497
C66   C     C_R   0.376391 0.420495 0.085424 -0.188977
C67   C     C_R   0.007325 0.524606 0.933746 0.026754
C68   C     C_R   0.531276 0.025446 0.561722 0.048879
C69   C     C_R   0.478773 0.477344 0.935025 0.028986
C70   C     C_R   0.974600 0.505935 0.561710 0.048877
C71   C     C_R   0.519110 0.998475 0.934691 0.026922
C72   C     C_R   0.494034 0.468867 0.561739 0.048923
C73   C     C_R   0.521824 0.001098 0.434665 0.029499
C74   C     C_R   0.034402 0.535524 0.060702 0.043506
C75   C     C_R   0.479272 0.478040 0.434679 0.029406
C76   C     C_R   0.444086 0.567437 0.310452 0.545754
C77   C     C_R   0.504511 0.975627 0.061834 0.045821
C78   C     C_R   0.998731 0.520626 0.434651 0.029476
C79   C     C_R   0.469461 0.491919 0.062095 0.043058
C80   C     C_R   0.020276 0.444180 0.912232 0.292690
C81   C     C_R   0.439378 0.020067 0.581605 0.295579
C82   C     C_R   0.558583 0.571668 0.913742 0.294893
C83   C     C_R   0.980096 0.419467 0.581627 0.295577
C84   C     C_R   0.425190 0.982819 0.912824 0.289065
C85   C     C_R   0.580571 0.560769 0.581599 0.295589
C86   C     C_R   0.441441 0.014583 0.413342 0.294067
C87   C     C_R   0.431813 0.875676 0.189272 0.542706
C88   C     C_R   0.023597 0.441676 0.081025 0.292396
C89   C     C_R   0.573139 0.558391 0.413355 0.293987
C90   C     C_R   0.421213 0.985489 0.082325 0.286384
C91   C     C_R   0.985484 0.426803 0.413396 0.294032
C92   C     C_R   0.560893 0.579448 0.081780 0.295010
C93   C     C_R   0.982869 0.418007 0.870794 -0.105216
C94   C     C_R   0.443828 0.041555 0.624771 -0.109808
C95   C     C_R   0.583550 0.562360 0.871909 -0.106344
C96   C     C_R   0.958631 0.402435 0.624799 -0.109780
C97   C     C_R   0.435821 0.018082 0.871074 -0.108129
C98   C     C_R   0.123362 0.555887 0.310452 0.546313
C99   C     C_R   0.597653 0.556309 0.624768 -0.109842
C100  C     C_R   0.416322 0.979501 0.371610 -0.105898
C101  C     C_R   0.042362 0.445116 0.124391 -0.110441
C102  C     C_R   0.563183 0.583526 0.371612 -0.105751
C103  C     C_R   0.402410 0.960094 0.125152 -0.113469
C104  C     C_R   0.020596 0.436765 0.371663 -0.105866
C105  C     C_R   0.556305 0.597265 0.124865 -0.111019
C106  C     C_3   0.086432 0.335410 0.052070 -0.104666
C107  C     C_3   0.432727 0.164975 0.433328 -0.130721
C108  C     C_3   0.662279 0.748781 0.052154 -0.100496
Cr1   Cr    Cr6+3 0.504240 0.249200 0.750000 1.013910
Cr2   Cr    Cr6+3 0.744960 0.495760 0.750000 1.014163
Cr3   Cr    Cr6+3 0.750800 0.255040 0.750000 1.014011
Cr4   Cr    Cr6+3 0.249200 0.504240 0.250000 1.012147
Cr5   Cr    Cr6+3 0.495760 0.744960 0.250000 1.013244
Cr6   Cr    Cr6+3 0.255040 0.750800 0.250000 1.013686
H1    H     H_    0.899782 0.607085 0.856131 0.150674
H2    H     H_    0.609874 0.904652 0.143957 0.138377
H3    H     H_    0.100149 0.707714 0.355903 0.150033
H4    H     H_    0.295359 0.387585 0.144862 0.137469
H5    H     H_    0.068941 0.703026 0.067909 0.140587
H6    H     H_    0.647469 0.955551 0.429389 0.131639
H7    H     H_    0.306199 0.352448 0.070253 0.095313
H8    H     H_    0.043862 0.691706 0.429262 0.131596
H9    H     H_    0.641583 0.947621 0.069027 0.106156
H10   H     H_    0.308109 0.352419 0.429403 0.131673
H11   H     H_    0.695184 0.050855 0.569584 0.107459
H12   H     H_    0.705792 0.095269 0.644333 0.138993
H13   H     H_    0.959932 0.649030 0.929046 0.134670
H14   H     H_    0.355498 0.304988 0.569637 0.107517
H15   H     H_    0.691493 0.048053 0.930362 0.131493
H16   H     H_    0.949067 0.644389 0.569517 0.107445
H17   H     H_    0.353845 0.305966 0.929606 0.127223
H18   H     H_    0.036351 0.373278 0.139715 0.135250
H19   H     H_    0.348634 0.982322 0.356396 0.141738
H20   H     H_    0.626307 0.666317 0.139688 0.135221
H21   H     H_    0.017977 0.366312 0.356500 0.141838
H22   H     H_    0.332456 0.959388 0.139936 0.136539
H23   H     H_    0.393584 0.291085 0.856104 0.150916
H24   H     H_    0.633682 0.651214 0.356393 0.142004
H25   H     H_    0.373452 0.039469 0.639763 0.135517
H26   H     H_    0.985484 0.350364 0.855463 0.142609
H27   H     H_    0.665971 0.626667 0.639745 0.135473
H28   H     H_    0.365008 0.013474 0.855416 0.141841
H29   H     H_    0.960788 0.334169 0.639817 0.135539
H30   H     H_    0.650855 0.633218 0.856701 0.142220
H31   H     H_    0.154450 0.409868 0.036696 0.116461
H32   H     H_    0.063693 0.264566 0.030794 0.160539
H33   H     H_    0.115139 0.317848 0.082122 0.095552
H34   H     H_    0.904665 0.610573 0.644284 0.138949
H35   H     H_    0.443572 0.196016 0.400467 0.112808
H36   H     H_    0.513809 0.201790 0.449599 0.098865
H37   H     H_    0.381806 0.192995 0.450155 0.136113
H38   H     H_    0.585658 0.739499 0.037692 0.112874
H39   H     H_    0.730836 0.797205 0.029970 0.164485
H40   H     H_    0.681290 0.796318 0.081911 0.096052
H41   H     H_    0.798152 0.311640 0.449485 0.098746
H42   H     H_    0.807485 0.188678 0.450338 0.136046
H43   H     H_    0.804532 0.246966 0.400504 0.113047
H44   H     H_    0.465822 0.175391 0.056859 0.132604
H45   H     H_    0.708845 0.104617 0.856980 0.150823
H46   H     H_    0.366099 0.132085 0.099817 0.104468
H47   H     H_    0.325150 0.136694 0.046859 0.148811
H48   H     H_    0.687826 0.485946 0.449760 0.098846
H49   H     H_    0.811065 0.617913 0.450273 0.136065
H50   H     H_    0.752316 0.556046 0.400607 0.113024
H51   H     H_    0.412483 0.154548 0.537826 0.109687
H52   H     H_    0.317319 0.114600 0.582258 0.096097
H53   H     H_    0.267380 0.065968 0.530353 0.163126
H54   H     H_    0.208766 0.518504 0.947658 0.100458
H55   H     H_    0.202451 0.448459 0.898441 0.114177
H56   H     H_    0.389352 0.294365 0.644392 0.139012
H57   H     H_    0.201536 0.387198 0.948042 0.136915
H58   H     H_    0.741872 0.587588 0.537866 0.109743
H59   H     H_    0.797131 0.682834 0.582254 0.096079
H60   H     H_    0.798385 0.732707 0.530317 0.163156
H61   H     H_    0.311216 0.792512 0.946466 0.103894
H62   H     H_    0.247180 0.801480 0.897712 0.105512
H63   H     H_    0.186923 0.799323 0.947652 0.152891
H64   H     H_    0.845765 0.258163 0.537868 0.109787
H65   H     H_    0.885609 0.202906 0.582341 0.096052
H66   H     H_    0.934365 0.201616 0.530454 0.163124
H67   H     H_    0.607240 0.899310 0.356031 0.150095
H68   H     H_    0.485109 0.685499 0.950031 0.100972
H69   H     H_    0.555389 0.750417 0.900955 0.112751
H70   H     H_    0.616754 0.809152 0.950684 0.136480
H71   H     H_    0.106704 0.710800 0.143061 0.147954
H72   H     H_    0.292111 0.392655 0.356022 0.149946
O1    O     O_R   0.480350 0.140770 0.796330 -0.516934
O2    O     O_R   0.140770 0.480350 0.203670 -0.519985
O3    O     O_R   0.519650 0.660420 0.296330 -0.517263
O4    O     O_R   0.339580 0.859230 0.203670 -0.520790
O5    O     O_R   0.514930 0.348530 0.793250 -0.496433
O6    O     O_R   0.833600 0.485070 0.706750 -0.498195
O7    O     O_R   0.651470 0.166400 0.793250 -0.496313
O8    O     O_R   0.514930 0.348530 0.706750 -0.498149
O9    O     O_R   0.833600 0.485070 0.793250 -0.496181
O10   O     O_R   0.651470 0.166400 0.706750 -0.498154
O11   O     O_R   0.348530 0.514930 0.293250 -0.496779
O12   O     O_R   0.660420 0.519650 0.703670 -0.520149
O13   O     O_R   0.485070 0.833600 0.206750 -0.497920
O14   O     O_R   0.166400 0.651470 0.293250 -0.496225
O15   O     O_R   0.348530 0.514930 0.206750 -0.498454
O16   O     O_R   0.485070 0.833600 0.293250 -0.496441
O17   O     O_R   0.166400 0.651470 0.206750 -0.497988
O18   O     O_3   0.666667 0.333333 0.750000 -0.230179
O19   O     O_3   0.333333 0.666667 0.250000 -0.229106
O20   O     O_3   0.992740 0.346238 0.058466 -0.545915
O21   O     O_3   0.377694 0.048885 0.434434 -0.550531
O22   O     O_3   0.655133 0.645924 0.058835 -0.542706
O23   O     O_R   0.859230 0.339580 0.796330 -0.517327
O24   O     O_3   0.951400 0.328836 0.434562 -0.550537
O25   O     O_3   0.350156 0.007153 0.059537 -0.552267
O26   O     O_3   0.671168 0.622128 0.434455 -0.550596
O27   O     O_3   0.344775 0.991546 0.558794 -0.541522
O28   O     O_3   0.056204 0.381232 0.932961 -0.552673
O29   O     O_3   0.646636 0.655369 0.558761 -0.541558
O30   O     O_3   0.325999 0.945711 0.933393 -0.544884
O31   O     O_3   0.008682 0.353410 0.558842 -0.541519
O32   O     O_3   0.621816 0.669662 0.934922 -0.549697
O33   O     O_R   0.480350 0.140770 0.703670 -0.520217
O34   O     O_R   0.660420 0.519650 0.796330 -0.516705
O35   O     O_R   0.859230 0.339580 0.703670 -0.520235
O36   O     O_R   0.140770 0.480350 0.296330 -0.517462
O37   O     O_R   0.519650 0.660420 0.203670 -0.520211
O38   O     O_R   0.339580 0.859230 0.296330 -0.517888

loop_
_geom_bond_atom_site_label_1
_geom_bond_atom_site_label_2
_ccdc_geom_bond_type
C7    H54   S    
C6    H52   S    
Cr6   O4    S    
C104  H21   S    
C7    H57   S    
C29   C42   A    
C61   H5    S    
C28   C41   A    
C45   H45   S    
C87   O13   A    
C91   C104  A    
C108  O22   S    
C8    O29   S    
C62   H10   S    
C88   C101  A    
C27   C54   S    
C9    H63   S    
Cr1   O1    S    
C66   C79   A    
C11   H68   S    
C106  H31   S    
C21   O35   A    
C43   O8    A    
C12   O38   A    
C10   H65   S    
C5    H49   S    
C28   C94   A    
Cr4   O19   S    
C13   C35   S    
C47   H67   S    
C85   O29   S    
Cr3   O35   S    
C90   O25   S    
C83   O31   S    
C8    H60   S    
C58   C71   A    
C40   H1    S    
Cr2   O12   S    
C58   H15   S    
C60   C73   A    
C9    H62   S    
C36   C102  A    
C102  H24   S    
Cr2   O6    S    
C2    O37   A    
C38   C104  A    
C69   C82   A    
C36   C76   S    
C42   C56   A    
C47   C60   A    
C108  H38   S    
C107  H36   S    
C2    C39   S    
C54   O23   A    
C41   C55   A    
C108  H39   S    
C55   H11   S    
C56   H17   S    
C67   C80   A    
C30   C96   A    
C9    H61   S    
C76   O3    A    
C12   O16   A    
C57   C70   A    
C43   O12   A    
C13   O17   A    
Cr2   O34   S    
C27   C40   A    
C107  O21   S    
C38   C98   S    
C59   C72   A    
C49   H72   S    
C65   O10   A    
C107  H37   S    
C3    O24   S    
C31   C97   A    
C39   C52   A    
C6    H51   S    
C95   H30   S    
C13   O2    A    
Cr6   O14   S    
C42   H23   S    
C94   H25   S    
C30   C44   A    
C2    O15   A    
Cr4   O36   S    
Cr4   O15   S    
C91   O24   S    
C35   C48   A    
C41   H12   S    
C1    C29   S    
Cr1   O33   S    
C20   C68   S    
C72   C85   A    
C89   O26   S    
C50   C63   A    
C9    O30   S    
C16   C26   T    
C15   C20   T    
C97   H28   S    
C81   O27   S    
C77   C90   A    
C74   C88   A    
C11   H70   S    
C10   H64   S    
C5    H50   S    
C57   H16   S    
C11   H69   S    
C65   O33   A    
C55   C68   A    
C8    H59   S    
C21   O6    A    
C80   O28   S    
C38   C51   A    
C59   H14   S    
C84   C97   A    
C106  H33   S    
C46   H56   S    
C22   C67   S    
C33   C99   A    
Cr5   O19   S    
C86   O21   S    
C19   C23   T    
C103  H22   S    
Cr3   O23   S    
Cr4   O2    S    
C85   C99   A    
C34   C100  A    
C31   C32   S    
C82   O32   S    
C44   C57   A    
C54   O9    A    
C90   C103  A    
C89   C102  A    
C3    H41   S    
Cr5   O13   S    
C66   H7    S    
C108  H40   S    
Cr1   O8    S    
Cr5   O16   S    
C78   C91   A    
C70   C83   A    
C4    O25   S    
C11   O32   S    
C79   C92   A    
C86   C100  A    
Cr3   O7    S    
C87   O4    A    
Cr5   O37   S    
C1    O5    A    
C15   C73   S    
C40   C53   A    
C7    H55   S    
C61   C74   A    
C18   C24   T    
C62   C75   A    
C27   C93   A    
C68   C81   A    
C12   C34   S    
C45   C58   A    
C14   C74   S    
Cr4   O11   S    
C52   C66   A    
C100  H19   S    
C29   C95   A    
C71   C84   A    
C63   C77   A    
C39   C105  A    
C5    O26   S    
C6    H53   S    
Cr2   O18   S    
C82   C95   A    
C32   O1    A    
C4    H47   S    
C64   C78   A    
C23   C72   S    
C99   H27   S    
Cr1   O18   S    
C37   C87   S    
C51   C64   A    
C88   O20   S    
C32   O7    A    
C35   C101  A    
Cr3   O18   S    
C106  O20   S    
C63   H9    S    
C25   C70   S    
C92   O22   S    
Cr5   O3    S    
C21   C30   S    
Cr3   O10   S    
C33   C46   A    
C106  H32   S    
Cr6   O19   S    
C98   O14   A    
C76   O11   A    
C16   C79   S    
C17   C25   T    
C5    H48   S    
C14   C22   T    
C19   C75   S    
C28   C65   S    
C10   H66   S    
C48   H71   S    
C93   H26   S    
C26   C69   S    
C96   H29   S    
C81   C94   A    
C53   H13   S    
C48   C61   A    
C4    H46   S    
C6    O27   S    
Cr1   O5    S    
C18   C77   S    
C64   H8    S    
C83   C96   A    
C98   O36   A    
C37   C50   A    
C17   C78   S    
C44   H34   S    
C60   H6    S    
C1    O34   A    
C50   H2    S    
C37   C103  A    
C53   C67   A    
C73   C86   A    
C7    O28   S    
C75   C89   A    
C107  H35   S    
C101  H18   S    
C8    H58   S    
C92   C105  A    
C3    H42   S    
C10   O31   S    
C46   C59   A    
C56   C69   A    
C31   C45   A    
Cr2   O9    S    
C3    H43   S    
C51   H3    S    
Cr6   O17   S    
C49   C62   A    
C34   C47   A    
Cr6   O38   S    
C80   C93   A    
C33   C43   S    
C36   C49   A    
C84   O30   S    
C24   C71   S    
C4    H44   S    
C105  H20   S    
C52   H4    S    
