data_mof_unit_48060.cif
_audit_creation_date              2012-12-10T18:33:42-0500
_audit_creation_method            fapswitch 2.2
_symmetry_space_group_name_H-M    P1
_symmetry_Int_Tables_number       1
_space_group_crystal_system       triclinic
_cell_length_a                    10.550117
_cell_length_b                    14.966184
_cell_length_c                    15.526604
_cell_angle_alpha                 81.244969
_cell_angle_beta                  89.073314
_cell_angle_gamma                 104.287138
_cell_volume                      2344.3684013

loop_
_atom_site_label
_atom_site_type_symbol
_atom_type_description
_atom_site_fract_x
_atom_site_fract_y
_atom_site_fract_z
_atom_type_partial_charge
C1    C     C_R   0.483029 0.440833 0.661940 0.960283
C2    C     C_R   0.516965 0.559167 0.338060 0.960320
C3    C     C_R   0.442564 0.454763 0.814220 0.265066
C4    C     C_R   0.557470 0.545262 0.185780 0.265057
C5    C     C_R   0.482488 0.443158 0.900188 -0.000790
C6    C     C_R   0.517562 0.556869 0.099809 -0.000775
C7    C     C_R   0.517218 0.359191 0.932272 0.040111
C8    C     C_R   0.482803 0.640828 0.067728 0.040105
C9    C     C_R   0.489620 0.511588 0.955128 0.094338
C10   C     C_R   0.510449 0.488445 0.044868 0.094344
C11   C     C_R   0.515582 0.396104 0.077593 -0.132353
C12   C     C_R   0.484487 0.603929 0.922403 -0.132355
C13   C     C_R   0.527621 0.334547 0.021470 -0.154943
C14   C     C_R   0.472420 0.665477 0.978529 -0.154924
C15   C     C_R   0.705155 0.843521 0.629134 -0.183856
C16   C     C_R   0.294813 0.156464 0.370891 -0.183841
C17   C     C_R   0.665513 0.752841 0.611786 0.028589
C18   C     C_R   0.334470 0.247151 0.388226 0.028562
C19   C     C_R   0.513218 0.794759 0.513088 0.104169
C20   C     C_R   0.486777 0.205241 0.486916 0.104201
C21   C     C_R   0.540119 0.885468 0.533988 -0.041184
C22   C     C_R   0.459861 0.114524 0.466031 -0.041183
C23   C     C_R   0.741987 0.500472 0.500441 0.994887
C24   C     C_R   0.258014 0.499530 0.499556 0.994916
C25   C     C_R   0.646683 0.911831 0.587082 0.039413
C26   C     C_R   0.353289 0.088157 0.412943 0.039405
C27   C     C_R   0.471675 0.951923 0.498520 -0.090980
C28   C     C_R   0.528300 0.048067 0.501504 -0.090961
C29   C     C_R   0.651228 0.074125 0.539524 0.277090
C30   C     C_R   0.348745 0.925862 0.460504 0.277076
C31   C     C_R   0.700312 0.006242 0.591560 0.422734
C32   C     C_R   0.299659 0.993744 0.408469 0.422729
C33   C     C_3   0.927405 0.417903 0.547166 -0.334011
C34   C     C_3   0.072599 0.582101 0.452828 -0.333957
C35   C     C_3   0.037218 0.490773 0.581037 0.328508
C36   C     C_3   0.962786 0.509231 0.418957 0.328537
C37   C     C_3   0.123322 0.499259 0.498563 -0.198018
C38   C     C_3   0.876681 0.500745 0.501431 -0.198029
C39   C     C_3   0.014453 0.428306 0.463544 0.420480
C40   C     C_3   0.985551 0.571700 0.536450 0.420482
C41   C     C_R   0.480716 0.403562 0.754755 -0.214522
C42   C     C_R   0.519270 0.596439 0.245248 -0.214529
C43   C     C_R   0.538653 0.300256 0.874827 -0.202581
C44   C     C_R   0.461303 0.699737 0.125181 -0.202558
C45   C     C_R   0.529623 0.325462 0.785418 0.346496
C46   C     C_R   0.470309 0.674516 0.214591 0.346470
H1    H     H_    0.550873 0.225927 0.537484 0.209335
H2    H     H_    0.449124 0.774079 0.462518 0.209322
H3    H     H_    0.288387 0.300019 0.357676 0.167416
H4    H     H_    0.711589 0.699969 0.642335 0.167404
H5    H     H_    0.784054 0.860308 0.672368 0.213065
H6    H     H_    0.215899 0.139671 0.327666 0.213074
H7    H     H_    0.866666 0.352577 0.586167 0.249292
H8    H     H_    0.133340 0.647428 0.413827 0.249329
H9    H     H_    0.542471 0.266842 0.048098 0.163962
H10   H     H_    0.457553 0.733179 0.951904 0.163965
H11   H     H_    0.569833 0.237632 0.898861 0.191133
H12   H     H_    0.430083 0.762348 0.101151 0.191132
H13   H     H_    0.510337 0.370032 0.146598 0.193395
H14   H     H_    0.489738 0.630001 0.853399 0.193388
N1    N     N_R   0.574200 0.731700 0.552740 -0.120914
N2    N     N_R   0.425800 0.268300 0.447260 -0.120922
O1    O     O_R   0.462600 0.383110 0.605620 -0.581950
O2    O     O_R   0.537400 0.616890 0.394380 -0.581967
O3    O     O_R   0.510210 0.531900 0.639510 -0.603344
O4    O     O_R   0.489790 0.468100 0.360490 -0.603346
O5    O     O_R   0.662240 0.425610 0.483080 -0.586133
O6    O     O_R   0.337760 0.574390 0.516920 -0.586112
O7    O     O_R   0.709860 0.574400 0.516970 -0.594945
O8    O     O_R   0.290140 0.425600 0.483030 -0.594947
Zn1   Zn    Zn3+2 0.468210 0.400660 0.477370 1.046607
Zn2   Zn    Zn3+2 0.531790 0.599340 0.522630 1.046610
O9    O     O_3   0.081472 0.482595 0.665438 -0.664941
H15   H     H_    0.003896 0.477614 0.704445 0.358841
O10   O     O_3   0.918535 0.517410 0.334556 -0.664923
H16   H     H_    0.996113 0.522392 0.295550 0.358857
Cl1   Cl    Cl    0.763134 0.183891 0.504115 -0.608742
Cl2   Cl    Cl    0.236849 0.816091 0.495917 -0.608721
O11   O     O_3   0.035317 0.355038 0.423669 -0.700188
H17   H     H_    0.955652 0.334351 0.391642 0.390111
O12   O     O_3   0.964684 0.644970 0.576321 -0.700162
H18   H     H_    0.044346 0.665655 0.608356 0.390113
Cl3   Cl    Cl    0.681014 0.486053 0.214995 -0.533402
Cl4   Cl    Cl    0.319036 0.513987 0.785010 -0.533405
Cl5   Cl    Cl    0.416090 0.741480 0.284462 -0.626027
Cl6   Cl    Cl    0.583718 0.258434 0.715558 -0.625968
O13   O     O_3   0.809264 0.030559 0.639588 -0.722546
H19   H     H_    0.820277 0.095558 0.650252 0.390891
O14   O     O_3   0.190714 0.969424 0.360436 -0.722553
H20   H     H_    0.179700 0.904421 0.349781 0.390899

loop_
_geom_bond_atom_site_label_1
_geom_bond_atom_site_label_2
_ccdc_geom_bond_type
C25   C31   A    
C14   H10   S    
O13   H19   S    
C26   C32   A    
C34   C37   S    
O9    H15   S    
C23   O7    A    
O12   H18   S    
C24   O8    A    
C33   C39   S    
C34   C40   S    
C30   Cl2   S    
C28   C29   A    
C19   C21   A    
C2    C42   S    
C15   C25   A    
C42   C46   A    
C23   O5    A    
C17   N1    A    
C35   O9    S    
C32   O14   S    
C44   C46   A    
C1    O3    A    
O8    Zn1   S    
C7    C43   A    
C9    C10   A    
C34   C36   S    
C46   Cl5   S    
C21   C27   A    
C38   C40   S    
C22   C28   A    
C27   C30   A    
C33   H7    S    
C11   H13   S    
C1    O1    A    
C2    O2    A    
C16   C26   A    
C31   O13   S    
C8    C44   A    
C4    C6    A    
C44   H12   S    
C5    C7    A    
C24   O6    A    
C19   H2    S    
C18   N2    A    
C6    C8    A    
C2    O4    A    
C39   O11   S    
O7    Zn2   S    
O10   H16   S    
C5    C9    A    
C36   O10   S    
O4    Zn1   S    
O6    Zn2   S    
C24   C37   S    
C16   C18   A    
C43   C45   A    
O1    Zn1   S    
N1    Zn2   S    
C1    C41   S    
C20   C22   A    
C34   H8    S    
C15   H5    S    
O3    Zn2   S    
C3    Cl4   S    
C15   C17   A    
C21   C25   A    
C3    C41   A    
C8    C14   A    
C35   C37   S    
C40   O12   S    
C36   C39   S    
C16   H6    S    
C12   C14   A    
C3    C5    A    
C17   H4    S    
C6    C10   A    
C23   C38   S    
C33   C38   S    
C36   C38   S    
C45   Cl6   S    
C37   C39   S    
C30   C32   A    
C11   C13   A    
C4    Cl3   S    
C4    C42   A    
C19   N1    A    
C33   C35   S    
N2    Zn1   S    
C35   C40   S    
O5    Zn1   S    
O2    Zn2   S    
C20   N2    A    
C9    C12   A    
C20   H1    S    
C10   C11   A    
C43   H11   S    
O11   H17   S    
C12   H14   S    
C7    C13   A    
C29   Cl1   S    
C29   C31   A    
C22   C26   A    
C27   C28   A    
C41   C45   A    
O14   H20   S    
C18   H3    S    
C13   H9    S    
