data_mof_unit_12338.cif
_audit_creation_date              2012-12-11T17:47:30-0500
_audit_creation_method            fapswitch 2.2
_symmetry_space_group_name_H-M    P1
_symmetry_Int_Tables_number       1
_space_group_crystal_system       triclinic
_cell_length_a                    14.917809
_cell_length_b                    15.034843
_cell_length_c                    15.22248
_cell_angle_alpha                 110.41456
_cell_angle_beta                  108.989128
_cell_angle_gamma                 108.780572
_cell_volume                      2635.19085531

loop_
_atom_site_label
_atom_site_type_symbol
_atom_type_description
_atom_site_fract_x
_atom_site_fract_y
_atom_site_fract_z
_atom_type_partial_charge
Br1   Br    Br    0.961020 0.975775 0.797710 -0.580908
Br2   Br    Br    0.167011 0.072962 0.380788 -0.618066
Br3   Br    Br    0.550899 0.951153 0.730314 -0.580365
Br4   Br    Br    0.497010 0.009526 0.304924 -0.593257
Br5   Br    Br    0.153388 0.277521 0.778861 -0.663274
Br6   Br    Br    0.853342 0.709682 0.232827 -0.666737
Br7   Br    Br    0.372741 0.732139 0.013320 -0.642360
Br8   Br    Br    0.625803 0.269568 0.984267 -0.656684
C1    C     C_R   0.971876 0.245466 0.058192 -0.077149
C2    C     C_R   0.060677 0.135445 0.153023 -0.200148
C3    C     C_R   0.157174 0.063835 0.789655 -0.117276
C4    C     C_R   0.942215 0.966821 0.323573 -0.137217
C5    C     C_R   0.115163 0.062913 0.859145 0.339688
C6    C     C_R   0.013549 0.007679 0.289432 0.316651
C7    C     C_R   0.624009 0.345151 0.227174 -0.085682
C8    C     C_R   0.418692 0.609911 0.744200 -0.126209
C9    C     C_R   0.735031 0.411933 0.302967 -0.092658
C10   C     C_R   0.306786 0.553071 0.671947 -0.112762
C11   C     C_R   0.798756 0.365011 0.331680 0.099401
C12   C     C_R   0.086629 0.801191 0.000628 -0.072007
C13   C     C_R   0.246028 0.607468 0.673857 0.105263
C14   C     C_R   0.751086 0.251092 0.281918 -0.204395
C15   C     C_R   0.298429 0.719054 0.749304 -0.159602
C16   C     C_R   0.311904 0.781998 0.223532 -0.051848
C17   C     C_R   0.701245 0.195353 0.785917 -0.054949
C18   C     C_R   0.640670 0.184826 0.205928 0.002474
C19   C     C_R   0.410308 0.775582 0.821208 0.051332
C20   C     C_R   0.576951 0.231762 0.179528 -0.016956
C21   C     C_R   0.470392 0.720996 0.818885 -0.024363
C22   C     C_R   0.936393 0.433647 0.514691 -0.256813
C23   C     C_R   0.317689 0.837443 0.322496 0.118652
C24   C     C_R   0.107446 0.549400 0.493191 -0.268966
C25   C     C_R   0.043660 0.493297 0.599205 0.072714
C26   C     C_R   0.999328 0.496319 0.411955 0.075089
C27   C     C_R   0.130959 0.550342 0.589167 0.018784
C28   C     C_R   0.913023 0.433493 0.419815 0.030706
C29   C     C_R   0.186497 0.124852 0.971517 -0.001519
C30   C     C_R   0.971357 0.997003 0.187243 -0.018059
C31   C     C_R   0.339704 0.177334 0.941416 -0.119312
C32   C     C_R   0.788231 0.916060 0.160308 -0.117128
C33   C     C_R   0.208449 0.974002 0.562769 -0.110552
C34   C     C_R   0.707012 0.132985 0.696865 0.112613
C35   C     C_R   0.871485 0.014178 0.525284 -0.087261
C36   C     C_R   0.300748 0.989589 0.551585 -0.106018
C37   C     C_R   0.766171 0.977596 0.510570 -0.150366
C38   C     C_R   0.339184 0.914995 0.547431 0.159821
C39   C     C_R   0.706945 0.029137 0.482911 0.160200
C40   C     C_R   0.213592 0.412260 0.906332 0.240608
C41   C     C_R   0.786879 0.588963 0.092808 0.264887
C42   C     C_R   0.289520 0.830067 0.563610 -0.102980
C43   C     C_R   0.751367 0.110855 0.460232 -0.107304
C44   C     C_R   0.199828 0.817892 0.579101 -0.160366
C45   C     C_R   0.307070 0.504298 0.941164 -0.051728
C46   C     C_R   0.854335 0.142722 0.469487 -0.194690
C47   C     C_R   0.156939 0.886798 0.574426 -0.102065
C48   C     C_R   0.916617 0.099249 0.508185 -0.081211
C49   C     C_R   0.531895 0.969462 0.606986 0.273449
C50   C     C_R   0.510184 0.973591 0.417704 0.267621
C51   C     C_R   0.622459 0.026537 0.601566 -0.041405
C52   C     C_R   0.417857 0.921141 0.424157 -0.049421
C53   C     C_R   0.612262 0.012252 0.501122 -0.118760
C54   C     C_R   0.428631 0.926119 0.522309 -0.131463
C55   C     C_R   0.269482 0.119916 0.830594 -0.052543
C56   C     C_R   0.691815 0.497663 0.054769 -0.065895
C57   C     C_R   0.829958 0.923212 0.260358 -0.034936
C58   C     C_R   0.044114 0.037475 0.148283 0.110622
C59   C     C_R   0.148784 0.111152 0.045867 0.070481
C60   C     C_R   0.298537 0.182161 0.011795 -0.246654
C61   C     C_R   0.858649 0.952208 0.123324 -0.207592
C62   C     C_R   0.087183 0.979043 0.096819 0.105115
C63   C     C_R   0.094714 0.161974 0.086004 0.065620
C64   C     C_R   0.024068 0.591381 0.310036 -0.091324
C65   C     C_R   0.002045 0.408487 0.701241 -0.112415
C66   C     C_3   0.478089 0.400930 0.937320 -0.108441
C67   C     C_R   0.981350 0.499061 0.316127 0.031517
C68   C     C_3   0.523030 0.605827 0.055946 -0.106736
C69   C     C_3   0.452982 0.471768 0.891166 -0.112760
C70   C     C_3   0.548099 0.534915 0.102141 -0.140813
C71   C     C_3   0.410532 0.506870 0.968024 0.203396
C72   C     C_3   0.590305 0.499329 0.025181 0.188214
C73   C     C_3   0.434617 0.436523 0.014609 -0.185371
C74   C     C_3   0.567002 0.570391 0.978927 -0.180771
C75   C     C_R   0.301973 0.592984 0.999243 0.235718
C76   C     C_R   0.696467 0.407762 0.997606 0.248420
C77   C     C_R   0.930221 0.408076 0.216955 -0.089492
C78   C     C_R   0.056757 0.498342 0.697370 0.054224
C79   C     C_R   0.088063 0.590436 0.788939 -0.068164
C80   C     C_R   0.214657 0.788421 0.308772 -0.121125
C81   C     C_R   0.800983 0.198451 0.705251 -0.120961
C82   C     C_R   0.071629 0.256064 0.975748 -0.056743
C83   C     C_R   0.994434 0.799596 0.090497 -0.091583
C84   C     C_R   0.052151 0.223037 0.045040 0.040567
C85   C     C_R   0.053639 0.863546 0.061367 0.048115
C86   C     C_R   0.155134 0.029058 0.064144 -0.172542
H1    H     H_    0.932109 0.225113 0.101326 0.095237
H2    H     H_    0.465743 0.568272 0.741362 0.116286
H3    H     H_    0.770620 0.499650 0.340821 0.130879
H4    H     H_    0.267970 0.467439 0.613069 0.134249
H5    H     H_    0.799490 0.213691 0.302037 0.123632
H6    H     H_    0.253204 0.762598 0.752108 0.114375
H7    H     H_    0.604323 0.097092 0.168072 0.151384
H8    H     H_    0.450387 0.861696 0.878919 0.145897
H9    H     H_    0.869694 0.389187 0.523696 0.141077
H10   H     H_    0.173325 0.590256 0.481541 0.136348
H11   H     H_    0.378171 0.384908 0.031044 0.142454
H12   H     H_    0.142992 0.826484 0.973050 0.110975
H13   H     H_    0.623712 0.625807 0.965318 0.130870
H14   H     H_    0.377626 0.794094 0.206209 0.186917
H15   H     H_    0.639250 0.168521 0.806353 0.196336
H16   H     H_    0.353973 0.227597 0.097804 0.138930
H17   H     H_    0.825681 0.945542 0.045097 0.160065
H18   H     H_    0.083527 0.871885 0.579673 0.128481
H19   H     H_    0.999719 0.130918 0.523670 0.162885
H20   H     H_    0.176676 0.029267 0.562303 0.160116
H21   H     H_    0.919060 0.978537 0.552534 0.146361
H22   H     H_    0.339847 0.057086 0.541830 0.169220
H23   H     H_    0.102388 0.022040 0.704175 0.134090
H24   H     H_    0.734241 0.915196 0.529211 0.156986
H25   H     H_    0.318769 0.772649 0.562044 0.143784
H26   H     H_    0.712042 0.157178 0.445342 0.165285
H27   H     H_    0.160086 0.752844 0.590754 0.132722
H28   H     H_    0.889758 0.207461 0.455105 0.130067
H29   H     H_    0.200095 0.994323 0.035804 0.133298
H30   H     H_    0.030443 0.180710 0.195825 0.124641
H31   H     H_    0.410792 0.444451 0.804214 0.141098
H32   H     H_    0.588950 0.559837 0.188645 0.142506
H33   H     H_    0.460231 0.317421 0.885747 0.153306
H34   H     H_    0.973919 0.966769 0.398280 0.150440
H35   H     H_    0.543395 0.690985 0.105749 0.164024
H36   H     H_    0.061240 0.675060 0.371517 0.136749
H37   H     H_    0.973814 0.324979 0.646512 0.142754
H38   H     H_    0.881652 0.324550 0.193563 0.122225
H39   H     H_    0.134976 0.674584 0.812665 0.116377
H40   H     H_    0.183466 0.812729 0.361784 0.145466
H41   H     H_    0.845070 0.175961 0.666852 0.154513
H42   H     H_    0.132322 0.258161 0.952441 0.140793
H43   H     H_    0.967448 0.822208 0.147498 0.164449
H44   H     H_    0.302383 0.119998 0.777020 0.143085
H45   H     H_    0.426254 0.219688 0.973660 0.175461
H46   H     H_    0.775068 0.892372 0.287721 0.153595
H47   H     H_    0.701404 0.881273 0.110946 0.140073
H48   H     H_    0.491430 0.179580 0.121337 0.117012
H49   H     H_    0.556991 0.764817 0.874687 0.110080
H50   H     H_    0.574421 0.381121 0.205516 0.109480
N1    N     N_R   0.947560 0.293820 0.002910 -0.040988
N2    N     N_R   0.789450 0.443190 0.997090 -0.084012
N3    N     N_R   0.945970 0.443180 0.152110 -0.044697
N4    N     N_R   0.054030 0.556820 0.847890 -0.047010
N5    N     N_R   0.151530 0.706170 0.208880 -0.054634
N6    N     N_R   0.848470 0.293830 0.791120 -0.056644
N7    N     N_R   0.004980 0.293810 0.946140 -0.037971
N8    N     N_R   0.995020 0.706190 0.053860 -0.049889
N9    N     N_R   0.052440 0.706180 0.997090 -0.049160
N10   N     N_R   0.208960 0.706170 0.152110 -0.050450
N11   N     N_R   0.791040 0.293830 0.847890 -0.052381
N12   N     N_R   0.154330 0.443160 0.946140 -0.094545
N13   N     N_R   0.845670 0.556840 0.053860 -0.088078
N14   N     N_R   0.002190 0.556820 0.208880 -0.041563
N15   N     N_R   0.997810 0.443180 0.791120 -0.046728
N16   N     N_R   0.210550 0.556810 0.002910 -0.089856
Ni1   Ni    Ni4+2 0.869690 0.369690 0.000000 0.268844
Ni2   Ni    Ni4+2 0.130310 0.630310 0.000000 0.256832
Ni3   Ni    Ni4+2 0.001390 0.369680 0.869810 0.251638
Ni4   Ni    Ni4+2 0.998610 0.630320 0.130190 0.251119

loop_
_geom_bond_atom_site_label_1
_geom_bond_atom_site_label_2
_ccdc_geom_bond_type
C37   H24   S    
Br7   C75   S    
C12   C85   A    
C65   H37   S    
C81   H41   S    
C47   H18   S    
C19   C21   A    
C10   C13   A    
C3    C5    A    
C31   C60   A    
C79   H39   S    
C68   C71   S    
C33   H20   S    
N5    N10   A    
C2    H30   S    
C49   C54   A    
N2    N13   A    
N11   Ni1   S    
N6    Ni3   S    
C2    C58   A    
C38   C54   S    
C45   C71   S    
C68   C70   S    
C3    C55   A    
C11   C28   S    
C77   H38   S    
C83   N8    A    
C70   C72   S    
C49   C51   A    
C17   N11   A    
C50   C52   A    
C21   H49   S    
C29   C60   A    
C14   H5    S    
C64   N14   A    
C52   C54   A    
C80   N5    A    
C56   C76   A    
C35   H21   S    
C83   H43   S    
C57   H46   S    
C67   C77   A    
C33   C47   A    
C75   N16   A    
C30   C58   S    
N12   Ni3   S    
C36   C38   A    
C66   C69   S    
C22   H9    S    
C59   C86   A    
C42   C44   A    
C48   H19   S    
C24   H10   S    
C16   H14   S    
C15   C19   A    
C1    H1    S    
C5    C29   A    
C44   C47   A    
C17   H15   S    
C26   C67   S    
C2    C63   A    
C50   C53   A    
C37   C39   A    
C15   H6    S    
C46   H28   S    
C30   C61   A    
C41   C56   A    
C66   C72   S    
C32   H47   S    
C56   C72   S    
C41   N13   A    
C64   C67   A    
C1    C84   A    
Br5   C40   S    
C16   N10   A    
C12   H12   S    
C69   C71   S    
C40   C45   A    
N2    Ni1   S    
C73   H11   S    
C8    H2    S    
C51   C53   A    
C32   C61   A    
C63   C84   S    
C42   H25   S    
C24   C27   A    
N12   N16   A    
C62   C85   S    
C72   C74   S    
C45   C75   A    
C79   N4    A    
C68   C74   S    
C71   C73   S    
C78   C79   A    
C82   N7    A    
C39   C43   A    
N14   Ni4   S    
C8    C21   A    
N4    N15   A    
N16   Ni2   S    
C23   C52   S    
C34   C51   S    
C25   C78   S    
C83   C85   A    
C82   H42   S    
C68   H35   S    
C82   C84   A    
C66   H33   S    
C33   C36   A    
C11   C14   A    
C43   H26   S    
N5    Ni4   S    
C60   H16   S    
C74   H13   S    
C35   C37   A    
N13   Ni4   S    
N1    N7    A    
C13   C27   S    
Br3   C49   S    
C81   N6    A    
C4    C6    A    
N7    Ni3   S    
C32   C57   A    
C13   C15   A    
N3    Ni1   S    
C44   H27   S    
C55   H44   S    
N15   Ni3   S    
Br1   C5    S    
C66   C73   S    
C9    C11   A    
C6    C30   A    
C70   H32   S    
C69   H31   S    
C7    C9    A    
C38   C42   A    
C23   C80   A    
C22   C25   A    
C62   C86   A    
Br8   C76   S    
N10   Ni2   S    
C77   N3    A    
C12   N9    A    
N8    Ni4   S    
C17   C34   A    
C39   C53   S    
C46   C48   A    
C64   H36   S    
C4    H34   S    
C76   N2    A    
C31   C55   A    
C4    C57   A    
C65   N15   A    
C19   H8    S    
C18   C20   A    
C22   C28   A    
N9    Ni2   S    
N6    N11   A    
C43   C46   A    
N4    Ni2   S    
C34   C81   A    
C16   C23   A    
C80   H40   S    
C18   H7    S    
C86   H29   S    
C61   H17   S    
C70   C73   S    
C7    C20   A    
C58   C62   A    
N1    Ni1   S    
C69   C74   S    
C29   C59   S    
C1    N1    A    
C25   C27   A    
C26   C28   A    
C59   C63   A    
Br6   C41   S    
C40   N12   A    
Br2   C6    S    
C65   C78   A    
C7    H50   S    
C35   C48   A    
C20   H48   S    
N8    N9    A    
C36   H22   S    
C8    C10   A    
C14   C18   A    
Br4   C50   S    
C10   H4    S    
N3    N14   A    
C9    H3    S    
C31   H45   S    
C24   C26   A    
C3    H23   S    
