data_mof_unit_28569.cif
_audit_creation_date              2013-03-05T16:00:02-0500
_audit_creation_method            fapswitch 2.2
_symmetry_space_group_name_H-M    P1
_symmetry_Int_Tables_number       1
_space_group_crystal_system       triclinic
_cell_length_a                    20.785434
_cell_length_b                    21.552172
_cell_length_c                    14.726259
_cell_angle_alpha                 90.025797
_cell_angle_beta                  129.113726
_cell_angle_gamma                 89.967926
_cell_volume                      5118.53437343

loop_
_atom_site_label
_atom_site_type_symbol
_atom_site_description
_atom_site_fract_x
_atom_site_fract_y
_atom_site_fract_z
_atom_type_partial_charge
O1    O     O_R   0.600040 0.935040 0.546740 -0.546511
O2    O     O_R   0.399960 0.064960 0.453260 -0.551544
O3    O     O_R   0.399960 0.935040 0.453260 -0.554213
O4    O     O_R   0.600040 0.064960 0.546740 -0.553789
O5    O     O_R   0.100040 0.435040 0.546740 -0.546300
O6    O     O_R   0.899960 0.564960 0.453260 -0.562714
O7    O     O_R   0.899960 0.435040 0.453260 -0.554771
O8    O     O_R   0.100040 0.564960 0.546740 -0.542045
O9    O     O_R   0.555010 0.935070 0.653220 -0.487357
O10   O     O_R   0.444990 0.064930 0.346780 -0.517579
O11   O     O_R   0.444990 0.935070 0.346780 -0.501696
O12   O     O_R   0.555010 0.064930 0.653220 -0.493508
O13   O     O_R   0.055010 0.435070 0.653220 -0.499569
O14   O     O_R   0.944990 0.564930 0.346780 -0.492116
O15   O     O_R   0.944990 0.435070 0.346780 -0.489547
O16   O     O_R   0.055010 0.564930 0.653220 -0.518390
C1    C     C_R   0.597374 0.909473 0.624711 0.897319
C2    C     C_R   0.397043 0.086317 0.368342 0.863093
C3    C     C_R   0.403169 0.909219 0.375880 0.864157
C4    C     C_R   0.602832 0.086459 0.631512 0.950724
C5    C     C_R   0.097160 0.409395 0.624472 0.870702
C6    C     C_R   0.897180 0.586479 0.368491 0.947456
C7    C     C_R   0.902939 0.409304 0.375627 0.890605
C8    C     C_R   0.102989 0.586295 0.631697 0.865764
Cu1   Cu    Cu3+1 0.526640 1.000000 0.436960 1.153102
Cu2   Cu    Cu3+1 0.473360 1.000000 0.563040 1.161832
Cu3   Cu    Cu3+1 0.026640 0.500000 0.436960 1.166836
Cu4   Cu    Cu3+1 0.973360 0.500000 0.563040 1.148251
C9    C     C_R   0.663216 0.135890 0.706542 -0.195042
C10   C     C_R   0.359186 0.848805 0.319731 -0.221242
C11   C     C_R   0.336212 0.135389 0.292793 -0.271105
C12   C     C_R   0.643115 0.849848 0.682612 -0.224710
C13   C     C_R   0.164037 0.635235 0.707349 -0.271887
C14   C     C_R   0.857832 0.349361 0.318276 -0.221851
C15   C     C_R   0.836937 0.636000 0.293412 -0.194346
C16   C     C_R   0.141881 0.349342 0.681287 -0.224079
C17   C     C_R   0.752022 0.222207 0.740494 0.283421
C18   C     C_R   0.263949 0.765630 0.277801 0.271723
C19   C     C_R   0.253492 0.225320 0.262746 0.279767
C20   C     C_R   0.742944 0.769452 0.729913 0.271674
C21   C     C_R   0.247608 0.724546 0.737618 0.275928
C22   C     C_R   0.758890 0.268366 0.271620 0.268978
C23   C     C_R   0.748834 0.722942 0.259437 0.286953
C24   C     C_R   0.238210 0.266849 0.724105 0.274853
C25   C     C_R   0.685880 0.181265 0.662022 0.170514
C26   C     C_R   0.307617 0.820018 0.339386 0.142668
C27   C     C_R   0.316872 0.182303 0.339218 0.213728
C28   C     C_R   0.696795 0.822543 0.665532 0.154575
C29   C     C_R   0.183683 0.681897 0.661007 0.211013
C30   C     C_R   0.805149 0.321328 0.336572 0.144938
C31   C     C_R   0.814527 0.681682 0.337884 0.173257
C32   C     C_R   0.194327 0.321190 0.662658 0.152483
C33   C     C_R   0.702014 0.135450 0.825959 0.339334
C34   C     C_R   0.376670 0.815543 0.254962 0.386191
C35   C     C_R   0.296686 0.135466 0.172316 0.344369
C36   C     C_R   0.625431 0.815733 0.746263 0.383216
C37   C     C_R   0.203976 0.635160 0.827931 0.344719
C38   C     C_R   0.875330 0.315638 0.253953 0.384589
C39   C     C_R   0.798479 0.635606 0.174061 0.339084
C40   C     C_R   0.124437 0.315814 0.745748 0.384836
C41   C     C_R   0.748700 0.187521 0.895528 -0.117874
C42   C     C_R   0.321758 0.768189 0.174785 -0.108013
C43   C     C_R   0.253028 0.188613 0.105046 -0.029552
C44   C     C_R   0.681619 0.769425 0.828303 -0.106983
C45   C     C_R   0.247951 0.688199 0.895374 -0.028577
C46   C     C_R   0.819330 0.269187 0.172007 -0.106853
C47   C     C_R   0.751952 0.687718 0.104444 -0.118641
C48   C     C_R   0.179687 0.268718 0.826164 -0.108010
C49   C     C_R   0.783362 0.226079 0.858640 -0.080371
C50   C     C_R   0.265554 0.742114 0.189113 -0.095095
C51   C     C_R   0.221291 0.228958 0.144293 -0.119029
C52   C     C_R   0.741249 0.745899 0.818462 -0.093513
C53   C     C_R   0.279734 0.728421 0.856085 -0.119455
C54   C     C_R   0.760025 0.245375 0.182242 -0.091361
C55   C     C_R   0.717328 0.726443 0.141237 -0.079822
C56   C     C_R   0.236253 0.242945 0.812243 -0.096888
C57   C     C_R   0.757733 0.203678 0.996881 0.056405
C58   C     C_R   0.317305 0.748930 0.077040 0.033385
C59   C     C_R   0.241169 0.202909 0.000812 0.094298
C60   C     C_R   0.684034 0.748865 0.923737 0.066482
C61   C     C_R   0.260044 0.702467 0.999817 0.093302
C62   C     C_R   0.816718 0.248719 0.076292 0.066401
C63   C     C_R   0.743007 0.703807 0.003139 0.057227
C64   C     C_R   0.183983 0.249426 0.923679 0.033517
C65   C     C_R   0.362118 0.778360 0.046690 -0.206465
C66   C     C_R   0.701538 0.180835 0.011266 -0.253546
C67   C     C_R   0.635223 0.775520 0.949903 -0.204896
C68   C     C_R   0.292807 0.176606 0.980502 -0.164616
C69   C     C_R   0.865332 0.275399 0.049877 -0.206794
C70   C     C_R   0.208599 0.676103 0.020327 -0.167998
C71   C     C_R   0.139030 0.278895 0.953854 -0.205028
C72   C     C_R   0.799274 0.680957 0.988819 -0.251191
C73   C     C_R   0.341418 0.771433 0.936165 0.492612
C74   C     C_R   0.702639 0.199702 0.102680 0.493850
C75   C     C_R   0.654008 0.767945 0.059190 0.491979
C76   C     C_R   0.290180 0.194592 0.887288 0.461408
C77   C     C_R   0.846422 0.267817 0.940474 0.490066
C78   C     C_R   0.211664 0.693763 0.114024 0.468528
C79   C     C_R   0.159453 0.271833 0.064140 0.494782
C80   C     C_R   0.798493 0.700086 0.897779 0.487104
H1    H     H_    0.411618 0.809393 0.104589 0.229866
H2    H     H_    0.651151 0.151302 0.945447 0.186341
H3    H     H_    0.583988 0.804864 0.889936 0.228200
H4    H     H_    0.341842 0.145542 0.043490 0.192903
H5    H     H_    0.916549 0.304736 0.109790 0.228335
H6    H     H_    0.159429 0.645164 0.957259 0.192104
H7    H     H_    0.089710 0.310115 0.896103 0.229629
H8    H     H_    0.849543 0.651314 0.054536 0.187323
N1    N     N_R   0.433280 1.000000 0.657760 -0.282764
N2    N     N_R   0.566720 1.000000 0.342240 -0.259391
N3    N     N_R   0.933280 0.500000 0.657760 -0.280521
N4    N     N_R   0.066720 0.500000 0.342240 -0.262028
C81   C     C_R   0.317786 0.994373 0.657323 0.328625
C82   C     C_R   0.681522 0.982437 0.343082 0.350997
C83   C     C_R   0.818339 0.492084 0.658085 0.327366
C84   C     C_R   0.182314 0.484243 0.344056 0.353267
C85   C     C_R   0.349647 0.997997 0.597641 0.437929
C86   C     C_R   0.650042 0.994121 0.402713 0.362984
C87   C     C_R   0.849787 0.496897 0.597963 0.439091
C88   C     C_R   0.150217 0.494843 0.403155 0.363286
C89   C     C_R   0.485029 0.008631 0.776268 0.621427
C90   C     C_R   0.515541 0.009213 0.224131 0.634183
C91   C     C_R   0.984948 0.509416 0.776038 0.622797
C92   C     C_R   0.015540 0.508591 0.223951 0.633454
C93   C     C_R   0.458724 0.992732 0.843096 -0.159635
C94   C     C_R   0.540526 0.990807 0.156780 -0.185114
C95   C     C_R   0.959602 0.492498 0.843596 -0.154628
C96   C     C_R   0.041489 0.491137 0.157341 -0.190022
C97   C     C_R   0.372139 0.988033 0.780925 -0.196400
C98   C     C_R   0.626364 0.980138 0.218806 -0.127477
C99   C     C_R   0.873202 0.485928 0.781794 -0.199544
C100  C     C_R   0.127620 0.482133 0.219822 -0.125827
C101  C     C_R   0.515063 0.983355 0.968275 -0.078247
C102  C     C_R   0.483415 0.984337 0.030897 -0.088564
C103  C     C_R   0.016541 0.484162 0.969089 -0.079786
C104  C     C_R   0.984874 0.483726 0.031696 -0.087130
C105  C     C_R   0.396320 0.974637 0.965788 0.193674
C106  C     C_R   0.600992 0.969232 0.032444 0.162560
C107  C     C_R   0.898409 0.471543 0.967134 0.195486
C108  C     C_R   0.103231 0.472616 0.033908 0.160386
C109  C     C_R   0.341951 0.976754 0.842623 0.295472
C110  C     C_R   0.655316 0.968037 0.155515 0.322284
C111  C     C_R   0.843722 0.473170 0.843990 0.294683
C112  C     C_R   0.157297 0.471702 0.157031 0.321746
O17   O     O_3   0.381769 0.806039 0.906515 -0.656283
H9    H     H_    0.422872 0.833969 0.971978 0.337640
O18   O     O_3   0.643994 0.176526 0.110076 -0.647716
H10   H     H_    0.610644 0.143708 0.050470 0.318095
O19   O     O_3   0.610181 0.800270 0.085617 -0.663092
H11   H     H_    0.568746 0.827718 0.019429 0.338903
O20   O     O_3   0.344000 0.167580 0.873579 -0.656925
H12   H     H_    0.374644 0.132966 0.929880 0.313178
O21   O     O_3   0.889731 0.300522 0.913648 -0.658682
H13   H     H_    0.930887 0.328191 0.979608 0.340026
O22   O     O_3   0.158267 0.666418 0.128179 -0.647807
H14   H     H_    0.127626 0.631841 0.071774 0.315084
O23   O     O_3   0.118515 0.306001 0.093399 -0.660899
H15   H     H_    0.077102 0.333704 0.027719 0.335987
O24   O     O_3   0.857332 0.677075 0.890596 -0.653637
H16   H     H_    0.890507 0.644099 0.949902 0.316803
N5    N     N_R   0.362809 0.955023 0.022168 0.151116
O25   O     O_R   0.293841 0.978193 0.991576 -0.237565
O26   O     O_R   0.402706 0.915654 0.107908 -0.354043
N6    N     N_R   0.633289 0.949430 0.974575 0.155014
O27   O     O_R   0.703150 0.971165 0.006066 -0.254457
O28   O     O_R   0.591462 0.911374 0.886820 -0.339649
N7    N     N_R   0.866440 0.449784 0.024467 0.155871
O29   O     O_R   0.796762 0.470741 0.994715 -0.248922
O30   O     O_R   0.909046 0.411255 0.111326 -0.346307
N8    N     N_R   0.137159 0.455354 0.977068 0.150265
O31   O     O_R   0.206154 0.479600 0.009551 -0.242435
O32   O     O_R   0.098484 0.416346 0.890674 -0.347515
O33   O     O_3   0.454349 0.823439 0.287107 -0.647172
H17   H     H_    0.474585 0.781911 0.286093 0.354413
O34   O     O_3   0.699736 0.081467 0.874385 -0.644548
H18   H     H_    0.747626 0.081248 0.959270 0.366659
O35   O     O_3   0.546754 0.821718 0.711233 -0.646663
H19   H     H_    0.527242 0.779440 0.709944 0.350290
O36   O     O_3   0.292732 0.082682 0.115601 -0.639931
H20   H     H_    0.300370 0.045566 0.161167 0.363175
O37   O     O_3   0.953781 0.322122 0.288338 -0.648510
H21   H     H_    0.973763 0.279945 0.290063 0.349895
O38   O     O_3   0.208085 0.582306 0.884552 -0.639491
H22   H     H_    0.199981 0.545247 0.838528 0.364181
O39   O     O_3   0.046596 0.323214 0.713233 -0.644837
H23   H     H_    0.026904 0.281599 0.714909 0.355132
O40   O     O_3   0.800924 0.581623 0.125714 -0.644920
H24   H     H_    0.753173 0.581429 0.040765 0.366543
N9    N     N_R   0.306439 0.840634 0.431201 0.183276
O41   O     O_R   0.374375 0.838739 0.539135 -0.272735
O42   O     O_R   0.236225 0.846491 0.411352 -0.177925
N10   N     N_R   0.641464 0.186367 0.537979 0.181462
O43   O     O_R   0.560822 0.188457 0.466162 -0.304430
O44   O     O_R   0.680889 0.193213 0.496704 -0.173850
N11   N     N_R   0.697201 0.842882 0.572942 0.182462
O45   O     O_R   0.629856 0.838115 0.464924 -0.279453
O46   O     O_R   0.767140 0.852266 0.593405 -0.211166
N12   N     N_R   0.362310 0.187216 0.463502 0.180885
O47   O     O_R   0.442961 0.188769 0.534228 -0.310903
O48   O     O_R   0.323742 0.194878 0.505909 -0.182956
N13   N     N_R   0.806088 0.340654 0.430900 0.182434
O49   O     O_R   0.874945 0.337693 0.537897 -0.276382
O50   O     O_R   0.736915 0.346794 0.413872 -0.175804
N14   N     N_R   0.138198 0.686769 0.536702 0.182490
O51   O     O_R   0.057567 0.688851 0.466115 -0.308611
O52   O     O_R   0.176727 0.693732 0.494108 -0.177176
N15   N     N_R   0.196250 0.342444 0.571905 0.183348
O53   O     O_R   0.129418 0.338865 0.463273 -0.276858
O54   O     O_R   0.266950 0.351062 0.594228 -0.210651
N16   N     N_R   0.858860 0.686896 0.461885 0.180218
O55   O     O_R   0.939519 0.688465 0.533892 -0.306381
O56   O     O_R   0.819347 0.694429 0.502906 -0.179365
N17   N     N_R   0.273841 0.766879 0.691663 0.217050
O57   O     O_R   0.224228 0.810784 0.620629 -0.181050
O58   O     O_R   0.339821 0.754390 0.702955 -0.232990
N18   N     N_R   0.714529 0.236228 0.302137 0.219844
O59   O     O_R   0.744910 0.185332 0.363056 -0.229145
O60   O     O_R   0.640379 0.254110 0.259209 -0.200385
N19   N     N_R   0.720534 0.764757 0.303299 0.214756
O61   O     O_R   0.767028 0.811016 0.369692 -0.199267
O62   O     O_R   0.655657 0.750477 0.293681 -0.235811
N20   N     N_R   0.282249 0.235178 0.692608 0.222164
O63   O     O_R   0.248765 0.187380 0.623238 -0.252145
O64   O     O_R   0.357771 0.251251 0.739533 -0.206313
N21   N     N_R   0.781558 0.262884 0.696953 0.215814
O65   O     O_R   0.734705 0.307796 0.626103 -0.180597
O66   O     O_R   0.847921 0.248130 0.710665 -0.236920
N22   N     N_R   0.220496 0.733462 0.309721 0.221062
O67   O     O_R   0.255173 0.686332 0.380611 -0.221232
O68   O     O_R   0.144569 0.748614 0.262263 -0.205229
N23   N     N_R   0.228563 0.268707 0.309086 0.215692
O69   O     O_R   0.277559 0.314157 0.374997 -0.199813
O70   O     O_R   0.164308 0.256609 0.302253 -0.231547
N24   N     N_R   0.787894 0.737895 0.699748 0.221767
O71   O     O_R   0.758530 0.686703 0.639589 -0.258590
O72   O     O_R   0.861673 0.756571 0.742398 -0.201752
N25   N     N_R   0.256032 0.962699 0.780643 0.192696
O73   O     O_R   0.232252 0.905131 0.763054 -0.222559
O74   O     O_R   0.205465 0.006144 0.762229 -0.267760
N26   N     N_R   0.740918 0.953886 0.215322 0.221779
O75   O     O_R   0.762862 0.897296 0.215731 -0.243260
O76   O     O_R   0.793564 0.998861 0.249876 -0.228482
N27   N     N_R   0.758448 0.457098 0.782655 0.191648
O77   O     O_R   0.737055 0.398991 0.766452 -0.226592
O78   O     O_R   0.706496 0.499087 0.764750 -0.281917
N28   N     N_R   0.243494 0.459683 0.217459 0.223356
O79   O     O_R   0.267807 0.403870 0.218547 -0.238376
O80   O     O_R   0.294538 0.505944 0.252885 -0.217602
O81   O     O_3   0.444669 0.043033 0.175518 -0.634435
H25   H     H_    0.432181 0.066090 0.107922 0.297404
O82   O     O_3   0.558016 0.039533 0.825870 -0.608515
H26   H     H_    0.573111 0.062025 0.895593 0.295652
O83   O     O_3   0.943053 0.540367 0.174082 -0.611378
H27   H     H_    0.929081 0.563182 0.105334 0.293558
O84   O     O_3   0.056103 0.542703 0.824252 -0.632452
H28   H     H_    0.069603 0.565431 0.892796 0.298907
N29   N     N_R   0.706323 0.013749 0.522437 0.128926
O85   O     O_R   0.738598 0.068867 0.545354 -0.272316
O86   O     O_R   0.741849 0.973416 0.606702 -0.302918
N30   N     N_R   0.293408 0.012577 0.475517 0.165603
O87   O     O_R   0.252919 0.968415 0.399238 -0.258987
O88   O     O_R   0.263527 0.068551 0.444614 -0.283833
N31   N     N_R   0.206050 0.513813 0.523284 0.127619
O89   O     O_R   0.237802 0.569183 0.547447 -0.274940
O90   O     O_R   0.242168 0.472856 0.606555 -0.310263
N32   N     N_R   0.793209 0.511972 0.476071 0.167351
O91   O     O_R   0.752504 0.468161 0.399056 -0.253662
O92   O     O_R   0.763601 0.568041 0.446162 -0.281764
O93   O     O_3   0.233374 0.999835 0.592162 -0.570331
H29   H     H_    0.224610 0.038323 0.619981 0.376730
O94   O     O_3   0.765837 0.974733 0.404913 -0.588404
H30   H     H_    0.793903 0.965974 0.488227 0.396602
O95   O     O_3   0.733853 0.496434 0.593339 -0.569740
H31   H     H_    0.724399 0.533912 0.622570 0.374820
O96   O     O_3   0.266803 0.477289 0.406441 -0.588973
H32   H     H_    0.294673 0.467951 0.489492 0.396406

loop_
_geom_bond_atom_site_label_1
_geom_bond_atom_site_label_2
_geom_bond_distance
_ccdc_geom_bond_type
C100  C112  1.416128 A    
C105  N5    1.443432 S    
C18   C50   1.420598 A    
C47   C63   1.425077 A    
C40   O39   1.376509 S    
N11   O46   1.300973 A    
C17   C49   1.424187 A    
C17   N21   1.433292 S    
O2    C2    1.297762 A    
C32   N15   1.437184 S    
C44   C60   1.444121 A    
N13   O49   1.299933 A    
C54   C74   1.414720 A    
C107  C111  1.407507 A    
O96   H32   0.988969 S    
C31   N16   1.439838 S    
C53   C73   1.409451 A    
N1    C89   1.367005 A    
C82   O94   1.383638 S    
N2    C86   1.364700 A    
C102  C105  1.431946 A    
N22   O68   1.301428 A    
O4    Cu1   1.946698 S    
C12   C28   1.416935 A    
C55   C75   1.409037 A    
C103  C104  1.431450 A    
N7    O30   1.296459 A    
C5    C16   1.502524 S    
C43   C59   1.426473 A    
O33   H17   0.992814 S    
C89   C93   1.436774 A    
C6    C15   1.477239 S    
C10   C34   1.411450 A    
O11   C3    1.311665 A    
O81   H25   0.989696 S    
O23   H15   0.991178 S    
C62   C69   1.414128 A    
C81   C97   1.419018 A    
C36   O35   1.375681 S    
C38   O37   1.375971 S    
C34   O33   1.376876 S    
N3    C87   1.365119 A    
N6    O27   1.301535 A    
C95   C103  1.445221 A    
N4    C92   1.364673 A    
C60   C67   1.414288 A    
C112  N28   1.434242 S    
C60   C63   1.415656 A    
O24   H16   0.991714 S    
C59   C64   1.415755 A    
C14   C38   1.411217 A    
O7    C7    1.306608 A    
C89   O82   1.371548 S    
C11   C35   1.408406 A    
C97   C109  1.413505 A    
N8    O31   1.301387 A    
C94   C98   1.419147 A    
C93   C101  1.444552 A    
N27   O77   1.299795 A    
O6    C6    1.298546 A    
C42   C58   1.443670 A    
C45   C53   1.416326 A    
C42   C50   1.427210 A    
C15   C39   1.398412 A    
N29   O85   1.299990 A    
N9    O42   1.301114 A    
C69   C77   1.406314 A    
C59   C68   1.402500 A    
C65   H1    1.061278 S    
C66   C74   1.392395 A    
C39   C47   1.412998 A    
O5    Cu3   1.946518 S    
C33   C41   1.412975 A    
C38   C46   1.428736 A    
O6    Cu4   1.946517 S    
O18   H10   0.991745 S    
C41   C57   1.424881 A    
N27   O78   1.301690 A    
C35   C43   1.407993 A    
C13   C37   1.407989 A    
O20   H12   0.991634 S    
C36   C44   1.428000 A    
C27   N12   1.439420 S    
O3    C3    1.306876 A    
N12   O47   1.301217 A    
C75   O19   1.383120 S    
C64   C71   1.413088 A    
C77   O21   1.383066 S    
O14   Cu3   1.938420 S    
C19   C27   1.411015 A    
N28   O79   1.300653 A    
C91   O84   1.371857 S    
O16   Cu4   1.938927 S    
C16   C32   1.417087 A    
C58   C61   1.416024 A    
C92   C96   1.435821 A    
C24   C32   1.407399 A    
O15   C7    1.312260 A    
O94   H30   0.989087 S    
C56   C76   1.414398 A    
C29   N14   1.439521 S    
C101  C106  1.430325 A    
O16   C8    1.306309 A    
C11   C27   1.413145 A    
N25   O73   1.299868 A    
O1    Cu1   1.946518 S    
N13   O50   1.300984 A    
C103  C108  1.431592 A    
N24   O72   1.301329 A    
C104  C107  1.430811 A    
C98   C110  1.416388 A    
C96   C100  1.417996 A    
C21   C29   1.411459 A    
N22   O67   1.300716 A    
N5    O26   1.296497 A    
C72   H8    1.077239 S    
O9    Cu2   1.938420 S    
O17   H9    0.991193 S    
C4    C9    1.477094 S    
N17   O58   1.301082 A    
Cu4   N3    2.026294 S    
C23   C55   1.423451 A    
O15   Cu3   1.938930 S    
N21   O66   1.301058 A    
N28   O80   1.301622 A    
C22   C54   1.420230 A    
C14   C30   1.417692 A    
N3    C91   1.366800 A    
N15   O53   1.300375 A    
C48   C64   1.442819 A    
C71   H7    1.061430 S    
N31   O89   1.300169 A    
N18   O59   1.300825 A    
C70   H6    1.074396 S    
N30   O88   1.300462 A    
C106  C110  1.406526 A    
N19   O61   1.300715 A    
C86   N29   1.432999 S    
C85   N30   1.430782 S    
C33   O34   1.381241 S    
C92   O83   1.371729 S    
C83   C99   1.419757 A    
N11   O45   1.300342 A    
C34   C42   1.427682 A    
Cu1   Cu2   2.695933 S    
O37   H21   0.992828 S    
C87   N32   1.430843 S    
C51   C79   1.408754 A    
O7    Cu4   1.946700 S    
C84   C88   1.409584 A    
C83   C87   1.397236 A    
O12   Cu2   1.938927 S    
C68   C76   1.394060 A    
N29   O86   1.298025 A    
O5    C5    1.306320 A    
N10   O44   1.300560 A    
C90   C94   1.435310 A    
C84   O96   1.383733 S    
N20   O64   1.301314 A    
O38   H22   0.990602 S    
C19   N23   1.433037 S    
C63   C72   1.401875 A    
C50   C78   1.414496 A    
C46   C62   1.444716 A    
C46   C54   1.428570 A    
C21   N17   1.433327 S    
C83   O95   1.374418 S    
C25   N10   1.439950 S    
C45   C61   1.426613 A    
O34   H18   0.991716 S    
C84   C100  1.420329 A    
N17   O57   1.300694 A    
C107  N7    1.443216 S    
C88   N31   1.432851 S    
O12   C4    1.306557 A    
O13   Cu4   1.938420 S    
N26   O76   1.301580 A    
N21   O65   1.300679 A    
O82   H26   0.990408 S    
C18   N22   1.433176 S    
O13   C5    1.311571 A    
C68   H4    1.074427 S    
N23   O70   1.301041 A    
C39   O40   1.381280 S    
Cu2   N1    2.026294 S    
C40   C48   1.426671 A    
C82   C86   1.409706 A    
N32   O92   1.300241 A    
Cu1   N2    2.026293 S    
C22   C30   1.407898 A    
C81   C85   1.397005 A    
C61   C70   1.402090 A    
C81   O93   1.374285 S    
C58   C65   1.412762 A    
O9    C1    1.312117 A    
N23   O69   1.300690 A    
N14   O52   1.300514 A    
Cu3   N4    2.026293 S    
O35   H19   0.992858 S    
N16   O56   1.300582 A    
N25   O74   1.301727 A    
C28   N11   1.437501 S    
C15   C31   1.413862 A    
C101  C102  1.431410 A    
C1    C12   1.503033 S    
C67   H3    1.061648 S    
C73   O17   1.383250 S    
N1    C85   1.365930 A    
C20   N24   1.433698 S    
C24   N20   1.433074 S    
N24   O71   1.300871 A    
C26   N9    1.437831 S    
C69   H5    1.061462 S    
O84   H28   0.989885 S    
C66   H2    1.077430 S    
C91   C95   1.436006 A    
N7    O29   1.300885 A    
C99   C111  1.413692 A    
C72   C80   1.393084 A    
N4    C88   1.365524 A    
C52   C80   1.414611 A    
C30   N13   1.438327 S    
C41   C49   1.414070 A    
C74   O18   1.384000 S    
C20   C28   1.407322 A    
C105  C109  1.408103 A    
C78   O22   1.383955 S    
C7    C14   1.504191 S    
C109  N25   1.434524 S    
C20   C52   1.420548 A    
C110  N26   1.434199 S    
C35   O36   1.382425 S    
C10   C26   1.417751 A    
O3    Cu2   1.946700 S    
C23   N19   1.433058 S    
C108  C112  1.407100 A    
C37   C45   1.408300 A    
N30   O87   1.297352 A    
C16   C40   1.410644 A    
O2    Cu2   1.946517 S    
C57   C66   1.401579 A    
C67   C75   1.405893 A    
N12   O48   1.300510 A    
C108  N8    1.442410 S    
C48   C56   1.426958 A    
C37   O38   1.382393 S    
C82   C98   1.420858 A    
O1    C1    1.306137 A    
C8    C13   1.476698 S    
C71   C79   1.404049 A    
N10   O43   1.301292 A    
O14   C6    1.306024 A    
C96   C104  1.444495 A    
O40   H24   0.991711 S    
N31   O90   1.298150 A    
O19   H11   0.991223 S    
N5    O25   1.300746 A    
C90   O81   1.372036 S    
O10   Cu1   1.938420 S    
C76   O20   1.383925 S    
C80   O24   1.383967 S    
C23   C31   1.413885 A    
O39   H23   0.992853 S    
O83   H27   0.990140 S    
C9    C33   1.397731 A    
C57   C62   1.415757 A    
O10   C2    1.305797 A    
C79   O23   1.383326 S    
N6    O28   1.296487 A    
N26   O75   1.300588 A    
O8    C8    1.297382 A    
C12   C36   1.410658 A    
C111  N27   1.434527 S    
N19   O62   1.301032 A    
C44   C52   1.428338 A    
N9    O41   1.300063 A    
N20   O63   1.300757 A    
C95   C99   1.418252 A    
C18   C26   1.407819 A    
C22   N18   1.433783 S    
N32   O91   1.297270 A    
C21   C53   1.423541 A    
O36   H20   0.990599 S    
O4    C4    1.297922 A    
C93   C97   1.417243 A    
C65   C73   1.404587 A    
C47   C55   1.413854 A    
N14   O51   1.301233 A    
C94   C102  1.445179 A    
N16   O55   1.301279 A    
C13   C29   1.413000 A    
C9    C25   1.413811 A    
O22   H14   0.991667 S    
N15   O54   1.301087 A    
O8    Cu3   1.946698 S    
O11   Cu1   1.938930 S    
C106  N6    1.442278 S    
C2    C11   1.476379 S    
N8    O32   1.296556 A    
C24   C56   1.420901 A    
O21   H13   0.991233 S    
O93   H29   0.991352 S    
C3    C10   1.503780 S    
C17   C25   1.414222 A    
C43   C51   1.416068 A    
C70   C78   1.393358 A    
N2    C90   1.364487 A    
N18   O60   1.301459 A    
C49   C77   1.409559 A    
Cu3   Cu4   2.695933 S    
C19   C51   1.422635 A    
O95   H31   0.991259 S    
