data_mof_unit_54683.cif
_audit_creation_date              2012-12-10T18:43:11-0500
_audit_creation_method            fapswitch 2.2
_symmetry_space_group_name_H-M    P1
_symmetry_Int_Tables_number       1
_space_group_crystal_system       triclinic
_cell_length_a                    10.634645
_cell_length_b                    9.854529
_cell_length_c                    10.748011
_cell_angle_alpha                 89.922562
_cell_angle_beta                  90.177038
_cell_angle_gamma                 89.835067
_cell_volume                      1126.37420642

loop_
_atom_site_label
_atom_site_type_symbol
_atom_type_description
_atom_site_fract_x
_atom_site_fract_y
_atom_site_fract_z
_atom_type_partial_charge
C1    C     C_R   0.260406 0.500192 0.503972 0.847328
C2    C     C_R   0.936034 0.427813 0.420260 -0.158285
C3    C     C_R   0.872138 0.498816 0.512168 -0.121433
C4    C     C_R   0.128054 0.500733 0.511551 -0.112525
C5    C     C_R   0.934170 0.569208 0.608579 -0.038723
C6    C     C_R   0.066012 0.565864 0.610917 -0.035436
C7    C     C_R   0.578338 0.071545 0.577276 -0.059651
C8    C     C_R   0.421638 0.072270 0.422757 -0.064300
C9    C     C_R   0.578361 0.927735 0.577257 -0.054254
C10   C     C_R   0.421611 0.928465 0.422788 -0.061926
C11   C     C_2   0.860291 0.644857 0.703707 0.497252
C12   C     C_R   0.739696 0.499742 0.503249 0.847322
C13   C     C_2   0.139079 0.618381 0.719376 0.448613
C14   C     C_R   0.496710 0.499944 0.262583 0.939298
C15   C     C_R   0.502198 0.499762 0.737429 0.901838
C16   C     C_2   0.490686 0.385841 0.933063 -0.136039
C17   C     C_2   0.497978 0.385301 0.066966 -0.157555
C18   C     C_2   0.512729 0.499360 0.868983 -0.316728
C19   C     C_2   0.483530 0.500114 0.131146 -0.318329
C20   C     C_R   0.064309 0.430487 0.418872 -0.165515
H1    H     H_    0.542008 0.593686 0.911803 0.154190
H2    H     H_    0.514776 0.288475 0.112698 0.174207
H3    H     H_    0.770015 0.606516 0.734323 0.027652
H4    H     H_    0.230630 0.664062 0.706678 0.081774
H5    H     H_    0.458584 0.596219 0.088402 0.158305
H6    H     H_    0.114241 0.378742 0.344858 0.148629
H7    H     H_    0.886194 0.374270 0.347160 0.153276
H8    H     H_    0.640991 0.125663 0.639111 0.139450
H9    H     H_    0.358963 0.126966 0.360944 0.130955
H10   H     H_    0.641047 0.873040 0.639056 0.150342
H11   H     H_    0.358894 0.874352 0.361023 0.136842
H12   H     H_    0.468772 0.290577 0.887114 0.175757
N1    N     N_R   0.500000 0.857200 0.500000 -0.088051
N2    N     N_R   0.500000 0.142810 0.500000 -0.086178
O1    O     O_R   0.316770 0.614620 0.499990 -0.634812
O2    O     O_2   0.099867 0.605542 0.825383 -0.538481
O3    O     O_R   0.683230 0.614620 0.500010 -0.619387
O4    O     O_R   0.316800 0.385290 0.500000 -0.608822
O5    O     O_R   0.683200 0.385290 0.500000 -0.613044
O6    O     O_R   0.500000 0.614630 0.319080 -0.612951
O7    O     O_R   0.500000 0.614630 0.680920 -0.635077
O8    O     O_R   0.500030 0.385300 0.319080 -0.620714
O9    O     O_R   0.499970 0.385300 0.680920 -0.616996
O10   O     O_2   0.897022 0.753261 0.744738 -0.546131
Zn1   Zn    Zn3+2 0.500000 0.653120 0.500000 0.953354
Zn2   Zn    Zn3+2 0.500000 0.346880 0.500000 0.954959

loop_
_geom_bond_atom_site_label_1
_geom_bond_atom_site_label_2
_ccdc_geom_bond_type
C15   C18   S    
C2    H7    S    
N2    Zn2   S    
C16   H12   S    
C18   H1    S    
N1    Zn1   S    
C17   H2    S    
C14   O8    A    
C1    C4    S    
C12   O5    A    
C2    C3    A    
C15   O9    A    
C11   O10   D    
C8    N2    A    
C6    C13   S    
C9    N1    A    
C1    O1    A    
C5    C6    A    
C20   H6    S    
C1    O4    A    
O5    Zn2   S    
C8    H9    S    
C9    H10   S    
C4    C6    A    
O9    Zn2   S    
C14   O6    A    
C5    C11   S    
C10   N1    A    
O6    Zn1   S    
C19   H5    S    
C7    N2    A    
O4    Zn2   S    
O3    Zn1   S    
O1    Zn1   S    
C15   O7    A    
C13   O2    D    
C16   C18   D    
O8    Zn2   S    
C11   H3    S    
C12   O3    A    
C7    C9    A    
O7    Zn1   S    
C14   C19   S    
C3    C12   S    
C17   C19   D    
C2    C20   A    
C10   H11   S    
C8    C10   A    
C7    H8    S    
C13   H4    S    
C16   C17   S    
C3    C5    A    
C4    C20   A    
