data_mof_unit_52980.cif
_audit_creation_date              2012-12-10T18:27:47-0500
_audit_creation_method            fapswitch 2.2
_symmetry_space_group_name_H-M    P1
_symmetry_Int_Tables_number       1
_space_group_crystal_system       triclinic
_cell_length_a                    19.486923
_cell_length_b                    19.177806
_cell_length_c                    19.43921
_cell_angle_alpha                 111.260148
_cell_angle_beta                  111.999949
_cell_angle_gamma                 104.532416
_cell_volume                      5613.43104054

loop_
_atom_site_label
_atom_site_type_symbol
_atom_type_description
_atom_site_fract_x
_atom_site_fract_y
_atom_site_fract_z
_atom_type_partial_charge
C1    C     C_R   0.891906 0.391782 0.999773 0.859850
C2    C     C_R   0.975629 0.822193 0.038490 -0.329857
C3    C     C_R   0.751280 0.570012 0.750266 -0.181028
C4    C     C_R   0.682398 0.494484 0.683929 -0.090640
C5    C     C_R   0.672359 0.420394 0.687668 0.052473
C6    C     C_R   0.739480 0.421034 0.750532 0.023757
C7    C     C_R   0.810213 0.498208 0.816396 -0.124016
C8    C     C_R   0.811684 0.573692 0.820037 -0.009040
C9    C     C_R   0.544430 0.313889 0.664145 -0.054530
C10   C     C_R   0.473793 0.235205 0.609501 0.335356
C11   C     C_R   0.451523 0.184476 0.523465 -0.058732
C12   C     C_R   0.880889 0.500223 0.881681 0.824595
C13   C     C_R   0.498516 0.214822 0.491029 -0.058089
C14   C     C_R   0.564907 0.295083 0.544075 -0.244863
C15   C     C_R   0.591058 0.343393 0.630811 0.011505
C16   C     C_1   0.829841 0.330428 0.998083 -0.105896
C17   C     C_1   0.777992 0.279000 0.996969 0.031623
C18   C     C_1   0.717941 0.219017 0.996762 0.071624
C19   C     C_1   0.667365 0.168220 0.997605 -0.103664
C20   C     C_R   0.997803 0.503412 0.282378 -0.315226
C21   C     C_R   0.075099 0.526199 0.287904 0.600077
C22   C     C_R   0.091520 0.463933 0.240540 -0.024495
C23   C     C_R   0.107459 0.608223 0.999563 0.860849
C24   C     C_R   0.031824 0.378900 0.190939 -0.089001
C25   C     C_R   0.957052 0.357643 0.190433 -0.094347
C26   C     C_R   0.939678 0.419499 0.235731 -0.020078
C27   C     C_R   0.240915 0.493490 0.316061 -0.060051
C28   C     C_R   0.315380 0.504278 0.315508 -0.123957
C29   C     C_R   0.325892 0.517436 0.251986 0.105882
C30   C     C_R   0.261439 0.518955 0.188848 -0.049752
C31   C     C_R   0.185372 0.501148 0.185732 -0.149057
C32   C     C_R   0.174286 0.487662 0.248221 -0.027841
C33   C     C_R   0.460794 0.614237 0.278276 -0.176682
C34   C     C_R   0.117580 0.499113 0.118440 0.855561
C35   C     C_R   0.527187 0.624463 0.263649 0.340276
C36   C     C_R   0.535856 0.554551 0.218712 0.340709
C37   C     C_R   0.484648 0.474837 0.197465 -0.189846
C38   C     C_R   0.417423 0.463429 0.211438 0.387291
C39   C     C_R   0.404788 0.532817 0.251122 -0.099896
C40   C     C_1   0.168768 0.669320 0.000152 -0.136619
C41   C     C_1   0.220356 0.720084 0.000335 -0.007289
C42   C     C_1   0.280846 0.779411 0.000379 0.015869
C43   C     C_1   0.332173 0.830339 0.000450 -0.132656
C44   C     C_R   0.502550 0.380570 0.383441 0.863312
C45   C     C_R   0.918122 0.766276 0.042508 -0.104817
C46   C     C_R   0.618258 0.497212 0.617157 0.774779
C47   C     C_R   0.495976 0.619396 0.614431 0.828301
C48   C     C_R   0.381334 0.500836 0.380904 0.830606
C49   C     C_R   0.497819 0.880625 0.879516 0.818183
C50   C     C_R   0.607586 0.107831 0.999261 0.829200
C51   C     C_R   0.501015 0.117857 0.120484 0.837801
C52   C     C_R   0.392356 0.891498 0.000009 0.841367
C53   C     C_R   0.770910 0.513144 0.513770 0.497917
C54   C     C_R   0.701559 0.455400 0.429997 -0.119274
C55   C     C_R   0.660248 0.371266 0.407085 -0.226801
C56   C     C_R   0.862983 0.685186 0.971570 -0.011934
C57   C     C_R   0.697472 0.343002 0.461944 0.392824
C58   C     C_R   0.765083 0.400818 0.546259 0.388784
C59   C     C_R   0.798698 0.486283 0.572490 -0.422608
C60   C     C_R   0.574792 0.245856 0.260970 -0.167938
C61   C     C_R   0.499365 0.183120 0.187154 -0.132358
C62   C     C_R   0.423850 0.184037 0.176687 0.065015
C63   C     C_R   0.425586 0.248342 0.243088 0.521815
C64   C     C_R   0.502624 0.312908 0.316876 -0.182668
C65   C     C_R   0.577950 0.311089 0.326300 0.019214
C66   C     C_R   0.307541 0.127091 0.025932 0.512106
C67   C     C_R   0.871023 0.658030 0.897777 -0.115492
C68   C     C_R   0.236586 0.059470 0.947021 -0.181744
C69   C     C_R   0.209793 0.978575 0.936304 -0.116429
C70   C     C_R   0.245432 0.969225 0.007820 -0.208262
C71   C     C_R   0.310159 0.037843 0.089131 0.361736
C72   C     C_R   0.343588 0.116433 0.097142 -0.059434
C73   C     C_R   0.548045 0.835294 0.543089 -0.098624
C74   C     C_R   0.549416 0.796402 0.592257 -0.075944
C75   C     C_R   0.479825 0.763823 0.597508 0.015942
C76   C     C_R   0.406384 0.764851 0.548025 -0.328443
C77   C     C_R   0.404082 0.804665 0.500018 0.499327
C78   C     C_R   0.929565 0.715103 0.894114 0.514897
C79   C     C_R   0.476574 0.843956 0.501124 0.422920
C80   C     C_R   0.494017 0.821155 0.741101 -0.033632
C81   C     C_R   0.499740 0.814993 0.812878 -0.216586
C82   C     C_R   0.512413 0.748881 0.823000 -0.092265
C83   C     C_R   0.512752 0.685955 0.757945 0.439744
C84   C     C_R   0.498387 0.687633 0.682069 -0.207776
C85   C     C_R   0.491393 0.756452 0.674273 -0.043033
C86   C     C_R   0.615658 0.791882 0.970687 -0.176321
C87   C     C_R   0.639385 0.794483 0.048702 -0.271352
C88   C     C_R   0.580244 0.753804 0.063151 0.427476
C89   C     C_R   0.979168 0.798729 0.963410 -0.043678
C90   C     C_R   0.495955 0.707060 0.996287 0.448592
C91   C     C_R   0.471538 0.704279 0.916221 -0.122693
C92   C     C_R   0.532467 0.747835 0.904342 0.036767
Cu1   Cu    Cu3+1 0.999510 0.561800 0.061330 1.010103
Cu2   Cu    Cu3+1 0.000490 0.438200 0.938670 1.010890
Cu3   Cu    Cu3+1 0.555790 0.555750 0.499960 1.046146
Cu4   Cu    Cu3+1 0.444210 0.444200 0.499990 1.002213
Cu5   Cu    Cu3+1 0.438200 0.001560 0.939770 0.934260
Cu6   Cu    Cu3+1 0.561800 0.998350 0.060150 0.966869
H1    H     H_    0.014671 0.885565 0.092811 0.163291
H2    H     H_    0.599538 0.319103 0.519161 0.168783
H3    H     H_    0.983007 0.551048 0.315127 0.135248
H4    H     H_    0.911797 0.292646 0.154079 0.214436
H5    H     H_    0.914691 0.787868 0.100354 0.187033
H6    H     H_    0.846805 0.532623 0.638482 0.205500
H7    H     H_    0.632034 0.244446 0.267331 0.163568
H8    H     H_    0.223134 0.907510 0.999570 0.177574
H9    H     H_    0.606663 0.797537 0.632154 0.205400
H10   H     H_    0.353346 0.742435 0.554116 0.150098
H11   H     H_    0.662630 0.824801 0.961773 0.165167
H12   H     H_    0.704454 0.827352 0.097665 0.173538
H13   H     H_    0.754734 0.627710 0.751120 0.173614
O1    O     O_R   0.918180 0.470790 0.051800 -0.587293
O2    O     O_R   0.453580 0.362680 0.410500 -0.590391
O3    O     O_R   0.637300 0.547080 0.590140 -0.568136
O4    O     O_R   0.543070 0.452880 0.590170 -0.571066
O5    O     O_R   0.546420 0.637270 0.589450 -0.600701
O6    O     O_R   0.452190 0.543070 0.589480 -0.551037
O7    O     O_R   0.456930 0.547080 0.409790 -0.571249
O8    O     O_R   0.362710 0.452870 0.409810 -0.592480
O9    O     O_R   0.446190 0.911170 0.857320 -0.610342
O10   O     O_R   0.550560 0.908460 0.958980 -0.575211
O11   O     O_R   0.529210 0.082710 0.949130 -0.596081
O12   O     O_R   0.919010 0.366410 0.948200 -0.547580
O13   O     O_R   0.633590 0.080000 0.050790 -0.561627
O14   O     O_R   0.449440 0.091450 0.040930 -0.620820
O15   O     O_R   0.553810 0.088740 0.142590 -0.575422
O16   O     O_R   0.366410 0.919910 0.949130 -0.566117
O17   O     O_R   0.470790 0.917200 0.050790 -0.596923
O18   O     O_R   0.909400 0.552190 0.961620 -0.593497
O19   O     O_R   0.910240 0.447810 0.858030 -0.578206
O20   O     O_R   0.080990 0.633590 0.051800 -0.585868
O21   O     O_R   0.081820 0.529210 0.948200 -0.567101
O22   O     O_R   0.089760 0.552190 0.141970 -0.564030
O23   O     O_R   0.090600 0.447810 0.038380 -0.587378
O24   O     O_R   0.547810 0.456880 0.410470 -0.569099
C93   C     C_2   0.377072 0.102096 0.469106 0.411463
H14   H     H_    0.359453 0.068044 0.498554 0.110808
O25   O     O_2   0.332313 0.073442 0.392066 -0.561113
C94   C     C_2   0.485250 0.163259 0.404975 0.501843
H15   H     H_    0.497420 0.192621 0.369849 0.079548
O26   O     O_2   0.465952 0.088657 0.374955 -0.522054
C95   C     C_2   0.861237 0.397667 0.235659 0.364837
H16   H     H_    0.847300 0.446849 0.267579 0.069161
O27   O     O_2   0.811724 0.324835 0.201062 -0.563131
O28   O     O_3   0.133842 0.609211 0.334717 -0.594738
C96   C     C_3   0.149968 0.648126 0.419928 -0.353897
H17   H     H_    0.101827 0.668040 0.422754 0.173658
H18   H     H_    0.209491 0.705605 0.460344 0.214930
H19   H     H_    0.156123 0.607651 0.448728 0.173693
C97   C     C_2   0.047521 0.311786 0.140799 0.405415
H20   H     H_    0.105370 0.326576 0.141527 0.078795
O29   O     O_2   0.995689 0.238664 0.097551 -0.528866
C98   C     C_2   0.235180 0.493804 0.390632 0.413025
H21   H     H_    0.288321 0.535917 0.455525 0.055449
O30   O     O_2   0.172628 0.446230 0.380564 -0.544967
C99   C     C_2   0.275009 0.539771 0.126628 0.372910
H22   H     H_    0.310447 0.516815 0.100689 0.047689
O31   O     O_2   0.250399 0.586232 0.107321 -0.558422
C100  C     C_2   0.451037 0.689764 0.320409 0.415921
H23   H     H_    0.488671 0.749453 0.331443 0.123931
O32   O     O_2   0.401642 0.686897 0.344488 -0.600390
O33   O     O_3   0.581680 0.703200 0.289117 -0.600200
C101  C     C_3   0.652331 0.734080 0.369290 -0.193855
H24   H     H_    0.688660 0.698350 0.362423 0.233989
H25   H     H_    0.635778 0.733017 0.418000 0.163944
H26   H     H_    0.692611 0.800150 0.393928 0.168112
O34   O     O_3   0.599118 0.565822 0.201318 -0.564313
C102  C     C_3   0.568893 0.560713 0.120507 -0.186522
H27   H     H_    0.542954 0.605814 0.118128 0.230188
H28   H     H_    0.521083 0.496229 0.067548 0.108803
H29   H     H_    0.620935 0.576396 0.109154 0.215177
C103  C     C_2   0.502875 0.404593 0.160967 0.400570
H30   H     H_    0.538292 0.407118 0.129449 0.080415
O35   O     O_2   0.482364 0.344573 0.169753 -0.524552
O36   O     O_3   0.364656 0.384706 0.188042 -0.518552
C104  C     C_3   0.299991 0.344630 0.101644 -0.085792
H31   H     H_    0.261219 0.279747 0.081764 0.237767
H32   H     H_    0.323792 0.341637 0.057295 0.166026
H33   H     H_    0.258717 0.375292 0.094253 0.081297
O37   O     O_3   0.807246 0.597212 0.540405 -0.507261
C105  C     C_3   0.887171 0.619913 0.552087 -0.207983
H34   H     H_    0.885617 0.578828 0.493153 0.126920
H35   H     H_    0.929963 0.619275 0.608770 0.150677
H36   H     H_    0.912394 0.684800 0.564787 0.198553
C106  C     C_2   0.674422 0.481013 0.364849 0.474890
H37   H     H_    0.636975 0.433825 0.297211 0.080107
O38   O     O_2   0.693653 0.554283 0.385467 -0.511082
O39   O     O_3   0.661529 0.258875 0.435435 -0.580000
C107  C     C_3   0.713562 0.223572 0.420597 -0.231182
H38   H     H_    0.677503 0.154456 0.383453 0.189518
H39   H     H_    0.766816 0.240714 0.482238 0.194821
H40   H     H_    0.736151 0.241646 0.381877 0.131462
O40   O     O_3   0.789433 0.372010 0.603139 -0.568269
C108  C     C_3   0.876323 0.410216 0.656814 -0.314320
H41   H     H_    0.898113 0.471828 0.712803 0.171633
H42   H     H_    0.908779 0.416455 0.621252 0.149991
H43   H     H_    0.893153 0.370224 0.682645 0.201720
C109  C     C_2   0.796086 0.630705 0.974575 0.389832
H44   H     H_    0.751405 0.568745 0.919987 0.137073
O41   O     O_2   0.789775 0.654628 0.038328 -0.544335
O42   O     O_3   0.353253 0.254324 0.232293 -0.545613
C110  C     C_3   0.310554 0.199866 0.251311 -0.233645
H45   H     H_    0.274180 0.226565 0.274904 0.198042
H46   H     H_    0.352018 0.191599 0.302451 0.150030
H47   H     H_    0.265911 0.138290 0.191935 0.159422
O43   O     O_3   0.342050 0.204232 0.034195 -0.539941
C111  C     C_3   0.383850 0.201238 0.988025 -0.143709
H48   H     H_    0.382707 0.248313 0.967827 0.154962
H49   H     H_    0.356245 0.139682 0.928812 0.117605
H50   H     H_    0.449671 0.218883 0.030700 0.179711
C112  C     C_2   0.193503 0.073905 0.875909 0.383077
H51   H     H_    0.162247 0.025302 0.809085 0.038798
O44   O     O_2   0.192342 0.141141 0.891506 -0.514418
C113  C     C_2   0.145541 0.902612 0.851201 0.482819
H52   H     H_    0.103177 0.906767 0.799389 0.061812
O45   O     O_2   0.138888 0.833212 0.837788 -0.541932
O46   O     O_3   0.348239 0.028823 0.159753 -0.580870
C114  C     C_3   0.289502 0.977781 0.168391 -0.251210
H53   H     H_    0.270757 0.910678 0.126928 0.154878
H54   H     H_    0.234286 0.990017 0.154771 0.126504
H55   H     H_    0.318757 0.991523 0.235758 0.264863
O47   O     O_3   0.476217 0.887516 0.457871 -0.604850
C115  C     C_3   0.495660 0.970477 0.513632 -0.269415
H56   H     H_    0.557821 0.002140 0.572821 0.161601
H57   H     H_    0.447778 0.972906 0.531187 0.193094
H58   H     H_    0.497256 0.006036 0.479741 0.219099
C116  C     C_2   0.622606 0.871320 0.539628 0.354732
H59   H     H_    0.621393 0.900701 0.501132 0.112084
O48   O     O_2   0.686361 0.868415 0.579455 -0.540143
O49   O     O_3   0.933851 0.690111 0.820147 -0.539070
C117  C     C_3   0.997644 0.665280 0.832100 -0.231796
H60   H     H_    0.986406 0.613266 0.845729 0.094002
H61   H     H_    0.059083 0.718908 0.884531 0.181391
H62   H     H_    0.999324 0.642203 0.771820 0.188949
O50   O     O_3   0.334882 0.816203 0.463933 -0.618500
C118  C     C_3   0.290082 0.762574 0.373818 -0.132803
H63   H     H_    0.275682 0.696321 0.355674 0.214496
H64   H     H_    0.323424 0.783173 0.343991 0.214180
H65   H     H_    0.230225 0.765277 0.346803 0.186682
C119  C     C_2   0.497000 0.898527 0.738532 0.388230
H66   H     H_    0.447057 0.915404 0.734062 0.095028
O51   O     O_2   0.555529 0.943385 0.740618 -0.539594
O52   O     O_3   0.523030 0.620187 0.767072 -0.559817
C120  C     C_3   0.606406 0.635609 0.796303 -0.236665
H67   H     H_    0.627130 0.646205 0.753381 0.125118
H68   H     H_    0.612538 0.579953 0.797018 0.226673
H69   H     H_    0.648338 0.689553 0.863028 0.155035
O53   O     O_3   0.604642 0.752569 0.139227 -0.569637
C121  C     C_3   0.642895 0.834845 0.209491 -0.289124
H70   H     H_    0.607042 0.870312 0.196771 0.139379
H71   H     H_    0.707478 0.869181 0.227057 0.162197
H72   H     H_    0.645879 0.831387 0.266153 0.222826
O54   O     O_3   0.438153 0.657420 0.005076 -0.545391
C122  C     C_3   0.428909 0.706836 0.072179 -0.187258
H73   H     H_    0.442529 0.771387 0.083703 0.130175
H74   H     H_    0.468146 0.709442 0.132575 0.199509
H75   H     H_    0.363767 0.676047 0.054631 0.207961
C123  C     C_2   0.383123 0.657281 0.845308 0.435084
H76   H     H_    0.366008 0.651250 0.782804 0.061057
O55   O     O_2   0.327894 0.625420 0.855555 -0.494599
C124  C     C_2   0.031475 0.864121 0.957435 0.401955
H77   H     H_    0.082469 0.921179 0.015599 0.034820
O56   O     O_2   0.015503 0.856962 0.887575 -0.482946
C125  C     C_2   0.731816 0.340865 0.748275 0.382661
H78   H     H_    0.700056 0.283210 0.686789 0.095691
O57   O     O_2   0.756558 0.337648 0.814195 -0.556275
C126  C     C_2   0.566942 0.363372 0.755152 0.396711
H79   H     H_    0.544062 0.332526 0.784502 0.126115
O58   O     O_2   0.608756 0.439091 0.797614 -0.584594
O59   O     O_3   0.427521 0.206304 0.641316 -0.611133
C127  C     C_3   0.365072 0.233242 0.627759 -0.326680
H80   H     H_    0.391790 0.302728 0.662693 0.175278
H81   H     H_    0.328085 0.210255 0.653370 0.201636
H82   H     H_    0.322175 0.207027 0.557920 0.170147

loop_
_geom_bond_atom_site_label_1
_geom_bond_atom_site_label_2
_ccdc_geom_bond_type
C27   C98   S    
Cu6   O10   S    
C66   C68   A    
C87   C88   A    
C120  H68   S    
Cu1   Cu2   S    
C11   C13   A    
C127  H82   S    
C126  O58   D    
C41   C42   S    
Cu4   O8    S    
C108  H42   S    
Cu3   Cu4   S    
C50   O11   A    
Cu5   O16   S    
C37   C103  S    
C60   C61   A    
Cu5   Cu6   S    
C52   O17   A    
C115  H58   S    
C7    C8    A    
C87   H12   S    
C4    C46   S    
C105  H34   S    
C44   C64   S    
Cu6   O13   S    
C9    C126  S    
C121  H70   S    
C33   C39   A    
C110  H46   S    
C46   O4    A    
C79   O47   S    
C83   C84   A    
C5    C6    A    
C59   H6    S    
C13   C94   S    
C36   C37   A    
C101  H25   S    
O33   C101  S    
Cu1   O22   S    
C2    C89   A    
C1    O1    A    
C30   C31   A    
C66   O43   S    
C113  O45   D    
C25   H4    S    
C106  O38   D    
C49   O9    A    
C7    C12   S    
C34   O23   A    
Cu3   O3    S    
C23   C40   S    
C116  O48   D    
C83   O52   S    
C77   O50   S    
C82   C92   S    
C120  H67   S    
C18   C19   T    
O42   C110  S    
C49   C81   S    
C107  H39   S    
C57   O39   S    
C122  H74   S    
C45   H5    S    
Cu2   O23   S    
C74   H9    S    
C84   C85   A    
C75   C85   S    
C102  H29   S    
C66   C72   A    
C116  H59   S    
C45   C56   A    
C3    H13   S    
C16   C17   T    
C121  H72   S    
C54   C106  S    
C51   C61   S    
C111  H50   S    
O50   C118  S    
C100  O32   D    
Cu4   O4    S    
C104  H31   S    
C109  H44   S    
C98   O30   D    
C29   C30   A    
C9    C10   A    
C22   C32   S    
C38   O36   S    
Cu2   O12   S    
C44   O24   A    
C30   C99   S    
C108  H41   S    
C76   H10   S    
C13   C14   A    
C57   C58   A    
C100  H23   S    
C28   C48   S    
C80   C85   A    
C61   C62   A    
C67   C78   A    
Cu1   O18   S    
O53   C121  S    
Cu3   O24   S    
C55   C65   S    
C52   O16   A    
C103  O35   D    
O28   C96   S    
C48   O8    A    
C96   H18   S    
C77   C79   A    
C78   C89   A    
C53   C59   A    
C47   O5    A    
C94   H15   S    
Cu1   O20   S    
C121  H71   S    
C35   O33   S    
C110  H45   S    
C46   O3    A    
C62   C72   S    
C111  H48   S    
C51   O14   A    
C102  H27   S    
Cu4   O6    S    
C101  H26   S    
C50   O13   A    
C24   C25   A    
C115  H56   S    
Cu5   O14   S    
C3    C8    A    
C70   H8    S    
C105  H35   S    
C91   C92   A    
C124  O56   D    
C56   C109  S    
O43   C111  S    
C68   C69   A    
C48   O7    A    
C20   H3    S    
C34   O22   A    
C25   C26   A    
C53   C54   A    
C110  H47   S    
C36   O34   S    
C81   C82   A    
C3    C4    A    
C63   C64   A    
O39   C107  S    
C35   C36   A    
C21   O28   S    
C107  H40   S    
C123  O55   D    
C75   C76   A    
C1    O12   A    
C112  H51   S    
C37   C38   A    
O36   C104  S    
C88   O53   S    
C96   H19   S    
C60   C65   A    
C118  H63   S    
C114  H54   S    
C31   C32   A    
C14   C15   A    
C47   O6    A    
Cu3   O5    S    
C24   C97   S    
C49   O10   A    
C29   C39   S    
C62   C63   A    
C119  O51   D    
C17   C18   S    
C73   C79   A    
C31   C34   S    
C23   O20   A    
C117  H61   S    
C1    C16   S    
Cu2   O19   S    
C47   C84   S    
C76   C77   A    
C70   C71   A    
C12   O19   A    
C93   O25   D    
C40   C41   T    
O46   C114  S    
C90   O54   S    
C88   C90   A    
C44   O2    A    
O40   C108  S    
C10   C11   A    
C55   C57   A    
C97   O29   D    
Cu4   O2    S    
C58   C59   A    
C89   C124  S    
C42   C43   T    
C90   C91   A    
Cu5   O11   S    
C86   C92   A    
C53   O37   S    
C74   C75   A    
O34   C102  S    
C95   O27   D    
O37   C105  S    
C86   C87   A    
C114  H55   S    
C73   C116  S    
C96   H17   S    
C105  H36   S    
C107  H38   S    
C127  H81   S    
C127  H80   S    
C54   C55   A    
C28   C29   A    
C73   C74   A    
C63   O42   S    
C99   H22   S    
C112  O44   D    
C27   C32   A    
C113  H52   S    
C51   O15   A    
C86   H11   S    
C104  H32   S    
C80   C81   A    
C2    H1    S    
C6    C125  S    
C126  H79   S    
C115  H57   S    
C14   H2    S    
C6    C7    A    
Cu6   O17   S    
C78   O49   S    
C56   C67   A    
C58   O40   S    
C106  H37   S    
C71   O46   S    
C118  H65   S    
C64   C65   A    
C104  H33   S    
C122  H73   S    
C99   O31   D    
C123  H76   S    
C125  H78   S    
O49   C117  S    
C91   C123  S    
C26   C95   S    
C11   C93   S    
C94   O26   D    
C19   C50   S    
C80   C119  S    
C114  H53   S    
O54   C122  S    
C20   C26   A    
Cu5   O9    S    
C4    C5    A    
C38   C39   A    
C102  H28   S    
C119  H66   S    
C33   C35   A    
C118  H64   S    
C23   O21   A    
C117  H62   S    
C22   C24   A    
C9    C15   A    
C69   C70   A    
C43   C52   S    
Cu2   O21   S    
C12   O18   A    
C5    C15   S    
C101  H24   S    
C69   C113  S    
C2    C45   A    
Cu1   O1    S    
C103  H30   S    
C108  H43   S    
C33   C100  S    
C122  H75   S    
Cu6   O15   S    
C71   C72   A    
C20   C21   A    
C8    C67   S    
C125  O57   D    
C82   C83   A    
C10   O59   S    
Cu3   O7    S    
C117  H60   S    
C111  H49   S    
C124  H77   S    
C95   H16   S    
C93   H14   S    
C109  O41   D    
C120  H69   S    
C98   H21   S    
C21   C22   A    
C68   C112  S    
O47   C115  S    
O59   C127  S    
C60   H7    S    
O52   C120  S    
C97   H20   S    
C27   C28   A    
