data_mof_unit_24952.cif
_audit_creation_date              2012-12-10T17:28:38-0500
_audit_creation_method            fapswitch 2.2
_symmetry_space_group_name_H-M    P1
_symmetry_Int_Tables_number       1
_space_group_crystal_system       triclinic
_cell_length_a                    10.695661
_cell_length_b                    11.981139
_cell_length_c                    12.88634
_cell_angle_alpha                 93.115493
_cell_angle_beta                  91.454898
_cell_angle_gamma                 84.108761
_cell_volume                      1639.85995056

loop_
_atom_site_label
_atom_site_type_symbol
_atom_type_description
_atom_site_fract_x
_atom_site_fract_y
_atom_site_fract_z
_atom_type_partial_charge
C1    C     C_R   0.491687 0.522031 0.700155 0.954150
C2    C     C_R   0.485741 0.562793 0.131993 -0.116208
C3    C     C_R   0.483532 0.447027 0.973741 -0.083365
C4    C     C_R   0.479951 0.554597 0.025151 -0.077333
C5    C     C_R   0.393967 0.956547 0.392406 0.583119
C6    C     C_R   0.606612 0.042896 0.606598 0.581820
C7    C     C_R   0.402809 0.840206 0.404234 0.488258
C8    C     C_R   0.597772 0.159171 0.595023 0.527438
C9    C     C_R   0.544612 0.856382 0.547321 0.720750
C10   C     C_R   0.455500 0.143577 0.452357 0.732638
C11   C     C_R   0.538505 0.974430 0.538933 -0.432662
C12   C     C_R   0.500573 0.478235 0.299399 0.984560
C13   C     C_R   0.461830 0.025304 0.460289 -0.441051
C14   C     C_R   0.741237 0.498567 0.501474 0.981859
C15   C     C_R   0.261143 0.504614 0.514250 0.955751
C16   C     C_R   0.885877 0.387371 0.673129 0.264317
C17   C     C_R   0.080800 0.718757 0.491644 0.242782
C18   C     C_R   0.956181 0.305695 0.731242 0.107846
C19   C     C_R   0.012218 0.789027 0.420456 0.142705
C20   C     C_R   0.086681 0.293721 0.725019 -0.315233
C21   C     C_R   0.915954 0.746846 0.359716 -0.233406
C22   C     C_R   0.146516 0.363666 0.664471 0.606613
C23   C     C_R   0.495555 0.465688 0.188019 -0.189144
C24   C     C_R   0.875468 0.643391 0.379515 0.605501
C25   C     C_R   0.075951 0.435933 0.595760 -0.100503
C26   C     C_R   0.933635 0.579945 0.460316 -0.099359
C27   C     C_R   0.944168 0.437468 0.591883 -0.089577
C28   C     C_R   0.050370 0.606008 0.497514 -0.079423
C29   C     C_R   0.129290 0.517390 0.540475 -0.112964
C30   C     C_R   0.875852 0.499215 0.513207 -0.099922
C31   C     C_3   0.785490 0.551312 0.767084 -0.775060
C32   C     C_3   0.141490 0.755813 0.675123 -0.708475
C33   C     C_3   0.908429 0.127450 0.790233 -0.529398
C34   C     C_R   0.481102 0.535282 0.811008 -0.189124
C35   C     C_3   0.960679 0.983205 0.475658 -0.709629
C36   C     C_R   0.472777 0.651943 0.968804 0.690956
C37   C     C_R   0.491460 0.349651 0.030077 0.674559
C38   C     C_R   0.473724 0.642042 0.861442 -0.286035
C39   C     C_R   0.497773 0.359189 0.137475 -0.230595
C40   C     C_R   0.482280 0.438626 0.866885 -0.138059
F1    F     F_    0.319637 0.000800 0.314835 -0.551256
F2    F     F_    0.336167 0.775029 0.339022 -0.612208
F3    F     F_    0.680527 0.998329 0.684198 -0.592326
F4    F     F_    0.270727 0.368006 0.683996 -0.675322
F5    F     F_    0.780679 0.605866 0.319457 -0.666540
F6    F     F_    0.468041 0.755813 0.017294 -0.615226
F7    F     F_    0.494716 0.245867 0.981554 -0.624080
F8    F     F_    0.381463 0.195069 0.378465 -0.579297
F9    F     F_    0.618608 0.804959 0.621267 -0.601310
F10   F     F_    0.663698 0.223755 0.660658 -0.642969
H1    H     H_    0.867337 0.797414 0.301098 0.203280
H2    H     H_    0.753300 0.553151 0.848541 0.244100
H3    H     H_    0.204386 0.836662 0.549289 0.206356
H4    H     H_    0.226114 0.713547 0.713576 0.246023
H5    H     H_    0.060263 0.707462 0.687411 0.243065
H6    H     H_    0.120508 0.841156 0.712637 0.234550
H7    H     H_    0.922007 0.273073 0.882217 0.238910
H8    H     H_    0.006447 0.091228 0.806083 0.189234
H9    H     H_    0.881301 0.103787 0.708851 0.276489
H10   H     H_    0.844971 0.091454 0.843417 0.281998
H11   H     H_    0.129428 0.915935 0.409818 0.273229
H12   H     H_    0.142533 0.238687 0.776209 0.204589
H13   H     H_    0.980015 0.069564 0.458539 0.253777
H14   H     H_    0.984017 0.969668 0.558856 0.235332
H15   H     H_    0.858962 0.975698 0.460840 0.248478
H16   H     H_    0.483616 0.645194 0.171471 0.259456
H17   H     H_    0.486175 0.356180 0.827303 0.263540
H18   H     H_    0.504438 0.283723 0.180783 0.228185
H19   H     H_    0.471405 0.717273 0.818148 0.224469
H20   H     H_    0.723255 0.392333 0.759023 0.296312
H21   H     H_    0.727387 0.617015 0.725089 0.297079
H22   H     H_    0.884360 0.572841 0.769581 0.244696
N1    N     N_R   0.523130 0.207800 0.519340 -0.231080
N2    N     N_R   0.476870 0.792200 0.480660 -0.236795
N3    N     N_2   0.772666 0.441845 0.715578 -0.292446
N4    N     N_2   0.166171 0.764478 0.565849 -0.277495
N5    N     N_2   0.897294 0.248380 0.807207 -0.284376
N6    N     N_2   0.036027 0.902377 0.409833 -0.265509
O1    O     O_R   0.506170 0.421700 0.658830 -0.543851
O2    O     O_R   0.493830 0.578300 0.341170 -0.554626
O3    O     O_R   0.491330 0.609310 0.646410 -0.615698
O4    O     O_R   0.508670 0.390690 0.353590 -0.601518
O5    O     O_R   0.690650 0.406190 0.506220 -0.605294
O6    O     O_R   0.309350 0.593810 0.493780 -0.600729
O7    O     O_R   0.675800 0.593810 0.493800 -0.563955
O8    O     O_R   0.324200 0.406190 0.506200 -0.536943
Zn1   Zn    Zn3+2 0.509910 0.374730 0.508290 1.094209
Zn2   Zn    Zn3+2 0.490090 0.625270 0.491710 1.074401

loop_
_geom_bond_atom_site_label_1
_geom_bond_atom_site_label_2
_ccdc_geom_bond_type
O5    Zn1   S    
C4    C36   A    
C33   H8    S    
C16   N3    S    
C39   H18   S    
C31   H2    S    
O1    Zn1   S    
C12   C23   S    
C34   C40   A    
C24   F5    S    
C28   C29   A    
C19   C21   A    
C24   C26   A    
C10   N1    A    
C35   H15   S    
C1    O3    A    
O4    Zn1   S    
C7    F2    S    
N1    Zn1   S    
C22   F4    S    
C22   C25   A    
C17   N4    S    
C36   F6    S    
C35   H14   S    
C37   F7    S    
C32   H5    S    
C5    C13   A    
C16   C27   A    
C31   H21   S    
C38   H19   S    
C33   H9    S    
C27   C30   A    
C14   O5    A    
C14   C30   S    
C32   H4    S    
C1    C34   S    
C15   C29   S    
C7    N2    A    
C25   C29   A    
H7    N5    S    
C9    F9    S    
C6    C11   A    
C5    C7    A    
O8    Zn1   S    
C6    C8    A    
C40   H17   S    
C19   N6    S    
C2    C4    A    
C31   N3    S    
H11   N6    S    
C12   O4    A    
C9    C11   A    
C15   O8    A    
C16   C18   A    
C31   H22   S    
C20   C22   A    
C3    C40   A    
C26   C30   A    
C33   H10   S    
C6    F3    S    
C10   F8    S    
C1    O1    A    
H3    N4    S    
C9    N2    A    
C3    C4    A    
C8    F10   S    
C21   H1    S    
O7    Zn2   S    
C5    F1    S    
C34   C38   A    
C17   C28   A    
O6    Zn2   S    
C14   O7    A    
C2    H16   S    
C10   C13   A    
C32   N4    S    
C15   O6    A    
C25   C27   A    
C35   N6    S    
C26   C28   A    
C36   C38   A    
O2    Zn2   S    
C11   C13   A    
C33   N5    S    
C18   N5    S    
C23   C39   A    
C12   O2    A    
C8    N1    A    
C17   C19   A    
C18   C20   A    
C20   H12   S    
O3    Zn2   S    
C3    C37   A    
C37   C39   A    
C21   C24   A    
C2    C23   A    
H20   N3    S    
C35   H13   S    
N2    Zn2   S    
C32   H6    S    
