data_mof_unit_20261.cif
_audit_creation_date              2012-10-26T19:00:10-0400
_audit_creation_method            fapswitch 2.2
_symmetry_space_group_name_H-M    P1
_symmetry_Int_Tables_number       1
_space_group_crystal_system       triclinic
_cell_length_a                    10.794548
_cell_length_b                    10.795324
_cell_length_c                    9.539464
_cell_angle_alpha                 90.2425
_cell_angle_beta                  90.103526
_cell_angle_gamma                 89.920175
_cell_volume                      1111.6270364

loop_
_atom_site_label
_atom_site_type_symbol
_atom_type_description
_atom_site_fract_x
_atom_site_fract_y
_atom_site_fract_z
_atom_type_partial_charge
C1    C     C_R   0.498492 0.262457 0.499590 0.546588
C2    C     C_R   0.837605 0.271554 0.936551 -0.111091
C3    C     C_R   0.772914 0.169123 0.884345 -0.108155
C4    C     C_R   0.262422 0.502903 0.499929 0.546116
C5    C     C_R   0.762122 0.150916 0.739651 -0.108913
C6    C     C_R   0.813926 0.236196 0.646969 -0.062528
C7    C     C_R   0.879171 0.339231 0.698663 0.050189
C8    C     C_R   0.428015 0.063604 0.598737 0.012252
C9    C     C_R   0.491861 0.129338 0.496039 0.006768
C10   C     C_R   0.542209 0.064242 0.381574 -0.177041
C11   C     C_R   0.544015 0.935208 0.382255 -0.172527
C12   C     C_R   0.237997 0.815438 0.107463 -0.104220
C13   C     C_R   0.495570 0.870718 0.497422 0.004659
C14   C     C_R   0.430971 0.936503 0.599774 0.007301
C15   C     C_3   0.432578 0.930552 0.755829 -0.269899
C16   C     C_R   0.500577 0.737557 0.500011 0.546363
C17   C     C_3   0.426934 0.071570 0.755144 -0.280269
C18   C     C_R   0.551782 0.596018 0.074138 0.169770
C19   C     C_R   0.437795 0.412121 0.073904 -0.010618
C20   C     C_R   0.437854 0.412070 0.924983 -0.010915
C21   C     C_R   0.551115 0.596422 0.926783 0.157233
C22   C     C_3   0.682087 0.639435 0.920504 -0.278254
C23   C     C_R   0.932983 0.566412 0.400038 -0.157767
C24   C     C_3   0.683524 0.637238 0.079591 -0.283171
C25   C     C_R   0.737627 0.496987 0.500102 0.544277
C26   C     C_R   0.242668 0.841533 0.250904 -0.099388
C27   C     C_R   0.185701 0.762119 0.346355 -0.069125
C28   C     C_R   0.122166 0.656684 0.298309 0.050686
C29   C     C_R   0.116313 0.631748 0.153824 -0.086664
C30   C     C_R   0.175034 0.710564 0.058831 -0.112178
C31   C     C_R   0.871603 0.494694 0.499946 -0.003348
C32   C     C_R   0.938864 0.426346 0.600299 -0.034135
C33   C     C_R   0.067255 0.433966 0.600433 -0.154115
C34   C     C_R   0.128525 0.505244 0.500198 -0.000779
C35   C     C_R   0.061394 0.572982 0.399418 -0.032412
C36   C     C_R   0.892046 0.355580 0.844126 -0.102348
Cu1   Cu    Cu3+1 0.499990 0.499980 0.640670 0.936662
Cu2   Cu    Cu3+1 0.500010 0.500020 0.359330 0.938331
H1    H     H_    0.282666 0.877026 0.034294 0.097490
H2    H     H_    0.510615 0.116398 0.799793 0.146106
H3    H     H_    0.389298 0.339705 0.129243 0.114578
H4    H     H_    0.290168 0.923522 0.288048 0.117174
H5    H     H_    0.389261 0.339755 0.868797 0.108997
H6    H     H_    0.745244 0.570116 0.872639 0.162667
H7    H     H_    0.689742 0.734339 0.876683 0.114932
H8    H     H_    0.746551 0.565158 0.122387 0.146117
H9    H     H_    0.693614 0.730692 0.127483 0.113037
H10   H     H_    0.190474 0.782985 0.457417 0.095262
H11   H     H_    0.067542 0.550849 0.115179 0.092890
H12   H     H_    0.731709 0.103525 0.955935 0.095020
H13   H     H_    0.171420 0.690582 0.947594 0.108696
H14   H     H_    0.880580 0.621008 0.325370 0.116933
H15   H     H_    0.119951 0.379797 0.675384 0.122428
H16   H     H_    0.943194 0.433842 0.885709 0.088628
H17   H     H_    0.846344 0.285376 0.048590 0.106321
H18   H     H_    0.713742 0.070612 0.699136 0.107616
H19   H     H_    0.804765 0.221079 0.535093 0.093414
H20   H     H_    0.585862 0.112620 0.295539 0.127547
H21   H     H_    0.588060 0.886484 0.296237 0.125379
H22   H     H_    0.347286 0.886615 0.797192 0.131184
H23   H     H_    0.521184 0.893441 0.798034 0.135271
H24   H     H_    0.337650 0.108553 0.795529 0.123475
N1    N     N_R   0.500790 0.500930 0.147930 -0.227310
N2    N     N_R   0.500790 0.500890 0.852020 -0.227567
O1    O     O_R   0.500000 0.319640 0.618810 -0.500969
O2    O     O_R   0.500010 0.319680 0.381230 -0.515871
O3    O     O_R   0.319640 0.499990 0.618790 -0.512855
O4    O     O_R   0.319650 0.500030 0.381210 -0.487229
O5    O     O_R   0.499990 0.680320 0.618770 -0.502459
O6    O     O_R   0.500000 0.680360 0.381190 -0.498479
O7    O     O_R   0.680350 0.499970 0.618790 -0.492140
O8    O     O_R   0.680360 0.500010 0.381210 -0.513619

loop_
_geom_bond_atom_site_label_1
_geom_bond_atom_site_label_2
_ccdc_geom_bond_type
C27   H10   S    
C20   N2    A    
C4    O3    A    
C1    O1    A    
C30   H13   S    
Cu2   O6    S    
C25   C31   S    
C6    C7    A    
C25   O7    A    
Cu1   O5    S    
C17   H24   S    
C18   C21   A    
C9    C10   A    
C5    H18   S    
C8    C17   S    
C15   H23   S    
C24   H8    S    
C32   C33   A    
C22   H7    S    
C12   H1    S    
C2    C3    A    
C26   C27   A    
C1    C9    S    
C25   O8    A    
C29   H11   S    
C21   C22   S    
C11   C13   A    
C6    H19   S    
C19   H3    S    
C23   H14   S    
C29   C30   A    
C19   N1    A    
C11   H21   S    
C5    C6    A    
Cu1   O3    S    
C22   C24   S    
C28   C29   A    
C10   H20   S    
Cu1   Cu2   S    
Cu2   O4    S    
C1    O2    A    
C23   C35   A    
C2    H17   S    
Cu1   O7    S    
C4    C34   S    
C33   H15   S    
C33   C34   A    
C34   C35   A    
C31   C32   A    
C18   C24   S    
C18   N1    A    
C36   H16   S    
C10   C11   A    
C23   C31   A    
Cu2   O2    S    
Cu2   O8    S    
C20   H5    S    
C16   O6    A    
C26   H4    S    
C4    O4    A    
Cu2   N1    S    
C7    C36   A    
C13   C16   S    
C2    C36   A    
C27   C28   A    
C15   C17   S    
C14   C15   S    
C8    C9    A    
C21   N2    A    
C8    C14   A    
C7    C32   S    
C12   C30   A    
C13   C14   A    
C24   H9    S    
C3    H12   S    
C15   H22   S    
C22   H6    S    
C16   O5    A    
C19   C20   A    
C28   C35   S    
C12   C26   A    
Cu1   N2    S    
C3    C5    A    
C17   H2    S    
Cu1   O1    S    
