data_mof_unit_64297.cif
_audit_creation_date              2012-12-10T19:52:24-0500
_audit_creation_method            fapswitch 2.2
_symmetry_space_group_name_H-M    P1
_symmetry_Int_Tables_number       1
_space_group_crystal_system       triclinic
_cell_length_a                    18.277609
_cell_length_b                    18.277918
_cell_length_c                    31.875192
_cell_angle_alpha                 89.999869
_cell_angle_beta                  90.000205
_cell_angle_gamma                 90.000449
_cell_volume                      10648.7569957

loop_
_atom_site_label
_atom_site_type_symbol
_atom_type_description
_atom_site_fract_x
_atom_site_fract_y
_atom_site_fract_z
_atom_type_partial_charge
C1    C     C_R   0.641226 0.500020 1.000000 0.932411
C2    C     C_1   0.499998 0.500038 0.163338 -0.048875
C3    C     C_1   0.999997 0.000037 0.336662 -0.048875
C4    C     C_1   0.999999 0.000038 0.663338 -0.048875
C5    C     C_1   0.500004 0.499430 0.663341 -0.045228
C6    C     C_1   0.500008 0.499429 0.336659 -0.045237
C7    C     C_1   0.000011 0.999426 0.163341 -0.045236
C8    C     C_1   0.000004 0.999430 0.836659 -0.045238
C9    C     C_1   0.717647 0.500055 1.000000 -0.186524
C10   C     C_1   0.282353 0.500054 0.000000 -0.186467
C11   C     C_1   0.217647 0.000055 0.500000 -0.186492
C12   C     C_R   0.358774 0.500020 0.000000 0.932454
C13   C     C_1   0.782353 0.000054 0.500000 -0.186500
C14   C     C_1   0.782389 0.500046 1.000000 -0.184152
C15   C     C_1   0.217611 0.500045 0.000000 -0.184105
C16   C     C_1   0.282389 0.000046 0.500000 -0.184123
C17   C     C_1   0.717611 0.000045 0.500000 -0.184134
C18   C     C_R   0.499999 0.358652 0.500000 0.933185
C19   C     C_R   0.999999 0.858652 0.000000 0.933184
C20   C     C_R   0.500000 0.499815 0.581389 0.907127
C21   C     C_R   0.500000 0.499815 0.418611 0.907126
C22   C     C_R   0.000000 0.999814 0.081389 0.907127
C23   C     C_R   0.141226 0.000020 0.500000 0.932436
C24   C     C_R   1.000000 0.999815 0.918611 0.907127
C25   C     C_R   0.500000 0.641067 0.500000 0.932754
C26   C     C_R   0.000000 0.141067 1.000000 0.932755
C27   C     C_R   0.999998 0.641155 1.000000 0.931181
C28   C     C_R   0.499998 0.141155 0.500000 0.931181
C29   C     C_R   0.858811 0.500016 1.000000 0.931391
C30   C     C_R   0.141189 0.500016 0.000000 0.931402
C31   C     C_R   0.358811 0.000016 0.500000 0.931399
C32   C     C_R   0.641189 0.000016 0.500000 0.931394
C33   C     C_R   0.500000 0.500003 0.918612 0.905735
C34   C     C_R   0.858774 0.000020 0.500000 0.932430
C35   C     C_R   0.499999 0.500003 0.081389 0.905730
C36   C     C_R   0.999999 0.000003 0.418611 0.905730
C37   C     C_R   0.999999 0.000003 0.581388 0.905730
C38   C     C_R   0.000002 0.358792 0.000000 0.931417
C39   C     C_R   0.500002 0.858792 0.500000 0.931417
C40   C     C_1   0.499998 0.282264 0.500000 -0.187372
C41   C     C_1   0.999998 0.782264 1.000000 -0.187372
C42   C     C_1   0.999997 0.717543 1.000000 -0.184257
C43   C     C_1   0.499997 0.217543 0.500000 -0.184256
C44   C     C_1   0.500002 0.717543 0.500000 -0.186502
C45   C     C_3   0.501630 0.568117 0.736196 0.254702
C46   C     C_1   0.000002 0.217543 0.000000 -0.186502
C47   C     C_1   0.000003 0.282317 0.000000 -0.183732
C48   C     C_1   0.500003 0.782317 0.500000 -0.183733
C49   C     C_3   0.559578 0.463416 0.735997 -0.239771
C50   C     C_3   0.560516 0.465001 0.264004 -0.239753
C51   C     C_3   0.438778 0.466285 0.735991 -0.239764
C52   C     C_3   0.439680 0.464682 0.264007 -0.239729
C53   C     C_3   0.060840 0.965567 0.235996 -0.239743
C54   C     C_3   0.059963 0.964058 0.764004 -0.239729
C55   C     C_3   0.940012 0.964114 0.235993 -0.239744
C56   C     C_3   0.499825 0.568136 0.263806 0.254646
C57   C     C_3   0.939136 0.965631 0.764008 -0.239753
C58   C     C_3   0.561214 0.533070 0.763996 -0.180533
C59   C     C_3   0.560315 0.534677 0.236007 -0.180562
C60   C     C_3   0.440443 0.535938 0.763990 -0.180597
C61   C     C_3   0.439508 0.534358 0.236010 -0.180522
C62   C     C_3   0.059985 0.035239 0.263994 -0.180548
C63   C     C_3   0.060852 0.033729 0.736006 -0.180493
C64   C     C_3   0.939187 0.033785 0.263990 -0.180539
C65   C     C_3   0.940055 0.035301 0.736010 -0.180591
C66   C     C_1   0.500001 0.500023 0.874152 -0.170581
C67   C     C_3   0.999184 0.068128 0.236194 0.254650
C68   C     C_1   0.499998 0.500023 0.125849 -0.170581
C69   C     C_1   0.999997 0.000023 0.374151 -0.170581
C70   C     C_1   0.999999 0.000023 0.625849 -0.170581
C71   C     C_1   0.500001 0.499603 0.625852 -0.177256
C72   C     C_1   0.500002 0.499604 0.374148 -0.177255
C73   C     C_1   0.000004 0.999601 0.125852 -0.177256
C74   C     C_1   0.000001 0.999605 0.874148 -0.177255
C75   C     C_3   0.498379 0.431399 0.763756 0.051325
C76   C     C_3   0.500184 0.431383 0.236242 0.051313
C77   C     C_3   0.000826 0.931385 0.263758 0.051314
C78   C     C_3   0.000894 0.068131 0.763806 0.254644
C79   C     C_3   0.999111 0.931389 0.736243 0.051314
C80   C     C_3   0.500004 0.499952 0.791218 0.115699
C81   C     C_3   0.500001 0.499958 0.208783 0.115684
C82   C     C_3   0.999999 0.999955 0.291217 0.115686
C83   C     C_3   0.000001 0.999958 0.708783 0.115684
C84   C     C_3   0.500003 0.499409 0.708779 0.170213
C85   C     C_3   0.500009 0.499408 0.291222 0.170210
C86   C     C_3   0.000013 0.999404 0.208778 0.170211
C87   C     C_3   0.000003 0.999409 0.791222 0.170210
C88   C     C_3   0.503484 0.646305 0.719996 -0.922168
C89   C     C_1   0.500002 0.500035 0.836664 -0.048873
C90   C     C_3   0.499617 0.646340 0.280010 -0.922174
C91   C     C_3   0.998241 0.146327 0.219990 -0.922175
C92   C     C_3   0.001911 0.146330 0.780009 -0.922169
C93   C     C_1   0.496586 0.355969 0.779428 0.163789
C94   C     C_1   0.500384 0.355934 0.220563 0.163787
C95   C     C_1   0.001733 0.855941 0.279437 0.163787
C96   C     C_1   0.998129 0.855946 0.720564 0.163787
H1    H     H_    0.610948 0.560985 0.775979 0.148207
H2    H     H_    0.609661 0.436059 0.275989 0.152462
H3    H     H_    0.389033 0.438395 0.724005 0.152511
H4    H     H_    0.390690 0.435483 0.275996 0.152465
H5    H     H_    0.110254 0.937088 0.224012 0.152486
H6    H     H_    0.108648 0.934350 0.775989 0.152450
H7    H     H_    0.891298 0.934457 0.224004 0.152443
H8    H     H_    0.889695 0.937204 0.775997 0.152475
H9    H     H_    0.504394 0.684893 0.746867 0.245361
H10   H     H_    0.553220 0.654621 0.700605 0.247500
H11   H     H_    0.454199 0.656965 0.700603 0.247337
H12   H     H_    0.609294 0.563899 0.224020 0.148179
H13   H     H_    0.499511 0.684936 0.253136 0.245372
H14   H     H_    0.450066 0.655688 0.299402 0.247459
H15   H     H_    0.549119 0.655955 0.299401 0.247403
H16   H     H_    0.997773 0.184921 0.246863 0.245371
H17   H     H_    0.047650 0.156407 0.200598 0.247401
H18   H     H_    0.948604 0.155210 0.200597 0.247459
H19   H     H_    0.002410 0.184922 0.753135 0.245373
H20   H     H_    0.952512 0.156453 0.799401 0.247352
H21   H     H_    0.051556 0.155168 0.799401 0.247510
H22   H     H_    0.392089 0.566186 0.775968 0.148206
H23   H     H_    0.390375 0.563323 0.224027 0.148218
H24   H     H_    0.108688 0.064919 0.275979 0.148205
H25   H     H_    0.110282 0.062179 0.724019 0.148229
H26   H     H_    0.889784 0.062288 0.275972 0.148194
H27   H     H_    0.891381 0.065032 0.724028 0.148168
H28   H     H_    0.607944 0.433192 0.724017 0.152434
N1    N     N_1   0.495171 0.296476 0.791803 -0.198858
N2    N     N_1   0.500543 0.296430 0.208178 -0.198853
N3    N     N_1   0.002450 0.796441 0.291821 -0.198854
N4    N     N_1   0.997356 0.796446 0.708180 -0.198853
O1    O     O_R   0.607370 0.439420 0.000000 -0.617794
O2    O     O_R   0.392710 0.560580 0.000000 -0.619666
O3    O     O_R   0.107290 0.060580 0.500000 -0.619653
O4    O     O_R   0.892710 0.060580 0.500000 -0.619665
O5    O     O_R   0.500000 0.439420 0.938390 -0.613576
O6    O     O_R   0.500000 0.439420 0.061610 -0.613571
O7    O     O_R   0.000000 0.939420 0.438390 -0.613572
O8    O     O_R   0.000000 0.939420 0.561610 -0.613572
O9    O     O_R   0.500000 0.560580 0.938390 -0.618816
O10   O     O_R   0.500000 0.560580 0.061610 -0.618816
O11   O     O_R   1.000000 0.060580 0.438390 -0.618816
O12   O     O_R   0.392630 0.439420 0.000000 -0.617739
O13   O     O_R   1.000000 0.060580 0.561610 -0.618816
O14   O     O_R   0.560550 0.392540 0.500000 -0.619259
O15   O     O_R   0.439450 0.392540 0.500000 -0.619241
O16   O     O_R   0.060550 0.892540 0.000000 -0.619248
O17   O     O_R   0.939450 0.892540 0.000000 -0.619252
O18   O     O_R   0.560580 0.499860 0.561610 -0.617139
O19   O     O_R   0.560580 0.499860 0.438390 -0.617164
O20   O     O_R   0.439420 0.499860 0.561610 -0.617166
O21   O     O_R   0.439420 0.499860 0.438390 -0.617143
O22   O     O_R   0.060580 0.999860 0.061610 -0.617155
O23   O     O_R   0.107370 0.939420 0.500000 -0.617768
O24   O     O_R   0.060580 0.999860 0.938390 -0.617129
O25   O     O_R   0.939420 0.999860 0.061610 -0.617151
O26   O     O_R   0.939420 0.999860 0.938390 -0.617177
O27   O     O_R   0.560630 0.607160 0.500000 -0.618389
O28   O     O_R   0.439370 0.607160 0.500000 -0.618394
O29   O     O_R   0.060630 0.107160 0.000000 -0.618375
O30   O     O_R   0.939370 0.107160 0.000000 -0.618408
O31   O     O_R   0.000000 0.607310 0.965210 -0.619974
O32   O     O_R   0.000000 0.607310 0.034790 -0.619975
O33   O     O_R   0.500000 0.107310 0.465210 -0.619974
O34   O     O_R   0.892630 0.939420 0.500000 -0.617764
O35   O     O_R   0.500000 0.107310 0.534790 -0.619975
O36   O     O_R   0.892680 0.500000 0.965220 -0.620013
O37   O     O_R   0.892680 0.500000 0.034780 -0.619984
O38   O     O_R   0.107320 0.500000 0.965220 -0.619964
O39   O     O_R   0.107320 0.500000 0.034780 -0.619994
O40   O     O_R   0.392680 0.000000 0.465220 -0.619973
O41   O     O_R   0.392680 0.000000 0.534780 -0.620000
O42   O     O_R   0.607320 0.000000 0.465220 -0.620004
O43   O     O_R   0.607320 0.000000 0.534780 -0.619978
O44   O     O_R   0.000000 0.392690 0.965220 -0.619780
O45   O     O_R   0.000000 0.392690 0.034780 -0.619780
O46   O     O_R   0.500000 0.892690 0.465220 -0.619780
O47   O     O_R   0.500000 0.892690 0.534780 -0.619781
O48   O     O_R   0.607290 0.560580 0.000000 -0.619653
Zn1   Zn    Zn3+2 0.500000 0.419100 0.000000 0.984215
Zn2   Zn    Zn3+2 0.000000 0.500000 0.046450 0.974148
Zn3   Zn    Zn3+2 0.500000 0.000000 0.453550 0.974149
Zn4   Zn    Zn3+2 0.500000 1.000000 0.546450 0.974146
Zn5   Zn    Zn3+2 0.000000 0.919100 0.500000 0.984217
Zn6   Zn    Zn3+2 0.500000 0.580900 0.000000 0.973239
Zn7   Zn    Zn3+2 0.000000 0.080900 0.500000 0.973240
Zn8   Zn    Zn3+2 0.580910 0.499830 0.500000 0.975556
Zn9   Zn    Zn3+2 0.419090 0.499830 0.500000 0.975568
Zn10  Zn    Zn3+2 0.080910 0.999830 0.000000 0.975595
Zn11  Zn    Zn3+2 0.919090 0.999830 0.000000 0.975527
Zn12  Zn    Zn3+2 0.000000 0.500000 0.953550 0.974150

loop_
_geom_bond_atom_site_label_1
_geom_bond_atom_site_label_2
_ccdc_geom_bond_type
C78   C87   S    
O19   Zn8   S    
O14   Zn8   S    
C22   O22   A    
C1    O48   A    
O21   Zn9   S    
C19   O16   A    
C61   H23   S    
C41   C42   T    
C57   C79   S    
C53   C77   S    
C92   H21   S    
O5    Zn1   S    
O30   Zn11  S    
C4    C70   T    
C92   H19   S    
C7    C73   T    
C95   N3    T    
O16   Zn10  S    
O28   Zn9   S    
C16   C31   S    
O48   Zn6   S    
C19   C41   S    
C19   O17   A    
C6    C85   S    
C37   O13   A    
C62   C67   S    
O17   Zn11  S    
O38   Zn12  S    
C50   C59   S    
C21   O19   A    
C49   C84   S    
C18   O15   A    
C3    C69   T    
C51   C75   S    
C30   O39   A    
C2    C68   T    
C52   C61   S    
C35   O10   A    
C34   O34   A    
C54   C87   S    
C55   C77   S    
C65   C83   S    
C7    C86   S    
C25   O27   A    
C54   C63   S    
C27   O31   A    
C55   H7    S    
C35   C68   S    
C96   N4    T    
C26   O29   A    
C11   C16   T    
C29   O37   A    
C80   C89   S    
C18   C40   S    
C45   C60   S    
C23   O23   A    
C24   O24   A    
C50   C85   S    
C76   C94   S    
O45   Zn2   S    
O3    Zn7   S    
C40   C43   T    
C53   H5    S    
O8    Zn5   S    
C28   O33   A    
C20   O20   A    
C20   C71   S    
C60   H22   S    
C53   C86   S    
C21   O21   A    
O33   Zn3   S    
C75   C80   S    
O41   Zn4   S    
C62   H24   S    
C58   C80   S    
C56   C90   S    
C62   C82   S    
C34   O4    A    
C37   C70   S    
C25   O28   A    
O37   Zn2   S    
O15   Zn9   S    
C29   O36   A    
C58   H1    S    
C90   H15   S    
C39   O46   A    
C35   O6    A    
C67   C91   S    
C63   H25   S    
O31   Zn12  S    
C24   O26   A    
C33   C66   S    
O23   Zn5   S    
C66   C89   T    
C94   N2    T    
C51   H3    S    
C45   C58   S    
C50   H2    S    
C21   C72   S    
C64   C67   S    
C18   O14   A    
C45   C88   S    
C1    C9    S    
O29   Zn10  S    
C30   O38   A    
O34   Zn5   S    
O24   Zn10  S    
O2    Zn6   S    
C33   O9    A    
C88   H11   S    
O27   Zn8   S    
C38   O45   A    
O9    Zn6   S    
C31   O41   A    
C52   C76   S    
C27   O32   A    
C49   H28   S    
O1    Zn1   S    
C77   C95   S    
C49   C58   S    
C91   H17   S    
C63   C83   S    
O13   Zn7   S    
C91   H16   S    
C6    C72   T    
C9    C14   T    
C50   C76   S    
C88   H10   S    
C53   C62   S    
C64   C82   S    
C55   C64   S    
C3    C82   S    
C8    C74   T    
O12   Zn1   S    
C38   C47   S    
C37   O8    A    
C23   O3    A    
C92   H20   S    
O32   Zn2   S    
C49   C75   S    
C10   C12   S    
C39   O47   A    
C32   O43   A    
C52   C85   S    
C12   O2    A    
C12   O12   A    
C20   O18   A    
O43   Zn4   S    
C45   C84   S    
O7    Zn5   S    
C14   C29   S    
C36   O7    A    
O11   Zn7   S    
C36   C69   S    
C75   C93   S    
C15   C30   S    
C54   C79   S    
C5    C84   S    
C57   H8    S    
C32   O42   A    
C46   C47   T    
C60   C80   S    
C67   C86   S    
C65   C78   S    
C54   H6    S    
C33   O5    A    
C59   C81   S    
C57   C65   S    
O36   Zn12  S    
C76   C81   S    
O22   Zn10  S    
C56   C59   S    
C38   O44   A    
O47   Zn4   S    
O18   Zn8   S    
O40   Zn3   S    
O25   Zn11  S    
O26   Zn11  S    
C28   C43   S    
C1    O1    A    
C59   H12   S    
C22   C73   S    
C91   H18   S    
C13   C17   T    
O42   Zn3   S    
C10   C15   T    
C8    C87   S    
C78   C92   S    
C55   C86   S    
O20   Zn9   S    
C13   C34   S    
O4    Zn7   S    
C61   C81   S    
C79   C83   S    
C88   H9    S    
C27   C42   S    
C24   C74   S    
C56   C85   S    
C4    C83   S    
C77   C82   S    
O44   Zn12  S    
C64   H26   S    
C51   C84   S    
C11   C23   S    
C52   H4    S    
C26   O30   A    
C65   H27   S    
O6    Zn1   S    
C25   C44   S    
O10   Zn6   S    
C36   O11   A    
C93   N1    T    
C26   C46   S    
C57   C87   S    
C79   C96   S    
O39   Zn2   S    
C31   O40   A    
C5    C71   T    
O35   Zn4   S    
C17   C32   S    
C90   H14   S    
C56   C61   S    
C2    C81   S    
C51   C60   S    
C90   H13   S    
O46   Zn3   S    
C63   C78   S    
C44   C48   T    
C28   O35   A    
C39   C48   S    
C22   O25   A    
