data_mof_unit_18933.cif
_audit_creation_date              2012-10-26T21:23:15-0400
_audit_creation_method            fapswitch 2.2
_symmetry_space_group_name_H-M    P1
_symmetry_Int_Tables_number       1
_space_group_crystal_system       triclinic
_cell_length_a                    27.796464
_cell_length_b                    10.9213
_cell_length_c                    9.665352
_cell_angle_alpha                 90.028584
_cell_angle_beta                  90.237326
_cell_angle_gamma                 90.275596
_cell_volume                      2934.08544231

loop_
_atom_site_label
_atom_site_type_symbol
_atom_type_description
_atom_site_fract_x
_atom_site_fract_y
_atom_site_fract_z
_atom_type_partial_charge
C1    C     C_R   0.501471 0.265406 0.500089 0.550591
C2    C     C_R   0.974338 0.396153 0.550673 0.020777
C3    C     C_R   0.974424 0.615701 0.491674 0.006020
C4    C     C_R   0.407319 0.500227 0.499622 0.558742
C5    C     C_R   0.949105 0.505543 0.520168 -0.023099
C6    C     C_R   0.947726 0.286677 0.568253 -0.133450
C7    C     C_R   0.897747 0.285990 0.560578 -0.108092
C8    C     C_R   0.872529 0.394620 0.537456 0.033418
C9    C     C_R   0.898128 0.505010 0.519213 -0.045870
C10   C     C_R   0.872697 0.614872 0.500274 -0.031221
C11   C     C_R   0.822224 0.611915 0.496513 0.389186
C12   C     C_R   0.279640 0.518102 0.629908 -0.078086
C13   C     C_R   0.822077 0.395656 0.531490 0.389401
C14   C     C_R   0.720914 0.508053 0.628112 -0.065476
C15   C     C_R   0.670917 0.507170 0.626866 -0.146483
C16   C     C_R   0.498083 0.734528 0.499988 0.552107
C17   C     C_R   0.671376 0.494045 0.376367 -0.116750
C18   C     C_R   0.722090 0.494406 0.376013 0.062503
C19   C     C_R   0.746582 0.501983 0.504196 0.247934
C20   C     C_R   0.025205 0.399973 0.562107 0.022318
C21   C     C_R   0.050329 0.505559 0.515834 -0.022633
C22   C     C_R   0.024880 0.610055 0.469048 0.006728
C23   C     C_R   0.252993 0.506423 0.507684 0.198577
C24   C     C_R   0.051955 0.301583 0.617334 -0.131557
C25   C     C_R   0.101035 0.701251 0.395614 -0.098710
C26   C     C_R   0.948237 0.727441 0.492641 0.287267
C27   C     C_R   0.898031 0.725415 0.490698 -0.100634
C28   C     C_R   0.592610 0.500091 0.500286 0.546624
C29   C     C_R   0.050831 0.701519 0.395102 0.288510
C30   C     C_2   0.505238 0.933201 0.392497 -0.138824
C31   C     C_2   0.490122 0.865752 0.500536 0.261728
C32   C     C_2   0.501164 0.066477 0.388100 -0.143852
C33   C     C_2   0.506445 0.133998 0.502466 -0.081633
C34   C     C_R   0.101313 0.505771 0.513975 -0.046023
C35   C     C_2   0.467124 0.445563 0.921978 -0.037767
C36   C     C_2   0.471095 0.430064 0.078789 0.376158
C37   C     C_R   0.177561 0.408574 0.566591 0.405423
C38   C     C_R   0.177083 0.604271 0.456976 0.400630
C39   C     C_R   0.276659 0.492832 0.381295 -0.041630
C40   C     C_R   0.327048 0.492826 0.375481 0.250159
C41   C     C_R   0.329716 0.515850 0.626087 -0.203015
C42   C     C_3   0.982105 0.861709 0.643786 -0.106380
C43   C     C_3   0.751310 0.486442 0.243383 -0.256632
C44   C     C_3   0.722310 0.475363 0.109033 -0.455654
C45   C     C_R   0.127069 0.405759 0.568013 0.034790
C46   C     C_3   0.016166 0.732553 0.185305 -0.100513
C47   C     C_3   0.417575 0.888143 0.605603 -0.110354
C48   C     C_3   0.432907 0.240438 0.075110 -0.108505
C49   C     C_3   0.347369 0.581104 0.170937 -0.084519
C50   C     C_R   0.101967 0.305055 0.621124 -0.106790
C51   C     C_R   0.126585 0.605465 0.456946 -0.028124
C52   C     C_R   0.354097 0.502426 0.499625 0.003780
C53   C     C_R   0.645673 0.500415 0.501155 -0.010088
Cu1   Cu    Cu3+1 0.500010 0.500020 0.638630 0.941657
Cu2   Cu    Cu3+1 0.499990 0.499980 0.361370 1.003548
H1    H     H_    0.349333 0.524729 0.722657 0.132651
H2    H     H_    0.436006 0.407444 0.869380 0.142448
H3    H     H_    0.530779 0.526408 0.894626 0.199260
H4    H     H_    0.518528 0.567004 0.104710 0.162061
H5    H     H_    0.120909 0.227607 0.664805 0.165840
H6    H     H_    0.652070 0.512153 0.724536 0.132138
H7    H     H_    0.739962 0.513575 0.725921 0.120034
H8    H     H_    0.878928 0.199672 0.573479 0.169265
H9    H     H_    0.964733 0.199122 0.583525 0.119382
H10   H     H_    0.035048 0.221883 0.662058 0.106275
H11   H     H_    0.008350 0.793444 0.683502 0.114513
H12   H     H_    0.255785 0.481099 0.287303 0.134169
H13   H     H_    0.949183 0.861931 0.709039 0.104940
H14   H     H_    0.999128 0.953476 0.652754 0.139833
H15   H     H_    0.699749 0.391149 0.110110 0.159115
H16   H     H_    0.699375 0.557312 0.093861 0.152573
H17   H     H_    0.747370 0.469233 0.020123 0.149211
H18   H     H_    0.774418 0.569394 0.235354 0.176743
H19   H     H_    0.775341 0.405615 0.250360 0.170734
H20   H     H_    0.989900 0.656300 0.198733 0.115741
H21   H     H_    0.048848 0.699435 0.130838 0.105634
H22   H     H_    0.998942 0.802360 0.118376 0.146148
H23   H     H_    0.119799 0.774542 0.342574 0.181180
H24   H     H_    0.411495 0.788447 0.621947 0.126015
H25   H     H_    0.401327 0.917730 0.505590 0.117883
H26   H     H_    0.398664 0.937466 0.689535 0.146032
H27   H     H_    0.466419 0.205141 0.026731 0.095755
H28   H     H_    0.404036 0.252804 0.996704 0.118072
H29   H     H_    0.420102 0.169521 0.148554 0.145085
H30   H     H_    0.363844 0.659961 0.227237 0.113766
H31   H     H_    0.309771 0.602618 0.139970 0.109316
H32   H     H_    0.368316 0.567213 0.074777 0.141919
H33   H     H_    0.651483 0.488572 0.280299 0.133801
H34   H     H_    0.879068 0.811772 0.485807 0.181335
H35   H     H_    0.520379 0.889193 0.301818 0.109173
H36   H     H_    0.495737 0.109302 0.287943 0.144044
H37   H     H_    0.261467 0.528621 0.728058 0.140440
H38   H     H_    0.515932 0.092965 0.600971 0.170503
N1    N     N_R   0.201429 0.506913 0.511654 -0.391047
N2    N     N_R   0.798145 0.503115 0.509966 -0.402479
N3    N     N_2   0.499480 0.498660 0.846910 -0.372928
N4    N     N_2   0.499460 0.498630 0.153040 -0.322247
O1    O     O_R   0.500010 0.321960 0.617040 -0.496972
O2    O     O_R   0.569740 0.500000 0.617090 -0.502443
O3    O     O_R   0.569730 0.499960 0.382940 -0.509733
O4    O     O_2   0.202626 0.313221 0.618014 -0.493410
O5    O     O_3   0.970700 0.840257 0.503541 -0.507172
O6    O     O_3   0.028110 0.787471 0.313087 -0.505076
O7    O     O_3   0.466931 0.918274 0.612550 -0.581497
O8    O     O_3   0.440828 0.349956 0.149400 -0.479744
O9    O     O_3   0.349497 0.472815 0.250118 -0.517292
O10   O     O_2   0.797083 0.290315 0.546726 -0.494574
O11   O     O_2   0.201703 0.699721 0.403207 -0.506838
O12   O     O_2   0.797347 0.716651 0.479206 -0.495289
O13   O     O_R   0.499990 0.321920 0.382900 -0.451753
O14   O     O_R   0.430270 0.500040 0.617060 -0.525505
O15   O     O_R   0.430260 0.500000 0.382910 -0.403905
O16   O     O_R   0.500010 0.678080 0.617100 -0.466441
O17   O     O_R   0.499990 0.678040 0.382960 -0.542889

loop_
_geom_bond_atom_site_label_1
_geom_bond_atom_site_label_2
_ccdc_geom_bond_type
C10   C27   A    
C43   H18   S    
C30   C32   S    
C8    C13   A    
C22   C29   A    
Cu2   O15   S    
C11   O12   S    
C17   H33   S    
C49   H32   S    
C35   C36   S    
C47   H24   S    
C30   H35   S    
C16   O16   A    
C46   H21   S    
C1    C33   S    
C7    C8    A    
C35   N3    D    
C16   C31   S    
C12   C23   A    
C34   C51   A    
C4    C52   S    
C15   C53   A    
C30   C31   D    
C32   H36   S    
C14   H7    S    
Cu1   O16   S    
C29   O6    S    
C44   H16   S    
C18   C19   A    
C6    H9    S    
H3    N3    S    
C20   C24   A    
C8    C9    A    
Cu2   O3    S    
C37   N1    A    
C44   H15   S    
C36   N4    D    
C9    C10   A    
C41   C52   A    
Cu1   N3    S    
C13   O10   S    
C28   O3    A    
C43   H19   S    
C4    O15   A    
C21   C22   A    
C42   H13   S    
Cu2   N4    S    
C2    C6    A    
C47   H25   S    
C42   O5    S    
C46   H20   S    
C25   C29   A    
C2    C20   A    
C25   H23   S    
C49   H30   S    
C39   C40   A    
C38   C51   A    
C40   C52   A    
C42   H14   S    
C48   H29   S    
C16   O17   A    
C43   C44   S    
C25   C51   A    
C41   H1    S    
C5    C9    A    
C12   C41   A    
C1    O13   A    
C48   O8    S    
C38   N1    A    
C17   C18   A    
C15   H6    S    
C34   C45   A    
C24   C50   A    
C7    H8    S    
C6    C7    A    
C24   H10   S    
C28   O2    A    
C4    O14   A    
C13   N2    A    
C27   H34   S    
Cu2   O13   S    
C26   C27   A    
H4    N4    S    
Cu1   O2    S    
C2    C5    A    
C37   C45   A    
C17   C53   A    
C19   N2    S    
C40   O9    S    
C11   N2    A    
Cu1   Cu2   S    
C47   O7    S    
C36   O8    S    
C39   H12   S    
C14   C19   A    
C12   H37   S    
C3    C26   A    
C3    C5    A    
C33   H38   S    
C1    O1    A    
C46   H22   S    
C28   C53   S    
C48   H28   S    
C49   O9    S    
C21   C34   A    
Cu2   O17   S    
C46   O6    S    
C23   N1    S    
C35   H2    S    
C50   H5    S    
C31   O7    S    
C18   C43   S    
C32   C33   D    
C37   O4    S    
C45   C50   A    
C23   C39   A    
C48   H27   S    
Cu1   O14   S    
C44   H17   S    
C49   H31   S    
C47   H26   S    
C38   O11   S    
C10   C11   A    
C20   C21   A    
C42   H11   S    
C14   C15   A    
Cu1   O1    S    
C3    C22   A    
C26   O5    S    
