data_mof_unit_17536.cif
_audit_creation_date              2012-12-10T17:28:30-0500
_audit_creation_method            fapswitch 2.2
_symmetry_space_group_name_H-M    P1
_symmetry_Int_Tables_number       1
_space_group_crystal_system       triclinic
_cell_length_a                    10.745069
_cell_length_b                    12.203362
_cell_length_c                    12.833098
_cell_angle_alpha                 92.568988
_cell_angle_beta                  94.475388
_cell_angle_gamma                 82.356577
_cell_volume                      1661.70543426

loop_
_atom_site_label
_atom_site_type_symbol
_atom_type_description
_atom_site_fract_x
_atom_site_fract_y
_atom_site_fract_z
_atom_type_partial_charge
Br1   Br    Br    0.325086 0.223272 0.359997 -0.523812
Br2   Br    Br    0.672921 0.772744 0.639524 -0.569981
C1    C     C_R   0.494016 0.522210 0.699867 0.858340
C2    C     C_R   0.546076 0.544201 0.133119 -0.311693
C3    C     C_R   0.454457 0.465887 0.973986 0.197922
C4    C     C_R   0.521753 0.546775 0.026207 0.194436
C5    C     C_R   0.410152 0.956397 0.378935 0.165089
C6    C     C_R   0.592657 0.042301 0.619792 0.131354
C7    C     C_R   0.408633 0.842131 0.396325 0.196910
C8    C     C_R   0.589066 0.157755 0.604208 0.228678
C9    C     C_R   0.547056 0.854223 0.548519 0.351750
C10   C     C_R   0.455497 0.144590 0.450019 0.360021
C11   C     C_R   0.537080 0.973204 0.542266 -0.170046
C12   C     C_R   0.502329 0.478634 0.300006 0.877654
C13   C     C_R   0.467730 0.025236 0.455652 -0.139702
C14   C     C_R   0.741035 0.496644 0.502830 0.857042
C15   C     C_R   0.260070 0.505544 0.505800 0.893465
C16   C     C_R   0.918772 0.369842 0.670001 0.188383
C17   C     C_R   0.064903 0.707213 0.451231 0.170549
C18   C     C_R   0.010565 0.288303 0.717253 0.280063
C19   C     C_R   0.987525 0.763240 0.370169 0.204106
C20   C     C_R   0.136692 0.302699 0.720457 -0.250153
C21   C     C_R   0.887611 0.713758 0.320877 -0.187152
C22   C     C_R   0.172861 0.384673 0.664649 -0.187581
C23   C     C_R   0.497781 0.466079 0.188480 -0.050099
C24   C     C_R   0.854050 0.618366 0.360168 -0.182250
C25   C     C_R   0.087078 0.444979 0.593139 0.070959
C26   C     C_R   0.924201 0.567801 0.447086 0.070299
C27   C     C_R   0.957493 0.435592 0.591138 -0.040939
C28   C     C_R   0.041906 0.599033 0.475678 0.013530
C29   C     C_R   0.128895 0.520710 0.529240 -0.174184
C30   C     C_R   0.876712 0.493339 0.510956 -0.158807
C31   C     C_3   0.445080 0.013178 0.204075 -0.730569
C32   C     C_3   0.767049 0.982217 0.749152 -0.736474
C33   C     C_3   0.826843 0.425211 0.834928 -0.811684
C34   C     C_R   0.489014 0.539493 0.810990 -0.045616
C35   C     C_3   0.111353 0.782711 0.626578 -0.727263
C36   C     C_3   0.027141 0.091040 0.722619 -0.856422
C37   C     C_3   0.925469 0.960078 0.387999 -0.761287
C38   C     C_3   0.591639 0.237250 0.781437 -0.680257
C39   C     C_3   0.358747 0.761842 0.219670 -0.744218
C40   C     C_R   0.562859 0.629180 0.970670 -0.245403
C41   C     C_R   0.412121 0.383990 0.029434 -0.232707
C42   C     C_R   0.545949 0.625782 0.862641 -0.197691
C43   C     C_R   0.433863 0.384161 0.137056 -0.186381
C44   C     C_R   0.434663 0.465708 0.866680 -0.315586
H1    H     H_    0.829814 0.753914 0.256997 0.152423
H2    H     H_    0.361476 0.321102 0.989902 0.141661
H3    H     H_    0.269629 0.982140 0.254713 0.245607
H4    H     H_    0.426292 0.098335 0.174727 0.257836
H5    H     H_    0.432239 0.954772 0.136565 0.215325
H6    H     H_    0.544627 0.998596 0.236771 0.232797
H7    H     H_    0.576546 0.953944 0.754695 0.247784
H8    H     H_    0.790020 0.905542 0.794003 0.256319
H9    H     H_    0.796696 0.050411 0.800849 0.242955
H10   H     H_    0.820702 0.972716 0.678041 0.256036
H11   H     H_    0.752313 0.473997 0.691580 0.243521
H12   H     H_    0.207003 0.251309 0.768084 0.142257
H13   H     H_    0.901487 0.479533 0.853325 0.245946
H14   H     H_    0.851153 0.346376 0.875506 0.246232
H15   H     H_    0.739352 0.465945 0.866926 0.248783
H16   H     H_    0.173314 0.836111 0.491766 0.218250
H17   H     H_    0.180817 0.828327 0.673031 0.227452
H18   H     H_    0.110574 0.702491 0.663779 0.249264
H19   H     H_    0.016775 0.831987 0.628325 0.239880
H20   H     H_    0.002984 0.200451 0.848020 0.223069
H21   H     H_    0.009338 0.022916 0.771406 0.243462
H22   H     H_    0.130868 0.083609 0.718876 0.247678
H23   H     H_    0.269675 0.398442 0.676528 0.163662
H24   H     H_    0.982630 0.080606 0.642371 0.254457
H25   H     H_    0.096847 0.884770 0.337149 0.224176
H26   H     H_    0.940139 0.039702 0.355296 0.246162
H27   H     H_    0.949306 0.963731 0.473768 0.235697
H28   H     H_    0.824605 0.948968 0.372442 0.249530
H29   H     H_    0.744231 0.203979 0.689111 0.255757
H30   H     H_    0.627811 0.169761 0.834584 0.223431
H31   H     H_    0.487641 0.241268 0.770052 0.219615
H32   H     H_    0.617512 0.313325 0.822110 0.255641
H33   H     H_    0.298545 0.714934 0.359358 0.273479
H34   H     H_    0.770471 0.586931 0.324853 0.147026
H35   H     H_    0.292885 0.817604 0.169001 0.227788
H36   H     H_    0.342739 0.676833 0.193181 0.246110
H37   H     H_    0.457747 0.773161 0.208906 0.248481
H38   H     H_    0.598048 0.605589 0.173872 0.146752
H39   H     H_    0.384222 0.403604 0.826738 0.136318
H40   H     H_    0.396640 0.323296 0.179993 0.198781
H41   H     H_    0.584796 0.685820 0.819855 0.204111
H42   H     H_    0.611838 0.693122 0.010193 0.145059
N1    N     N_R   0.523130 0.207800 0.519340 -0.152988
N2    N     N_2   0.329994 0.780759 0.327954 -0.328745
N3    N     N_R   0.476870 0.792200 0.480660 -0.150491
N4    N     N_2   0.357537 0.000289 0.281953 -0.258735
N5    N     N_2   0.632965 0.002662 0.721341 -0.293624
N6    N     N_2   0.807011 0.406285 0.722592 -0.284238
N7    N     N_2   0.146735 0.765810 0.519868 -0.284509
N8    N     N_2   0.977305 0.196977 0.768911 -0.318433
N9    N     N_2   0.004910 0.870349 0.339258 -0.318914
N10   N     N_2   0.648060 0.224009 0.681682 -0.232253
O1    O     O_R   0.506170 0.421700 0.658830 -0.604546
O2    O     O_R   0.493830 0.578300 0.341170 -0.625944
O3    O     O_R   0.491330 0.609310 0.646410 -0.583919
O4    O     O_R   0.508670 0.390690 0.353590 -0.583400
O5    O     O_R   0.690650 0.406190 0.506220 -0.612600
O6    O     O_R   0.309350 0.593810 0.493780 -0.628553
O7    O     O_R   0.675800 0.593810 0.493800 -0.559199
O8    O     O_R   0.324200 0.406190 0.506200 -0.570413
Zn1   Zn    Zn3+2 0.509910 0.374730 0.508290 0.995372
Zn2   Zn    Zn3+2 0.490090 0.625270 0.491710 0.976969

loop_
_geom_bond_atom_site_label_1
_geom_bond_atom_site_label_2
_ccdc_geom_bond_type
C36   H24   S    
C32   H10   S    
C6    C11   A    
C25   C27   A    
C22   C25   A    
C7    N3    A    
C2    C23   A    
C31   H6    S    
H25   N9    S    
C17   C19   A    
C15   O6    A    
C27   C30   A    
C38   N10   S    
C3    C4    A    
C12   O4    A    
O8    Zn1   S    
C39   H36   S    
C39   H37   S    
C35   N7    S    
C33   H13   S    
C37   H28   S    
C21   C24   A    
H33   N2    S    
C8    N1    A    
C35   H19   S    
C37   H26   S    
C32   N5    S    
C34   C44   A    
C42   H41   S    
C41   H2    S    
C16   C18   A    
C44   H39   S    
C1    O3    A    
O3    Zn2   S    
C5    C13   A    
C39   N2    S    
C3    C41   A    
C32   H9    S    
H16   N7    S    
Br1   C10   S    
C40   C42   A    
O1    Zn1   S    
Br2   C9    S    
C35   H17   S    
C22   H23   S    
O7    Zn2   S    
O2    Zn2   S    
C21   H1    S    
C25   C29   A    
C10   N1    A    
C26   C30   A    
C2    C4    A    
C31   N4    S    
C31   H4    S    
H7    N5    S    
H29   N10   S    
C24   H34   S    
C31   H5    S    
C38   H30   S    
C33   H14   S    
C9    N3    A    
C19   N9    S    
C14   O5    A    
C2    H38   S    
C10   C13   A    
C39   H35   S    
N1    Zn1   S    
O4    Zn1   S    
C33   H15   S    
C16   C27   A    
C41   C43   A    
C14   O7    A    
C18   C20   A    
C32   H8    S    
H11   N6    S    
C11   C13   A    
C15   C29   S    
C20   C22   A    
C34   C42   A    
C40   H42   S    
H3    N4    S    
C23   C43   A    
O6    Zn2   S    
C35   H18   S    
C17   N7    S    
H20   N8    S    
C33   N6    S    
C5    C7    A    
N3    Zn2   S    
C6    N5    S    
C36   H22   S    
C7    N2    S    
C20   H12   S    
C12   O2    A    
C14   C30   S    
C8    N10   S    
C3    C44   A    
C24   C26   A    
C19   C21   A    
C43   H40   S    
C15   O8    A    
C9    C11   A    
C28   C29   A    
C1    C34   S    
C16   N6    S    
C5    N4    S    
C26   C28   A    
C38   H32   S    
C37   H27   S    
C12   C23   S    
C18   N8    S    
C37   N9    S    
C1    O1    A    
C36   H21   S    
C6    C8    A    
C4    C40   A    
C36   N8    S    
C38   H31   S    
O5    Zn1   S    
C17   C28   A    
