data_mof_unit_44449.cif
_audit_creation_date              2013-03-05T16:06:20-0500
_audit_creation_method            fapswitch 2.2
_symmetry_space_group_name_H-M    P1
_symmetry_Int_Tables_number       1
_space_group_crystal_system       triclinic
_cell_length_a                    10.809541
_cell_length_b                    9.497895
_cell_length_c                    27.78439
_cell_angle_alpha                 90.045491
_cell_angle_beta                  90.337338
_cell_angle_gamma                 89.977975
_cell_volume                      2852.51402286

loop_
_atom_site_label
_atom_site_type_symbol
_atom_site_description
_atom_site_fract_x
_atom_site_fract_y
_atom_site_fract_z
_atom_type_partial_charge
O1    O     O_R   0.319640 0.618740 0.500000 -0.592843
O2    O     O_R   0.680360 0.381260 0.500000 -0.586314
O3    O     O_R   0.680360 0.618740 0.500000 -0.593555
O4    O     O_R   0.319640 0.381260 0.500000 -0.586925
C1    C     C_R   0.262022 0.500030 0.499963 0.790638
C2    C     C_R   0.737974 0.499999 0.499949 0.790070
O5    O     O_R   0.500020 0.618770 0.430260 -0.590952
O6    O     O_R   0.499980 0.381230 0.569740 -0.577891
O7    O     O_R   0.499980 0.618770 0.569740 -0.591466
O8    O     O_R   0.500020 0.381230 0.430260 -0.577310
C3    C     C_R   0.507435 0.500160 0.407530 0.806195
C4    C     C_R   0.492759 0.500320 0.592540 0.806567
Cu1   Cu    Cu3+1 0.500000 0.640660 0.500000 0.927227
Cu2   Cu    Cu3+1 0.500000 0.359340 0.500000 0.943507
C5    C     C_R   0.395472 0.493689 0.177383 0.542051
C6    C     C_R   0.612103 0.475571 0.822479 0.515651
O9    O     O_2   0.289225 0.491630 0.202585 -0.503921
O10   O     O_2   0.716120 0.457432 0.796715 -0.564617
N1    N     N_R   0.506062 0.498303 0.201630 -0.460555
N2    N     N_R   0.502655 0.497930 0.798574 -0.446019
C7    C     C_R   0.616078 0.496568 0.177578 0.530890
C8    C     C_R   0.394075 0.513946 0.822936 0.534534
C9    C     C_R   0.556876 0.622045 0.278360 0.200946
C10   C     C_R   0.461828 0.627137 0.722060 0.201308
C11   C     C_R   0.576785 0.611843 0.328963 0.100410
C12   C     C_R   0.436259 0.618220 0.671832 0.098004
C13   C     C_R   0.463401 0.389377 0.329013 -0.258429
C14   C     C_R   0.529950 0.384292 0.670838 -0.260825
C15   C     C_R   0.463161 0.388355 0.279125 -0.142346
C16   C     C_R   0.532314 0.383205 0.720741 -0.145143
C17   C     C_R   0.507303 0.504103 0.253442 0.303808
C18   C     C_R   0.500780 0.503862 0.746734 0.315514
C19   C     C_R   0.505733 0.508044 0.101553 -0.099695
C20   C     C_R   0.506113 0.507966 0.898645 -0.076233
C21   C     C_R   0.392620 0.494546 0.126527 -0.013070
C22   C     C_R   0.616124 0.475213 0.873463 -0.053745
C23   C     C_R   0.281531 0.481672 0.099829 0.182763
C24   C     C_R   0.724321 0.442368 0.900463 0.163930
C25   C     C_R   0.618049 0.507656 0.127327 -0.052495
C26   C     C_R   0.394586 0.526470 0.873097 -0.052367
C27   C     C_R   0.517541 0.500909 0.354544 -0.106207
C28   C     C_R   0.484389 0.501389 0.645671 -0.110186
H1    H     H_    0.421251 0.301843 0.347765 0.166614
H2    H     H_    0.563244 0.292235 0.651844 0.168438
H3    H     H_    0.425102 0.298434 0.260164 0.161111
H4    H     H_    0.562410 0.289059 0.739418 0.160126
C29   C     C_R   0.394766 0.546193 0.974403 0.013226
C30   C     C_R   0.621155 0.525870 0.025897 0.009210
C31   C     C_R   0.618895 0.503123 0.975324 -0.007077
C32   C     C_R   0.393750 0.523206 0.024905 0.028088
C33   C     C_R   0.506683 0.519735 0.949498 0.048793
C34   C     C_R   0.506919 0.519622 0.050737 0.054579
C35   C     C_R   0.288765 0.589153 0.947306 0.134105
C36   C     C_R   0.731760 0.549336 0.053134 0.134376
C37   C     C_R   0.287244 0.565976 0.897556 -0.155189
C38   C     C_R   0.729644 0.527270 0.102968 -0.153208
O11   O     O_2   0.285984 0.520749 0.798421 -0.559633
O12   O     O_2   0.723464 0.487260 0.202455 -0.551464
C39   C     C_R   0.284064 0.491883 0.049704 -0.295715
C40   C     C_R   0.722649 0.452341 0.950470 -0.207250
H5    H     H_    0.203345 0.588239 0.877448 0.190488
H6    H     H_    0.815379 0.534443 0.123197 0.190044
H7    H     H_    0.198711 0.472385 0.030311 0.145069
H8    H     H_    0.803992 0.417161 0.969877 0.158894
C41   C     C_R   0.063959 0.372075 0.500393 -0.182350
C42   C     C_R   0.936016 0.628055 0.499243 -0.186121
C43   C     C_R   0.936136 0.372057 0.500372 -0.181968
C44   C     C_R   0.063855 0.628076 0.499319 -0.185540
H9    H     H_    0.112140 0.272046 0.500830 0.148958
H10   H     H_    0.887814 0.728072 0.498757 0.148510
H11   H     H_    0.888042 0.272024 0.500830 0.148805
H12   H     H_    0.111966 0.728102 0.498899 0.148155
C45   C     C_R   0.871762 0.500037 0.499832 -0.016337
C46   C     C_R   0.128226 0.500077 0.499905 -0.016646
C47   C     C_R   0.423680 0.074449 0.469709 -0.023909
C48   C     C_R   0.576277 0.925534 0.530307 -0.032275
C49   C     C_R   0.576300 0.074520 0.530299 -0.025433
C50   C     C_R   0.423694 0.925463 0.469705 -0.030042
H13   H     H_    0.362587 0.130724 0.445474 0.116960
H14   H     H_    0.637320 0.869247 0.554555 0.123323
H15   H     H_    0.637382 0.130851 0.554539 0.116967
H16   H     H_    0.362617 0.869120 0.445469 0.123431
N3    N     N_R   0.500000 0.852070 0.500000 -0.159195
N4    N     N_R   0.500000 0.147930 0.500000 -0.155306
N5    N     N_3   0.165535 0.455607 0.122936 -0.508338
H17   H     H_    0.104584 0.536749 0.113551 0.216868
H18   H     H_    0.129320 0.361417 0.109370 0.213705
N6    N     N_3   0.837099 0.394767 0.878982 -0.583491
H19   H     H_    0.874249 0.475665 0.858101 0.268716
H20   H     H_    0.818921 0.306014 0.857827 0.258278
C51   C     C_3   0.347921 0.723423 0.648050 -0.418488
C52   C     C_3   0.219601 0.719558 0.671096 -0.805238
H21   H     H_    0.179964 0.611962 0.668078 0.265715
H22   H     H_    0.222489 0.749966 0.709590 0.264218
H23   H     H_    0.157155 0.793977 0.651974 0.236979
H24   H     H_    0.387055 0.831375 0.649005 0.199516
H25   H     H_    0.329853 0.699307 0.609781 0.232066
C53   C     C_3   0.669743 0.709017 0.354058 -0.423840
C54   C     C_3   0.800632 0.687555 0.334584 -0.802474
H26   H     H_    0.830194 0.576758 0.340358 0.263801
H27   H     H_    0.806556 0.711788 0.295655 0.265509
H28   H     H_    0.865983 0.757726 0.354130 0.238202
H29   H     H_    0.640718 0.820709 0.350945 0.201894
H30   H     H_    0.678730 0.688086 0.392979 0.231233
C55   C     C_3   0.454790 0.767368 0.748875 -0.420594
C56   C     C_3   0.583449 0.819755 0.763143 -0.825762
H31   H     H_    0.627610 0.748290 0.789638 0.271284
H32   H     H_    0.643106 0.827814 0.730838 0.255473
H33   H     H_    0.575901 0.925690 0.779830 0.241219
H34   H     H_    0.412645 0.851833 0.726917 0.211406
H35   H     H_    0.396260 0.759207 0.781305 0.226540
C57   C     C_3   0.580403 0.759216 0.251239 -0.417913
C58   C     C_3   0.458950 0.830988 0.237308 -0.822884
H36   H     H_    0.405335 0.765762 0.211533 0.270990
H37   H     H_    0.402234 0.850314 0.269872 0.254601
H38   H     H_    0.478753 0.933713 0.219912 0.243379
H39   H     H_    0.633406 0.836682 0.272659 0.213491
H40   H     H_    0.636451 0.741065 0.218611 0.226728
C59   C     C_3   0.182846 0.674878 0.968486 -0.435853
C60   C     C_3   0.165301 0.816200 0.942859 -0.812067
H41   H     H_    0.254092 0.875018 0.942004 0.260535
H42   H     H_    0.130512 0.801175 0.905561 0.249934
H43   H     H_    0.096190 0.880457 0.962539 0.239747
H44   H     H_    0.095581 0.613384 0.966078 0.203818
H45   H     H_    0.200252 0.702613 0.006639 0.223227
C61   C     C_3   0.848893 0.613367 0.031977 -0.441111
C62   C     C_3   0.887687 0.749147 0.057683 -0.823575
H46   H     H_    0.809095 0.824489 0.058708 0.264013
H47   H     H_    0.920147 0.727604 0.094906 0.247720
H48   H     H_    0.965277 0.798840 0.037940 0.241688
H49   H     H_    0.925720 0.535803 0.034249 0.189095
H50   H     H_    0.835645 0.644208 0.993876 0.225524

loop_
_geom_bond_atom_site_label_1
_geom_bond_atom_site_label_2
_geom_bond_distance
_ccdc_geom_bond_type
C42   C44   1.381875 A    
C55   H34   1.104793 S    
C61   C62   1.531183 S    
C50   H16   1.081739 S    
C13   C15   1.386110 A    
Cu2   N4    2.007951 S    
O3    C2    1.288114 A    
N1    C17   1.440567 S    
C8    O11   1.350551 S    
C62   H47   1.109319 S    
C59   H44   1.111320 S    
C19   C34   1.416363 A    
C30   C36   1.428666 A    
C9    C57   1.527729 S    
C36   C61   1.525942 S    
C20   C33   1.417221 A    
C19   C25   1.405927 A    
C31   C40   1.405521 A    
C20   C26   1.406442 A    
C32   C39   1.406878 A    
C23   N5    1.433746 S    
C21   C23   1.413040 A    
C10   C12   1.423514 A    
C30   C34   1.419450 A    
C57   H39   1.104273 S    
C41   H9    1.083326 S    
C47   N4    1.366508 A    
C56   H31   1.107653 S    
C44   C46   1.400592 A    
C53   H29   1.109444 S    
C14   C28   1.401844 A    
C1    C46   1.446268 S    
O7    Cu1   1.948971 S    
C4    C28   1.479554 S    
C51   H24   1.109546 S    
C5    N1    1.369427 A    
C50   N3    1.366415 A    
C54   H26   1.111167 S    
C41   C43   1.381702 A    
C32   C34   1.415076 A    
C43   C45   1.400445 A    
C49   H15   1.081780 S    
C16   C18   1.397264 A    
C20   C22   1.417601 A    
O3    Cu1   1.960614 S    
C60   H43   1.110632 S    
O6    C4    1.298523 A    
C29   C35   1.426948 A    
C58   H38   1.110634 S    
N5    H18   1.045772 S    
C55   H35   1.106806 S    
Cu1   Cu2   2.671948 S    
O2    C2    1.288519 A    
C48   N3    1.366409 A    
C5    C21   1.413174 A    
C57   C58   1.527042 S    
O7    C4    1.294162 A    
C60   H42   1.109464 S    
C29   C32   1.420338 A    
C35   C37   1.399521 A    
C36   C38   1.400852 A    
C48   C49   1.415053 A    
O8    Cu2   1.948971 S    
C11   C27   1.425660 A    
C51   C52   1.531622 S    
C29   C33   1.419456 A    
C49   N4    1.366534 A    
C31   C33   1.414515 A    
C12   C51   1.529615 S    
N5    H17   1.045913 S    
C42   C45   1.400681 A    
C14   H2    1.083392 S    
C52   H23   1.110652 S    
C41   C46   1.400571 A    
C24   N6    1.433339 S    
C44   H12   1.083338 S    
C9    C17   1.419923 A    
O5    C3    1.293748 A    
C10   C18   1.419752 A    
C13   C27   1.400804 A    
C25   C38   1.399256 A    
C7    C25   1.400522 A    
C61   H50   1.107094 S    
C6    N2    1.369928 A    
C26   C37   1.399111 A    
C8    C26   1.398631 A    
C52   H22   1.107883 S    
C51   H25   1.103801 S    
C23   C39   1.396544 A    
C24   C40   1.392812 A    
C59   H45   1.107120 S    
C30   C31   1.421550 A    
C54   H27   1.108230 S    
N6    H20   1.045323 S    
C38   H6    1.083176 S    
O1    Cu1   1.960773 S    
C62   H46   1.111031 S    
O1    C1    1.288286 A    
C60   H41   1.111104 S    
C12   C28   1.425852 A    
C2    C45   1.446202 S    
C58   H36   1.107785 S    
N2    C18   1.441501 S    
C5    O9    1.348784 S    
O6    Cu2   1.948643 S    
N1    C7    1.367636 A    
C16   H4    1.083151 S    
C48   H14   1.081743 S    
N2    C8    1.366728 A    
O4    C1    1.288372 A    
C59   C60   1.531139 S    
C35   C59   1.525310 S    
C55   C56   1.527294 S    
Cu1   N3    2.007950 S    
C39   H7    1.081664 S    
C40   H8    1.081660 S    
C14   C16   1.386678 A    
C62   H48   1.110513 S    
C7    O12   1.350390 S    
C15   C17   1.396835 A    
C6    C22   1.416971 A    
C57   H40   1.106692 S    
C42   H10   1.083338 S    
C56   H32   1.110998 S    
C61   H49   1.111473 S    
C53   H30   1.103390 S    
C37   H5    1.083225 S    
C22   C24   1.420465 A    
C52   H21   1.111185 S    
C19   C21   1.415341 A    
C3    C27   1.476885 S    
C43   H11   1.083330 S    
C9    C11   1.424463 A    
O4    Cu2   1.960614 S    
O2    Cu2   1.960773 S    
C47   C50   1.415048 A    
O8    C3    1.297319 A    
C13   H1    1.083536 S    
C11   C53   1.529410 S    
O5    Cu1   1.948643 S    
C54   H28   1.110598 S    
N6    H19   1.044951 S    
C6    O10   1.347386 S    
C53   C54   1.531247 S    
C15   H3    1.083149 S    
C10   C55   1.527699 S    
C47   H13   1.081783 S    
C58   H37   1.111016 S    
C56   H33   1.110679 S    
