data_mof_unit_59566.cif
_audit_creation_date              2013-03-05T15:40:44-0500
_audit_creation_method            fapswitch 2.2
_symmetry_space_group_name_H-M    P1
_symmetry_Int_Tables_number       1
_space_group_crystal_system       triclinic
_cell_length_a                    15.099653
_cell_length_b                    14.950566
_cell_length_c                    14.878955
_cell_angle_alpha                 109.415416
_cell_angle_beta                  109.214965
_cell_angle_gamma                 109.684427
_cell_volume                      2588.79903099

loop_
_atom_site_label
_atom_site_type_symbol
_atom_site_description
_atom_site_fract_x
_atom_site_fract_y
_atom_site_fract_z
_atom_type_partial_charge
C1    C     C_R   0.971284 0.785305 0.062636 -0.088113
H1    H     H_    0.937419 0.814258 0.111564 0.126930
N1    N     N_R   0.993980 0.704500 0.053430 -0.044763
C2    C     C_R   0.779892 0.231276 0.685383 -0.150722
H2    H     H_    0.800639 0.214408 0.621093 0.097928
N2    N     N_R   0.850110 0.295520 0.792970 -0.044353
C3    C     C_R   0.081442 0.591590 0.785771 -0.152545
H3    H     H_    0.137412 0.675419 0.813407 0.091489
N3    N     N_R   0.053690 0.556380 0.849240 -0.039114
C4    C     C_R   0.685274 0.408701 0.948387 -0.135632
H4    H     H_    0.622552 0.326040 0.913430 0.082024
N4    N     N_R   0.790390 0.443640 0.997160 -0.035231
C5    C     C_R   0.993743 0.408968 0.695646 -0.120559
H5    H     H_    0.967823 0.325252 0.640632 0.082717
N5    N     N_R   0.998260 0.443670 0.792970 -0.042395
C6    C     C_R   0.776141 0.591939 0.037212 -0.143311
H6    H     H_    0.796858 0.675971 0.080267 0.088579
N6    N     N_R   0.845830 0.556350 0.053430 -0.036706
C7    C     C_R   0.687719 0.227192 0.776642 -0.130215
H7    H     H_    0.623926 0.199660 0.795320 0.086323
N7    N     N_R   0.792820 0.295510 0.849240 -0.043854
C8    C     C_R   0.058598 0.779047 0.966411 -0.148068
H8    H     H_    0.102611 0.799583 0.925186 0.102134
N8    N     N_R   0.051260 0.704510 0.997160 -0.035193
C9    C     C_R   0.006848 0.828990 0.004169 -0.000532
C10   C     C_R   0.677551 0.191317 0.673561 0.140821
C11   C     C_R   0.045210 0.500520 0.689139 0.137830
C12   C     C_R   0.674250 0.500305 0.966833 0.000002
C13   C     C_R   0.067007 0.591379 0.312458 -0.151909
H9    H     H_    0.121860 0.676006 0.376370 0.099605
N9    N     N_R   0.001740 0.556330 0.207030 -0.044247
C14   C     C_R   0.210750 0.408854 0.908568 -0.129970
H10   H     H_    0.182591 0.323726 0.856124 0.087634
N10   N     N_R   0.154170 0.443650 0.946570 -0.033098
C15   C     C_R   0.297289 0.801920 0.206761 -0.144374
H11   H     H_    0.348930 0.830201 0.174720 0.090761
N11   N     N_R   0.207180 0.704490 0.150760 -0.039876
C16   C     C_R   0.904143 0.195800 0.991655 -0.119533
H12   H     H_    0.842420 0.166117 0.012757 0.087813
N12   N     N_R   0.948740 0.295490 0.002840 -0.048432
C17   C     C_R   0.996820 0.197200 0.902369 -0.082277
H13   H     H_    0.020239 0.170315 0.841620 0.070220
N13   N     N_R   0.006020 0.295500 0.946570 -0.048538
C18   C     C_R   0.205469 0.802999 0.297064 -0.123484
H14   H     H_    0.172228 0.832283 0.346810 0.088868
N14   N     N_R   0.149890 0.704480 0.207030 -0.043268
C19   C     C_R   0.976450 0.408189 0.220704 -0.109318
H15   H     H_    0.947358 0.323264 0.198536 0.105891
N15   N     N_R   0.946310 0.443620 0.150760 -0.049502
C20   C     C_R   0.300864 0.591797 0.999991 -0.135343
H16   H     H_    0.356542 0.677071 0.032573 0.087190
N16   N     N_R   0.209610 0.556360 0.002840 -0.033066
Ni1   Ni    Ni4+2 0.997880 0.629240 0.129060 0.215820
Ni2   Ni    Ni4+2 0.002120 0.370760 0.870940 0.207072
Ni3   Ni    Ni4+2 0.129260 0.629260 0.000000 0.214197
Ni4   Ni    Ni4+2 0.870740 0.370740 0.000000 0.207534
C21   C     C_R   0.054313 0.499894 0.322785 0.135624
C22   C     C_R   0.302666 0.500536 0.939237 -0.010539
C23   C     C_R   0.296867 0.865863 0.297451 0.132450
C24   C     C_R   0.930453 0.132312 0.926874 0.184238
C25   C     C_3   0.474170 0.399370 0.843645 -0.398257
H17   H     H_    0.467744 0.321443 0.838490 0.144344
H18   H     H_    0.481050 0.401688 0.772140 0.162678
C26   C     C_3   0.370140 0.398466 0.836569 -0.404618
H19   H     H_    0.324125 0.397709 0.760266 0.161605
H20   H     H_    0.318860 0.321519 0.831585 0.149600
H21   H     H_    0.559622 0.422967 0.053129 0.159622
H22   H     H_    0.408987 0.425844 0.044190 0.165834
C27   C     C_3   0.563198 0.498054 0.051573 -0.402436
C28   C     C_3   0.577012 0.604985 0.950602 -0.398189
C29   C     C_3   0.574151 0.500712 0.952572 0.392091
H23   H     H_    0.646263 0.680827 0.026935 0.151898
H24   H     H_    0.585993 0.608244 0.880273 0.160777
C30   C     C_3   0.399152 0.500740 0.939094 0.393727
C31   C     C_3   0.460976 0.499395 0.044317 -0.383951
C32   C     C_3   0.472646 0.604423 0.941518 -0.406215
H25   H     H_    0.429005 0.605948 0.865942 0.161198
H26   H     H_    0.495997 0.680558 0.013255 0.148734
H27   H     H_    0.634766 0.570072 0.130115 0.158883
H28   H     H_    0.483312 0.572993 0.118564 0.160082
C33   C     C_2   0.380723 0.034055 0.467654 -0.100642
C34   C     C_2   0.373357 0.981918 0.370923 -0.169707
H29   H     H_    0.315450 0.000789 0.483555 0.115467
H30   H     H_    0.436542 0.019044 0.353811 0.129417
C35   C     C_2   0.485747 0.121208 0.563353 -0.118430
C36   C     C_2   0.577046 0.121792 0.570814 -0.197624
H31   H     H_    0.486330 0.174803 0.634175 0.120566
H32   H     H_    0.578619 0.067298 0.502478 0.130107
C37   C     C_2   0.073869 0.420487 0.536250 -0.128364
C38   C     C_2   0.070843 0.503697 0.604168 -0.204695
H33   H     H_    0.060572 0.348901 0.545580 0.124637
H34   H     H_    0.081145 0.574734 0.594637 0.132544
C39   C     C_2   0.072263 0.413302 0.434974 -0.086935
C40   C     C_2   0.107825 0.503081 0.425895 -0.193279
H35   H     H_    0.023210 0.332126 0.363055 0.134578
H36   H     H_    0.162982 0.583602 0.498632 0.128550
C41   C     C_2   0.937049 0.967958 0.846610 -0.060167
C42   C     C_2   0.889205 0.016386 0.887859 -0.170685
H37   H     H_    0.983278 0.999880 0.811268 0.122633
H38   H     H_    0.841037 0.979673 0.919673 0.138473
C43   C     C_2   0.954676 0.890558 0.877593 -0.341128
C44   C     C_2   0.992811 0.911692 0.982544 0.354200
H39   H     H_    0.937968 0.815234 0.813196 0.138456
N17   N     N_R   0.030299 0.015880 0.073427 0.241729
O1    O     O_R   0.013472 0.019720 0.154588 -0.436047
O2    O     O_R   0.098918 0.105841 0.085450 -0.394674

loop_
_geom_bond_atom_site_label_1
_geom_bond_atom_site_label_2
_geom_bond_distance
_ccdc_geom_bond_type
C6    C12   1.380679 A    
C39   C40   1.338266 D    
C17   H13   1.080828 S    
C7    H7    1.076876 S    
C23   C34   1.448241 S    
C14   C22   1.378039 A    
N17   O2    1.301425 A    
C41   C42   1.331011 D    
C3    H3    1.081275 S    
C19   N15   1.337131 A    
C35   C36   1.342910 D    
N8    Ni3   1.883114 S    
H21   C27   1.113967 S    
C43   C44   1.351827 D    
C30   C32   1.553466 S    
C15   N11   1.333792 A    
N9    N15   1.375373 A    
C24   C42   1.447289 S    
C16   H12   1.082018 S    
C36   H32   1.084608 S    
C9    C44   1.439931 S    
C18   C23   1.380345 A    
C3    C11   1.378143 A    
C11   C38   1.449169 S    
C15   C23   1.373637 A    
C1    H1    1.078649 S    
C25   H18   1.112992 S    
C7    C10   1.380669 A    
N6    Ni1   1.877137 S    
C41   H37   1.084239 S    
N12   N13   1.387687 A    
C15   H11   1.081973 S    
C6    H6    1.074640 S    
N12   Ni4   1.883115 S    
C8    C9    1.373630 A    
C20   N16   1.320116 A    
C28   C29   1.555278 S    
N3    Ni3   1.836758 S    
C37   H33   1.085074 S    
C31   H28   1.114223 S    
N16   Ni3   1.883971 S    
C25   C29   1.554815 S    
C39   H35   1.084380 S    
C5    H5    1.080599 S    
C1    C9    1.385881 A    
C17   N13   1.330946 A    
N1    N8    1.387686 A    
N2    Ni2   1.876139 S    
N17   O1    1.300708 A    
C33   H29   1.084538 S    
C18   N14   1.335593 A    
C33   C34   1.334834 D    
C35   H31   1.086415 S    
C27   C29   1.547127 S    
C30   C31   1.547434 S    
C20   C22   1.378643 A    
N5    Ni2   1.837520 S    
C32   H25   1.112962 S    
C2    N2    1.335578 A    
N2    N7    1.387812 A    
H22   C31   1.114250 S    
C26   H20   1.110803 S    
C25   C26   1.534487 S    
C44   N17   1.441213 S    
C13   H9    1.080191 S    
C19   C21   1.386778 A    
N13   Ni2   1.838093 S    
C38   H34   1.084246 S    
C19   H15   1.079038 S    
C10   C36   1.440270 S    
C28   H24   1.112933 S    
C20   H16   1.079793 S    
N9    Ni1   1.837520 S    
C40   H36   1.085919 S    
N4    Ni4   1.883970 S    
C4    N4    1.322874 A    
C16   C24   1.373184 A    
C6    N6    1.320626 A    
C13   C21   1.383323 A    
N10   Ni2   1.877137 S    
C34   H30   1.086404 S    
C21   C40   1.455444 S    
C5    N5    1.335085 A    
C28   C32   1.533586 S    
C8    N8    1.323841 A    
C27   H27   1.114068 S    
C12   C29   1.457908 S    
C37   C38   1.343063 D    
C18   H14   1.081009 S    
C22   C30   1.456593 S    
C4    C12   1.382901 A    
C3    N3    1.336738 A    
C7    N7    1.332184 A    
N10   N16   1.375373 A    
C17   C24   1.378055 A    
C32   H26   1.110588 S    
C2    H2    1.080209 S    
N7    Ni4   1.837126 S    
C2    C10   1.380247 A    
N15   Ni4   1.836756 S    
C42   H38   1.088469 S    
C14   H10   1.079944 S    
N3    N5    1.375373 A    
C13   N9    1.339615 A    
C26   H19   1.113000 S    
C16   N12   1.337060 A    
N1    Ni1   1.838093 S    
N14   Ni1   1.876139 S    
C27   C31   1.518915 S    
C37   C39   1.466076 S    
C25   H17   1.110036 S    
C33   C35   1.458865 S    
C4    H4    1.074565 S    
N11   Ni3   1.837125 S    
C43   H39   1.087217 S    
N4    N6    1.375371 A    
C26   C30   1.554053 S    
C8    H8    1.080863 S    
C5    C11   1.381246 A    
C28   H23   1.110129 S    
C1    N1    1.339945 A    
N11   N14   1.387812 A    
C41   C43   1.450440 S    
C14   N10   1.319867 A    
