data_mof_unit_14451.cif
_audit_creation_date              2012-12-10T18:13:10-0500
_audit_creation_method            fapswitch 2.2
_symmetry_space_group_name_H-M    P1
_symmetry_Int_Tables_number       1
_space_group_crystal_system       triclinic
_cell_length_a                    10.794529
_cell_length_b                    9.407385
_cell_length_c                    19.398524
_cell_angle_alpha                 90.469506
_cell_angle_beta                  90.378775
_cell_angle_gamma                 89.881809
_cell_volume                      1969.77378919

loop_
_atom_site_label
_atom_site_type_symbol
_atom_type_description
_atom_site_fract_x
_atom_site_fract_y
_atom_site_fract_z
_atom_type_partial_charge
C1    C     C_R   0.259728 0.500090 0.499816 0.891711
C2    C     C_R   0.523105 0.527754 0.067355 0.392428
C3    C     C_R   0.453368 0.623386 0.815243 -0.127024
C4    C     C_R   0.570793 0.403301 0.816396 -0.134415
C5    C     C_R   0.448609 0.617800 0.743513 -0.184550
C6    C     C_R   0.563277 0.395813 0.744612 -0.144511
C7    C     C_R   0.503058 0.503747 0.707811 -0.022645
C8    C     C_R   0.515373 0.516873 0.852144 0.058388
C9    C     C_3   0.071590 0.602294 0.555735 0.218911
C10   C     C_3   0.070224 0.347010 0.513454 0.260629
C11   C     C_3   0.929462 0.618310 0.547898 0.343890
C12   C     C_3   0.928226 0.352784 0.523112 0.252694
C13   C     C_3   0.070958 0.549660 0.422884 -0.182827
C14   C     C_3   0.121301 0.499978 0.497431 -0.167840
C15   C     C_3   0.877362 0.500218 0.497888 -0.185612
C16   C     C_R   0.497453 0.499644 0.366728 0.836831
C17   C     C_3   0.922168 0.527728 0.420957 -0.302256
C18   C     C_3   0.613880 0.083930 0.534582 -0.198130
C19   C     C_3   0.615933 0.916275 0.532182 -0.186439
C20   C     C_3   0.393142 0.084688 0.539877 -0.173423
C21   C     C_3   0.396173 0.917160 0.542477 -0.209176
C22   C     C_3   0.494191 0.082337 0.431071 -0.180871
C23   C     C_3   0.488410 0.915756 0.431133 -0.156224
C24   C     C_R   0.739640 0.499893 0.500626 0.883324
C25   C     C_R   0.500321 0.500701 0.632367 0.828122
C26   C     C_R   0.453180 0.624242 0.253341 -0.050543
C27   C     C_R   0.544035 0.386406 0.249484 -0.048431
C28   C     C_R   0.474026 0.638202 0.182005 0.425621
C29   C     C_R   0.551648 0.394397 0.177428 0.407116
C30   C     C_R   0.519906 0.521592 0.143423 -0.209087
C31   C     C_R   0.496016 0.501579 0.289020 -0.320677
C32   C     C_R   0.519681 0.523041 0.927717 0.387307
Cu1   Cu    Cu3+1 0.499860 0.642410 0.500030 0.916377
Cu2   Cu    Cu3+1 0.499860 0.357590 0.500030 0.956644
H1    H     H_    0.620999 0.121694 0.588958 0.147129
H2    H     H_    0.630105 0.874097 0.585057 0.155804
H3    H     H_    0.697764 0.122836 0.507957 0.150070
H4    H     H_    0.697265 0.881537 0.501478 0.140592
H5    H     H_    0.391531 0.128834 0.593197 0.165122
H6    H     H_    0.403618 0.882193 0.596988 0.144377
H7    H     H_    0.411316 0.124708 0.403708 0.180643
H8    H     H_    0.398524 0.882024 0.408436 0.158129
H9    H     H_    0.578167 0.114981 0.402640 0.160025
H10   H     H_    0.563295 0.873193 0.397649 0.179686
H11   H     H_    0.305212 0.117821 0.514636 0.164775
H12   H     H_    0.306303 0.876353 0.522755 0.137308
H13   H     H_    0.410143 0.712004 0.841836 0.157335
H14   H     H_    0.618224 0.319430 0.844005 0.158272
H15   H     H_    0.401480 0.701985 0.715927 0.134584
H16   H     H_    0.606557 0.307470 0.717806 0.147813
H17   H     H_    0.111894 0.710601 0.552165 0.003945
H18   H     H_    0.090906 0.275814 0.468884 0.141188
H19   H     H_    0.910360 0.724654 0.525628 -0.030901
H20   H     H_    0.887268 0.264795 0.491650 0.061344
N1    N     N_R   0.619205 0.470808 0.031649 -0.170632
N2    N     N_R   0.425865 0.583262 0.031907 -0.184560
N3    N     N_R   0.617246 0.467884 0.963039 -0.213128
N4    N     N_R   0.424571 0.581849 0.963371 -0.214190
N5    N     N_3   0.500250 0.143650 0.501520 -0.137131
N6    N     N_3   0.500250 0.856350 0.501520 -0.133049
O1    O     O_R   0.317570 0.620260 0.500040 -0.648076
O2    O     O_R   0.317570 0.379740 0.500040 -0.523549
O3    O     O_R   0.499870 0.620300 0.400170 -0.603178
O4    O     O_R   0.499870 0.379700 0.400170 -0.592690
O5    O     O_R   0.682190 0.620260 0.500020 -0.601108
O6    O     O_R   0.682190 0.379740 0.500020 -0.600419
O7    O     O_R   0.499890 0.620220 0.599880 -0.591972
O8    O     O_R   0.499890 0.379780 0.599880 -0.584888
C33   C     C_2   0.377019 0.733484 0.289154 0.504512
H21   H     H_    0.321975 0.703290 0.332996 0.057516
O9    O     O_2   0.374023 0.857037 0.270361 -0.471544
C34   C     C_2   0.572905 0.247926 0.280208 0.507637
H22   H     H_    0.498061 0.185420 0.300613 0.069430
O10   O     O_2   0.677830 0.199478 0.278346 -0.479357
C35   C     C_2   0.856422 0.659556 0.390917 0.440981
H23   H     H_    0.851234 0.757685 0.420284 0.079795
O11   O     O_2   0.812177 0.659731 0.332705 -0.512349
C36   C     C_2   0.877152 0.400578 0.376404 0.427710
H24   H     H_    0.782892 0.400842 0.356581 0.126702
O12   O     O_2   0.939350 0.293898 0.366428 -0.521733
O13   O     O_3   0.444470 0.765682 0.150876 -0.627952
H25   H     H_    0.501124 0.780661 0.111657 0.343330
O14   O     O_3   0.585859 0.272940 0.141553 -0.646907
H26   H     H_    0.536113 0.266885 0.098574 0.338459
O15   O     O_3   0.101858 0.550366 0.621704 -0.585534
H27   H     H_    0.189860 0.574960 0.630962 0.309391
O16   O     O_3   0.127866 0.289130 0.572347 -0.655808
H28   H     H_    0.110794 0.185426 0.571569 0.291904
O17   O     O_3   0.870821 0.612988 0.612529 -0.618420
H29   H     H_    0.888379 0.704610 0.636411 0.319870
O18   O     O_3   0.895837 0.331433 0.592594 -0.594779
H30   H     H_    0.889076 0.227313 0.599697 0.301316
C37   C     C_2   0.106866 0.705796 0.410346 0.224804
H31   H     H_    0.149691 0.771305 0.449545 0.085613
O19   O     O_2   0.088521 0.761367 0.354393 -0.494065
C38   C     C_2   0.132876 0.470573 0.362672 0.472145
H32   H     H_    0.107034 0.498402 0.310261 0.147434
O20   O     O_2   0.208986 0.375965 0.370769 -0.574082

loop_
_geom_bond_atom_site_label_1
_geom_bond_atom_site_label_2
_ccdc_geom_bond_type
O16   H28   S    
C37   H31   S    
C27   C29   A    
C12   O18   S    
C25   O7    A    
C32   N4    A    
C4    C8    A    
C10   H18   S    
C1    O2    A    
Cu2   O6    S    
O13   H25   S    
Cu1   O5    S    
O15   H27   S    
C16   C31   S    
C23   H8    S    
C18   H3    S    
C29   O14   S    
C19   H2    S    
C36   O12   D    
C22   H7    S    
Cu2   O2    S    
C18   C19   S    
C33   O9    D    
C9    O15   S    
C11   C15   S    
C22   H9    S    
C38   O20   D    
C16   O3    A    
C18   H1    S    
C20   H11   S    
C11   H19   S    
C24   O6    A    
C26   C31   A    
C37   O19   D    
C13   C14   S    
C5    H15   S    
C25   O8    A    
C32   N3    A    
C23   N6    S    
C10   O16   S    
C13   C38   S    
C27   C31   A    
C8    C32   S    
C21   N6    S    
C34   O10   D    
C3    C8    A    
C10   C14   S    
Cu2   O8    S    
O18   H30   S    
C5    C7    A    
C20   H5    S    
C36   H24   S    
C23   H10   S    
C13   C37   S    
C35   H23   S    
C29   C30   A    
C19   H4    S    
C9    C11   S    
C11   O17   S    
O14   H26   S    
C12   C15   S    
Cu1   O3    S    
C38   H32   S    
Cu2   O4    S    
Cu1   Cu2   S    
C9    C14   S    
C6    H16   S    
C20   N5    S    
C35   O11   D    
C10   C12   S    
C24   O5    A    
C4    C6    A    
C15   C24   S    
Cu1   N6    S    
N1    N3    A    
Cu2   N5    S    
C22   N5    S    
Cu1   O7    S    
C21   H12   S    
C4    H14   S    
C15   C17   S    
C28   O13   S    
C34   H22   S    
C3    C5    A    
C1    O1    A    
C6    C7    A    
C19   N6    S    
C26   C28   A    
C7    C25   S    
C13   C17   S    
C2    C30   S    
C9    H17   S    
C28   C30   A    
C2    N2    A    
C21   H6    S    
C3    H13   S    
C17   C36   S    
N2    N4    A    
C2    N1    A    
C33   H21   S    
C18   N5    S    
C20   C21   S    
Cu1   O1    S    
C17   C35   S    
C26   C33   S    
C22   C23   S    
C1    C14   S    
C16   O4    A    
O17   H29   S    
C12   H20   S    
C27   C34   S    
