data_mof_unit_52150.cif
_audit_creation_date              2013-03-05T15:53:16-0500
_audit_creation_method            fapswitch 2.2
_symmetry_space_group_name_H-M    P1
_symmetry_Int_Tables_number       1
_space_group_crystal_system       triclinic
_cell_length_a                    17.312265
_cell_length_b                    24.451236
_cell_length_c                    15.005716
_cell_angle_alpha                 89.032277
_cell_angle_beta                  125.82118
_cell_angle_gamma                 90.843943
_cell_volume                      5149.6880971

loop_
_atom_site_label
_atom_site_type_symbol
_atom_site_description
_atom_site_fract_x
_atom_site_fract_y
_atom_site_fract_z
_atom_type_partial_charge
C1    C     C_R   0.358029 0.346523 0.910038 0.437754
C2    C     C_R   0.689865 0.377339 0.091351 0.483367
C3    C     C_R   0.857736 0.846593 0.910075 0.434428
C4    C     C_R   0.187835 0.874204 0.092288 0.430437
N1    N     N_R   0.395410 0.396350 0.944340 -0.127517
N2    N     N_R   0.604590 0.396350 0.055660 -0.106931
N3    N     N_R   0.895410 0.896350 0.944340 -0.125191
N4    N     N_R   0.104590 0.896350 0.055660 -0.135871
C5    C     C_R   0.444105 0.651175 0.088343 -0.072924
C6    C     C_R   0.601917 0.619249 0.909934 -0.212869
C7    C     C_R   0.941602 0.150582 0.088409 -0.082571
C8    C     C_R   0.101831 0.119567 0.909984 -0.212314
H1    H     H_    0.490703 0.666789 0.170616 0.110573
H2    H     H_    0.579292 0.617442 0.827069 0.150587
H3    H     H_    0.988052 0.166528 0.170419 0.112567
H4    H     H_    0.079080 0.118064 0.827086 0.151009
N5    N     N_R   0.449930 0.602500 0.055880 -0.054409
N6    N     N_R   0.550070 0.602500 0.944120 -0.050788
N7    N     N_R   0.949930 0.102500 0.055880 -0.053422
N8    N     N_R   0.050070 0.102500 0.944120 -0.051928
C9    C     C_R   0.474643 0.452690 0.241117 -0.300374
C10   C     C_R   0.449695 0.454319 0.697004 -0.155794
C11   C     C_R   0.975310 0.952868 0.242267 -0.270827
C12   C     C_R   0.953654 0.955060 0.697723 -0.238013
H5    H     H_    0.457944 0.410470 0.244490 0.213889
H6    H     H_    0.426477 0.413431 0.666322 0.127674
H7    H     H_    0.963428 0.910620 0.252699 0.208575
H8    H     H_    0.936029 0.914115 0.666066 0.142678
N9    N     N_R   0.525080 0.471030 0.205650 -0.077171
N10   N     N_R   0.474920 0.471030 0.794350 -0.076030
N11   N     N_R   0.025080 0.971030 0.205650 -0.078177
N12   N     N_R   0.974920 0.971030 0.794350 -0.063125
C13   C     C_R   0.229997 0.544929 0.735974 -0.105671
C14   C     C_R   0.750985 0.544688 0.305797 -0.147115
C15   C     C_R   0.729995 0.044937 0.735541 -0.098330
C16   C     C_R   0.251372 0.045066 0.305169 -0.145001
H9    H     H_    0.207159 0.587045 0.718173 0.112393
H10   H     H_    0.759944 0.586416 0.333388 0.103116
H11   H     H_    0.707120 0.087036 0.717416 0.111224
H12   H     H_    0.260007 0.086845 0.332394 0.098906
N13   N     N_R   0.320260 0.527820 0.794570 -0.048787
N14   N     N_R   0.679740 0.527820 0.205430 -0.052237
N15   N     N_R   0.820260 0.027820 0.794570 -0.048900
N16   N     N_R   0.179740 0.027820 0.205430 -0.047421
C17   C     C_R   0.482793 0.543455 0.252887 0.538989
C18   C     C_R   0.449227 0.544607 0.694708 0.474416
C19   C     C_R   0.981036 0.043890 0.249739 0.503940
C20   C     C_R   0.951749 0.045527 0.697283 0.488362
N17   N     N_R   0.524590 0.527840 0.205200 -0.118285
N18   N     N_R   0.475410 0.527840 0.794800 -0.113339
N19   N     N_R   0.024590 0.027840 0.205200 -0.115758
N20   N     N_R   0.975410 0.027840 0.794800 -0.110263
C21   C     C_R   0.230898 0.452999 0.739364 -0.145219
C22   C     C_R   0.747106 0.454490 0.307965 0.015406
C23   C     C_R   0.730862 0.953011 0.739091 -0.132433
C24   C     C_R   0.247742 0.954976 0.308302 -0.010655
H13   H     H_    0.208434 0.410668 0.723992 0.150067
H14   H     H_    0.748398 0.413500 0.335636 0.154927
H15   H     H_    0.708343 0.910688 0.723777 0.148076
H16   H     H_    0.247397 0.915344 0.339112 0.103532
N21   N     N_R   0.320750 0.471000 0.795020 -0.058277
N22   N     N_R   0.679250 0.471000 0.204980 -0.043922
N23   N     N_R   0.820750 0.971000 0.795020 -0.055745
N24   N     N_R   0.179250 0.971000 0.204980 -0.050530
C25   C     C_R   0.349008 0.650501 0.905874 -0.167252
C26   C     C_R   0.691831 0.623674 0.092336 -0.081920
C27   C     C_R   0.846875 0.149855 0.905749 -0.165135
C28   C     C_R   0.191755 0.123804 0.092376 -0.081479
H17   H     H_    0.305374 0.663801 0.820866 0.132690
H18   H     H_    0.749767 0.630032 0.177451 0.155565
H19   H     H_    0.803547 0.163292 0.820831 0.134175
H20   H     H_    0.249630 0.130168 0.177489 0.155260
N25   N     N_R   0.393620 0.602490 0.942710 -0.045101
N26   N     N_R   0.606380 0.602490 0.057290 -0.056010
N27   N     N_R   0.893620 0.102490 0.942710 -0.045536
N28   N     N_R   0.106380 0.102490 0.057290 -0.055577
C29   C     C_R   0.445392 0.346124 0.091101 0.379590
C30   C     C_R   0.596302 0.371876 0.909530 0.483724
C31   C     C_R   0.945061 0.846240 0.091197 0.375874
C32   C     C_R   0.096067 0.870844 0.910282 0.437461
N29   N     N_R   0.451720 0.396350 0.057510 -0.122746
N30   N     N_R   0.548280 0.396350 0.942490 -0.140767
N31   N     N_R   0.951720 0.896350 0.057510 -0.122269
N32   N     N_R   0.048280 0.896350 0.942490 -0.129724
C33   C     C_R   0.384429 0.313951 0.999685 -0.019811
C34   C     C_R   0.686918 0.360915 0.001771 -0.179613
C35   C     C_R   0.883947 0.814122 0.999771 -0.014012
C36   C     C_R   0.185585 0.858289 0.003425 -0.076250
C37   C     C_R   0.380851 0.681477 0.996699 0.082391
C38   C     C_R   0.690764 0.634325 0.999720 0.133511
C39   C     C_R   0.876742 0.180379 0.996625 0.080098
C40   C     C_R   0.190738 0.134573 0.999837 0.135043
C41   C     C_R   0.447783 0.496955 0.272711 0.079994
C42   C     C_R   0.434773 0.499155 0.632956 0.109832
C43   C     C_R   0.947186 0.997687 0.270742 0.135321
C44   C     C_R   0.939668 0.001069 0.637058 0.142676
C45   C     C_R   0.173131 0.498569 0.703458 0.168573
C46   C     C_R   0.793322 0.499619 0.373111 0.102061
C47   C     C_R   0.673124 0.998597 0.702892 0.164493
C48   C     C_R   0.294102 0.000265 0.372769 0.137719
Ni1   Ni    Ni4+2 0.435420 0.434270 0.870230 0.188915
Ni2   Ni    Ni4+2 0.564580 0.434270 0.129770 0.231077
Ni3   Ni    Ni4+2 0.935420 0.934270 0.870230 0.198318
Ni4   Ni    Ni4+2 0.064580 0.934270 0.129770 0.199518
Ni5   Ni    Ni4+2 0.563430 0.564580 0.128740 0.190843
Ni6   Ni    Ni4+2 0.436570 0.564580 0.871260 0.212780
Ni7   Ni    Ni4+2 0.063430 0.064580 0.128740 0.192926
Ni8   Ni    Ni4+2 0.936570 0.064580 0.871260 0.218198
C49   C     C_2   0.914327 0.461332 0.563105 0.266912
C50   C     C_2   0.015531 0.470897 0.654440 0.276545
C51   C     C_2   0.414090 0.962510 0.563706 0.274990
C52   C     C_2   0.515441 0.971938 0.654662 0.267327
C53   C     C_2   0.867006 0.503368 0.492119 -0.271191
C54   C     C_2   0.070262 0.497278 0.630202 -0.279479
C55   C     C_2   0.367202 0.004355 0.491926 -0.286714
C56   C     C_2   0.570291 0.997355 0.629568 -0.272163
H21   H     H_    0.896147 0.544364 0.519641 0.126696
H22   H     H_    0.039306 0.514949 0.549096 0.138144
H23   H     H_    0.396747 0.045326 0.518853 0.126342
H24   H     H_    0.539412 0.014313 0.547948 0.142753
C57   C     C_R   0.331283 0.735817 0.083783 -0.063687
C58   C     C_R   0.735573 0.687229 0.892626 -0.036548
C59   C     C_R   0.831836 0.237763 0.085449 -0.021811
C60   C     C_R   0.236747 0.186715 0.892974 -0.034998
C61   C     C_R   0.346420 0.732875 0.002785 -0.102981
C62   C     C_R   0.762747 0.662070 0.992205 -0.028435
C63   C     C_R   0.844107 0.232610 0.002361 -0.096386
C64   C     C_R   0.263127 0.162062 0.992637 -0.025796
C65   C     C_R   0.323251 0.777953 0.930889 0.483197
C66   C     C_R   0.854847 0.673929 0.087313 0.488101
C67   C     C_R   0.820927 0.276917 0.928549 0.470949
C68   C     C_R   0.355011 0.174083 0.087967 0.487741
C69   C     C_R   0.772355 0.321505 0.931167 -0.102605
C70   C     C_R   0.403307 0.221325 0.087909 -0.328132
C71   C     C_R   0.273223 0.821411 0.934224 -0.130259
C72   C     C_R   0.902982 0.721295 0.087419 -0.328990
H25   H     H_    0.747372 0.353975 0.870323 0.195864
H26   H     H_    0.469862 0.232745 0.163320 0.223907
H27   H     H_    0.248456 0.854599 0.874858 0.202279
H28   H     H_    0.969822 0.732570 0.162656 0.221374
C73   C     C_R   0.751903 0.322391 0.008913 -0.022180
C74   C     C_R   0.359599 0.255729 0.994324 0.059408
C75   C     C_R   0.250988 0.820286 0.010554 -0.011732
C76   C     C_R   0.858820 0.755989 0.994251 0.059422
C77   C     C_R   0.789080 0.282388 0.090782 -0.078835
C78   C     C_R   0.281877 0.234263 0.895693 0.014950
C79   C     C_R   0.288042 0.779577 0.091229 0.053436
C80   C     C_R   0.780496 0.734922 0.895685 0.017674
C81   C     C_3   0.742343 0.249169 0.132806 0.396279
C82   C     C_3   0.191525 0.259408 0.799731 0.390356
C83   C     C_3   0.239638 0.743702 0.128317 0.346143
C84   C     C_3   0.689837 0.760558 0.801281 0.386329
C85   C     C_3   0.287861 0.695032 0.118829 -0.054074
C86   C     C_3   0.640794 0.706950 0.792677 -0.125571
C87   C     C_3   0.790319 0.199112 0.126613 -0.066697
C88   C     C_3   0.142385 0.205952 0.791789 -0.129199
H29   H     H_    0.663136 0.249441 0.075759 0.112561
H30   H     H_    0.192017 0.268623 0.727311 0.159984
H31   H     H_    0.160501 0.744316 0.070235 0.109862
H32   H     H_    0.689346 0.770497 0.728437 0.161886
H33   H     H_    0.342535 0.675049 0.198569 0.212539
H34   H     H_    0.583942 0.711643 0.805135 0.178127
H35   H     H_    0.845748 0.180613 0.207931 0.199824
H36   H     H_    0.084875 0.211098 0.803013 0.178091
C89   C     C_R   0.440472 0.448530 0.499509 -0.213749
C90   C     C_R   0.439931 0.446245 0.408263 -0.151061
C91   C     C_R   0.018260 0.989717 0.551412 -0.151030
C92   C     C_R   0.017463 0.984876 0.461084 -0.153640
C93   C     C_R   0.407859 0.494424 0.521663 -0.020145
C94   C     C_R   0.411693 0.491715 0.338828 -0.018857
C95   C     C_R   0.935414 0.002671 0.540013 -0.066023
C96   C     C_R   0.935553 0.995629 0.356873 0.001935
C97   C     C_R   0.353977 0.533356 0.436793 0.377083
C98   C     C_R   0.359429 0.533417 0.345248 0.382827
C99   C     C_R   0.854284 0.020676 0.438259 0.405500
C100  C     C_R   0.856299 0.019438 0.344822 0.357781
C101  C     C_3   0.531322 0.413979 0.468606 0.277994
C102  C     C_3   0.531596 0.416814 0.569939 0.333478
C103  C     C_3   0.087466 0.938494 0.509912 0.274511
C104  C     C_3   0.088833 0.944319 0.612137 0.311539
H37   H     H_    0.591563 0.435807 0.475795 0.114269
H38   H     H_    0.522259 0.376761 0.598796 0.145438
H39   H     H_    0.155697 0.948808 0.521810 0.118222
H40   H     H_    0.060494 0.908325 0.630918 0.139355
O1    O     O_3   0.333565 0.326018 0.811806 -0.791002
H41   H     H_    0.337944 0.356376 0.770360 0.301901
O2    O     O_3   0.765819 0.373863 0.200012 -0.746301
H42   H     H_    0.824559 0.370449 0.203668 0.320193
O3    O     O_3   0.833026 0.825973 0.811812 -0.790584
H43   H     H_    0.837664 0.856226 0.770371 0.304686
O4    O     O_3   0.257430 0.861413 0.199767 -0.730821
H44   H     H_    0.223081 0.851524 0.232201 0.332948
O5    O     O_3   0.343739 0.780219 0.854820 -0.731707
H45   H     H_    0.392072 0.752205 0.874145 0.313525
O6    O     O_3   0.892923 0.641880 0.180571 -0.764702
H46   H     H_    0.956936 0.656211 0.239277 0.328816
O7    O     O_3   0.840326 0.277456 0.851535 -0.737223
H47   H     H_    0.890240 0.250110 0.873334 0.312996
O8    O     O_3   0.392742 0.142321 0.181520 -0.761621
H48   H     H_    0.456675 0.156711 0.240304 0.330973
O9    O     O_3   0.776230 0.261775 0.241314 -0.691297
H49   H     H_    0.846657 0.265852 0.286237 0.324713
O10   O     O_3   0.159462 0.303904 0.828309 -0.767564
H50   H     H_    0.164982 0.294346 0.896453 0.313345
O11   O     O_3   0.272106 0.752288 0.237730 -0.716376
H51   H     H_    0.342328 0.757650 0.283737 0.338321
O12   O     O_3   0.658806 0.804619 0.832109 -0.766464
H52   H     H_    0.664993 0.794389 0.900391 0.315173
C105  C     C_3   0.216619 0.654754 0.029893 -0.855751
H53   H     H_    0.255199 0.621082 0.023285 0.271715
H54   H     H_    0.171420 0.636498 0.052949 0.260687
H55   H     H_    0.169964 0.675508 0.948596 0.237052
C106  C     C_3   0.608623 0.675855 0.687727 -0.869685
H56   H     H_    0.590162 0.632755 0.691392 0.266612
H57   H     H_    0.544809 0.695988 0.615607 0.268904
H58   H     H_    0.665723 0.675540 0.674936 0.238218
C107  C     C_3   0.718748 0.157211 0.042550 -0.868584
H59   H     H_    0.675383 0.140338 0.069284 0.257077
H60   H     H_    0.670350 0.176176 0.959675 0.242112
H61   H     H_    0.757090 0.122811 0.037546 0.274132
C108  C     C_3   0.111456 0.173946 0.688203 -0.866431
H62   H     H_    0.047922 0.193674 0.615007 0.267713
H63   H     H_    0.169223 0.173195 0.676548 0.237021
H64   H     H_    0.093011 0.130968 0.692890 0.268414
O13   O     O_3   0.298553 0.569812 0.445158 -0.687285
H65   H     H_    0.244110 0.580666 0.370217 0.321142
O14   O     O_3   0.320642 0.574434 0.266475 -0.732716
H66   H     H_    0.313324 0.607644 0.297610 0.336369
O15   O     O_3   0.774806 0.035692 0.432427 -0.713528
H67   H     H_    0.717543 0.031170 0.356075 0.322642
O16   O     O_3   0.783975 0.040152 0.243204 -0.746564
H68   H     H_    0.751613 0.069564 0.254060 0.330965
O17   O     O_3   0.519076 0.360347 0.429269 -0.715921
H69   H     H_    0.459611 0.344699 0.415186 0.324859
O18   O     O_3   0.608414 0.447539 0.655578 -0.727758
H70   H     H_    0.610175 0.483735 0.625661 0.312356
O19   O     O_3   0.048741 0.888142 0.456747 -0.728981
H71   H     H_    0.985251 0.883055 0.442228 0.315098
O20   O     O_3   0.177025 0.962659 0.704936 -0.723784
H72   H     H_    0.196178 0.996451 0.684597 0.322483
O21   O     O_3   0.495189 0.593446 0.299899 -0.756053
H73   H     H_    0.551911 0.610335 0.309435 0.287998
O22   O     O_3   0.418191 0.596440 0.652695 -0.705780
H74   H     H_    0.416785 0.617287 0.707796 0.308227
O23   O     O_3   0.995177 0.093516 0.298849 -0.768748
H75   H     H_    0.052823 0.109876 0.309778 0.292577
O24   O     O_3   0.917964 0.096881 0.653713 -0.727275
H76   H     H_    0.915365 0.117485 0.708218 0.307604
O25   O     O_3   0.510737 0.325938 0.195362 -0.732168
H77   H     H_    0.559821 0.354671 0.237130 0.338540
O26   O     O_3   0.555644 0.347830 0.809270 -0.748930
H78   H     H_    0.487059 0.343317 0.776824 0.309418
O27   O     O_3   0.010275 0.826012 0.195442 -0.749067
H79   H     H_    0.059836 0.854542 0.236971 0.326538
O28   O     O_3   0.055339 0.847043 0.809805 -0.755327
H80   H     H_    0.986358 0.843759 0.776249 0.316012
C109  C     C_3   0.877424 0.403319 0.542690 -0.881991
H81   H     H_    0.918716 0.378080 0.618799 0.265222
H82   H     H_    0.802195 0.402514 0.514788 0.244451
H83   H     H_    0.885524 0.383927 0.482300 0.250257
C110  C     C_3   0.056322 0.448161 0.767973 -0.899195
H84   H     H_    0.998708 0.434404 0.775059 0.251672
H85   H     H_    0.103137 0.412904 0.785995 0.277054
H86   H     H_    0.097995 0.480365 0.830297 0.243509
C111  C     C_3   0.376584 0.904664 0.544709 -0.886073
H87   H     H_    0.418077 0.879737 0.621229 0.265834
H88   H     H_    0.301609 0.904369 0.517692 0.243095
H89   H     H_    0.383819 0.884552 0.484235 0.250629
C112  C     C_3   0.556243 0.950041 0.768758 -0.887865
H90   H     H_    0.498648 0.936782 0.776249 0.253297
H91   H     H_    0.603009 0.914619 0.787632 0.275821
H92   H     H_    0.598012 0.982572 0.830230 0.245065

loop_
_geom_bond_atom_site_label_1
_geom_bond_atom_site_label_2
_geom_bond_distance
_ccdc_geom_bond_type
N3    N31   1.377111 A    
O10   H50   0.993769 S    
C84   H32   1.110920 S    
C69   H25   1.083684 S    
C89   C90   1.365838 A    
C99   O15   1.381497 S    
C32   O28   1.371960 S    
C23   H15   1.080289 S    
C10   C42   1.369099 A    
O9    H49   0.993760 S    
C74   C78   1.396753 A    
C84   O12   1.409973 S    
C15   H11   1.080231 S    
O20   H72   0.993804 S    
C14   N14   1.338400 A    
N13   N21   1.389348 A    
C108  H64   1.106866 S    
C4    N4    1.325911 A    
C17   C41   1.388485 A    
C112  H90   1.110132 S    
C31   C35   1.389681 A    
O1    H41   0.990691 S    
C27   N27   1.335789 A    
N15   N23   1.389348 A    
O26   H78   0.990122 S    
C26   C38   1.399091 A    
N9    N17   1.389101 A    
C97   C98   1.430957 A    
N16   N24   1.389326 A    
C107  H61   1.109350 S    
C25   C37   1.370456 A    
C96   C100  1.408444 A    
C7    N7    1.322108 A    
O25   H77   0.991148 S    
O15   H67   0.989562 S    
C57   C85   1.503034 S    
N2    N30   1.377110 A    
C82   O10   1.409925 S    
C67   O7    1.379186 S    
C109  H81   1.108940 S    
C20   O24   1.375687 S    
C3    N3    1.332334 A    
C3    O3    1.375430 S    
C42   C93   1.453820 S    
C94   C98   1.414272 A    
O27   H79   0.991138 S    
C72   C76   1.409473 A    
C25   H17   1.081141 S    
C106  H58   1.111964 S    
C81   O9    1.408498 S    
N4    Ni4   1.879245 S    
C62   C66   1.414205 A    
C95   C99   1.408255 A    
O22   H74   0.991071 S    
C26   N26   1.345124 A    
C64   C68   1.414214 A    
C105  H55   1.111726 S    
C25   N25   1.336120 A    
N8    N28   1.377109 A    
O21   H73   0.990411 S    
C5    H1    1.077858 S    
C2    O2    1.372554 S    
N12   N20   1.389080 A    
C50   C110  1.510454 S    
C105  H54   1.110231 S    
C4    C36   1.373797 A    
C78   C82   1.503396 S    
C7    H3    1.077839 S    
C72   H28   1.077752 S    
C19   N19   1.332913 A    
C11   H7    1.077002 S    
C59   C77   1.356826 A    
C43   C96   1.419757 S    
C85   C105  1.534302 S    
C44   C95   1.414287 S    
C23   N23   1.335302 A    
O18   H70   0.993741 S    
C24   N24   1.343355 A    
C87   C107  1.533920 S    
C58   C80   1.378464 A    
C35   C76   1.469727 S    
C10   N10   1.326523 A    
O17   H69   0.993666 S    
C50   C54   1.350419 D    
C36   C75   1.429263 S    
C27   H19   1.081039 S    
O5    H45   0.989747 S    
C76   C80   1.396143 A    
N14   N22   1.389326 A    
C60   C64   1.409508 A    
C30   C34   1.380921 A    
C71   C75   1.405543 A    
C91   C104  1.502631 S    
N10   N18   1.389080 A    
C29   C33   1.389903 A    
N27   Ni8   1.883787 S    
N6    N26   1.377109 A    
C108  H63   1.111958 S    
N3    Ni3   1.850422 S    
O23   H75   0.990840 S    
C83   C85   1.519064 S    
N5    N25   1.377114 A    
C30   O26   1.372127 S    
C58   C86   1.514141 S    
C4    O4    1.367530 S    
C2    N2    1.329925 A    
C48   C55   1.470471 S    
C21   N21   1.335117 A    
C18   O22   1.374397 S    
C86   C106  1.539392 S    
C15   C47   1.383649 A    
C40   C64   1.471471 S    
C27   C39   1.371738 A    
N14   Ni5   1.868899 S    
C86   H34   1.111870 S    
C18   N18   1.348032 A    
O13   H65   0.989974 S    
C103  H39   1.112064 S    
N29   Ni2   1.831322 S    
C106  H57   1.110233 S    
C89   C93   1.392666 A    
N1    Ni1   1.850422 S    
C41   C94   1.452613 S    
O12   H52   0.993769 S    
C111  H87   1.108927 S    
N13   Ni6   1.859040 S    
C3    C35   1.381130 A    
C32   N32   1.341760 A    
C106  H56   1.106546 S    
C8    H4    1.063711 S    
C16   H12   1.082096 S    
C51   C111  1.507748 S    
N23   Ni3   1.848533 S    
C66   O6    1.380355 S    
C6    H2    1.064334 S    
C5    C37   1.366031 A    
C91   C92   1.354576 A    
C110  H85   1.108749 S    
C21   H13   1.080275 S    
C46   C53   1.469818 S    
C59   C87   1.507061 S    
C22   N22   1.341301 A    
C104  O20   1.408406 S    
C21   C45   1.383400 A    
C107  H59   1.110208 S    
O11   H51   0.993834 S    
C100  O16   1.381019 S    
C60   C78   1.378871 A    
C68   O8    1.380339 S    
C13   H9    1.080387 S    
C56   H24   1.086629 S    
C85   H33   1.111113 S    
C88   C108  1.539409 S    
C109  H82   1.110463 S    
C19   O23   1.373208 S    
C83   H31   1.113253 S    
C58   C62   1.409676 A    
N21   Ni1   1.848533 S    
C98   O14   1.380113 S    
C12   N12   1.334325 A    
C57   C61   1.388331 A    
C108  H62   1.110197 S    
N5    Ni5   1.849549 S    
C70   C74   1.409737 A    
N1    N29   1.377111 A    
C30   N30   1.341577 A    
C59   C63   1.389837 A    
O14   H66   0.989371 S    
C18   C42   1.382590 A    
C60   C88   1.513449 S    
C17   N17   1.343471 A    
C28   H20   1.078680 S    
C65   C71   1.400484 A    
C8    N8    1.326121 A    
C57   C79   1.357681 A    
C105  H53   1.109178 S    
C31   O27   1.374533 S    
N12   Ni3   1.852226 S    
O3    H43   0.990695 S    
C16   C48   1.372652 A    
C90   C101  1.510414 S    
C102  H38   1.111622 S    
C83   O11   1.408375 S    
C111  H88   1.110441 S    
C88   H36   1.111843 S    
C54   H22   1.086598 S    
C39   C63   1.428102 S    
C101  C102  1.520545 S    
C68   C70   1.416248 A    
C53   H21   1.088620 S    
C51   C55   1.352687 D    
C5    N5    1.320830 A    
C84   C86   1.516678 S    
C75   C79   1.391724 A    
N28   Ni7   1.854967 S    
C55   H23   1.088655 S    
C112  H91   1.108974 S    
C61   C65   1.416339 A    
C10   H6    1.077108 S    
C92   C96   1.388111 A    
C1    N1    1.332710 A    
C16   N16   1.337562 A    
C1    C33   1.381190 A    
C107  H60   1.111723 S    
C24   C48   1.381112 A    
O28   H80   0.990352 S    
C17   O21   1.371858 S    
C47   C56   1.444874 S    
C15   N15   1.337273 A    
N31   Ni4   1.831322 S    
C12   H8    1.076318 S    
N7    N27   1.377114 A    
C22   H14   1.073842 S    
N16   Ni7   1.868899 S    
O4    H44   0.989716 S    
N24   Ni4   1.838615 S    
C9    H5    1.076306 S    
C93   C97   1.411694 A    
C20   C44   1.359201 A    
C51   C52   1.479938 S    
C14   H10   1.082099 S    
C29   O25   1.374677 S    
C8    C40   1.375694 A    
C66   C72   1.416277 A    
C80   C84   1.503183 S    
C14   C46   1.375315 A    
N11   N19   1.389101 A    
C67   C69   1.401560 A    
C52   C112  1.510446 S    
C70   H26   1.077555 S    
C110  H86   1.110653 S    
C65   O5    1.379494 S    
O24   H76   0.991186 S    
C52   C56   1.350159 D    
C90   C94   1.393331 A    
C103  O19   1.408710 S    
C49   C53   1.352249 D    
C103  C104  1.529267 S    
C28   N28   1.345035 A    
C92   C103  1.504922 S    
C82   H30   1.110976 S    
C69   C73   1.404083 A    
C91   C95   1.382408 A    
C37   C61   1.425741 S    
C71   H27   1.083824 S    
C87   H35   1.112635 S    
C1    O1    1.375331 S    
C109  H83   1.109462 S    
C12   C44   1.366857 A    
C81   C87   1.523396 S    
C13   N13   1.337378 A    
O2    H42   0.990535 S    
C32   C36   1.383335 A    
C99   C100  1.423619 A    
C97   O13   1.378773 S    
C49   C50   1.480160 S    
N11   Ni4   1.880449 S    
N26   Ni5   1.854967 S    
C31   N31   1.346541 A    
N25   Ni6   1.883787 S    
C110  H84   1.110121 S    
C9    C41   1.379368 A    
N6    Ni6   1.839015 S    
C6    N6    1.325733 A    
C101  H37   1.112675 S    
C79   C83   1.513005 S    
N10   Ni1   1.852226 S    
C89   C102  1.504599 S    
C73   C77   1.390201 A    
C28   C40   1.398932 A    
N30   Ni1   1.841889 S    
C11   C43   1.376821 A    
N9    Ni2   1.880449 S    
C2    C34   1.381358 A    
C33   C74   1.470790 S    
C13   C45   1.384118 A    
N15   Ni8   1.859040 S    
N2    Ni2   1.879245 S    
C9    N9    1.330834 A    
C49   C109  1.507656 S    
O7    H47   0.989737 S    
C101  O17   1.408720 S    
C111  H89   1.109468 S    
C63   C67   1.418985 A    
O8    H48   0.991555 S    
O6    H46   0.991573 S    
C7    C39   1.366961 A    
C38   C62   1.470695 S    
C20   N20   1.333547 A    
C6    C38   1.375264 A    
C24   H16   1.068054 S    
C26   H18   1.078924 S    
N20   Ni8   1.879140 S    
N19   Ni7   1.850933 S    
C29   N29   1.346869 A    
N4    N32   1.377110 A    
C112  H92   1.110646 S    
C23   C47   1.383270 A    
O16   H68   0.990082 S    
N18   Ni6   1.879140 S    
N32   Ni3   1.841889 S    
C19   C43   1.379745 A    
C102  O18   1.409682 S    
C22   C46   1.381424 A    
C82   C88   1.516627 S    
N17   Ni5   1.850933 S    
N22   Ni2   1.838615 S    
C45   C54   1.445332 S    
O19   H71   0.993827 S    
C81   H29   1.113213 S    
C77   C81   1.507530 S    
C104  H40   1.111513 S    
C34   C73   1.432164 S    
C11   N11   1.332730 A    
N8    Ni8   1.839015 S    
N7    Ni7   1.849549 S    
