data_mof_unit_58123.cif
_audit_creation_date              2012-12-10T19:09:28-0500
_audit_creation_method            fapswitch 2.2
_symmetry_space_group_name_H-M    P1
_symmetry_Int_Tables_number       1
_space_group_crystal_system       triclinic
_cell_length_a                    14.936307
_cell_length_b                    15.334369
_cell_length_c                    9.685007
_cell_angle_alpha                 89.977653
_cell_angle_beta                  91.010755
_cell_angle_gamma                 90.011085
_cell_volume                      2217.89743561

loop_
_atom_site_label
_atom_site_type_symbol
_atom_type_description
_atom_site_fract_x
_atom_site_fract_y
_atom_site_fract_z
_atom_type_partial_charge
C1    C     C_R   0.121070 0.378977 0.500997 0.909207
C2    C     C_R   0.876314 0.619203 0.499166 0.858648
C3    C     C_R   0.376549 0.880708 0.498620 0.852223
C4    C     C_R   0.376313 0.119202 0.499166 0.858633
C5    C     C_3   0.734477 0.335287 0.602851 -0.511083
C6    C     C_3   0.852264 0.225622 0.540322 -0.474775
C7    C     C_3   0.846668 0.771185 0.438972 -0.509879
C8    C     C_3   0.779079 0.705849 0.650107 -0.457837
C9    C     C_3   0.234480 0.835285 0.602850 -0.511103
C10   C     C_3   0.352266 0.725621 0.540311 -0.474769
C11   C     C_3   0.346668 0.271185 0.438982 -0.509873
C12   C     C_R   0.121229 0.620979 0.500516 0.937456
C13   C     C_3   0.279073 0.205842 0.650108 -0.457831
C14   C     C_3   0.163785 0.762074 0.606493 -0.086300
C15   C     C_3   0.281349 0.652178 0.545441 -0.114343
C16   C     C_3   0.276925 0.345034 0.442215 -0.093019
C17   C     C_3   0.206748 0.276615 0.652943 -0.080503
C18   C     C_3   0.663779 0.262080 0.606486 -0.086309
C19   C     C_3   0.781345 0.152181 0.545453 -0.114348
C20   C     C_3   0.776925 0.845034 0.442205 -0.093010
C21   C     C_3   0.706758 0.776624 0.652943 -0.080497
C22   C     C_3   0.762701 0.302991 0.345158 0.272084
C23   C     C_R   0.621071 0.878979 0.500997 0.909213
C24   C     C_3   0.719055 0.656900 0.413169 0.239395
C25   C     C_3   0.262696 0.802998 0.345160 0.272069
C26   C     C_3   0.219054 0.156900 0.413165 0.239388
C27   C     C_3   0.807435 0.313144 0.494873 0.111833
C28   C     C_3   0.806176 0.686167 0.498053 0.113384
C29   C     C_3   0.307436 0.813144 0.494871 0.111836
C30   C     C_3   0.306173 0.186165 0.498055 0.113375
C31   C     C_3   0.188408 0.689822 0.500038 0.104007
C32   C     C_3   0.187344 0.309562 0.502132 0.088694
C33   C     C_3   0.688405 0.189825 0.500039 0.104002
C34   C     C_R   0.621227 0.120981 0.500516 0.937463
C35   C     C_3   0.687346 0.809565 0.502132 0.088699
C36   C     C_3   0.193393 0.729125 0.351591 -0.419795
C37   C     C_3   0.151129 0.232963 0.413315 -0.367202
C38   C     C_3   0.693389 0.229127 0.351594 -0.419743
C39   C     C_3   0.651128 0.732962 0.413326 -0.367227
C40   C     C_3   0.023437 0.413294 0.081904 -0.242682
C41   C     C_3   0.024053 0.413486 0.919350 -0.233104
C42   C     C_3   0.063065 0.564602 0.920315 -0.240596
C43   C     C_3   0.063637 0.564066 0.082908 -0.229551
C44   C     C_3   0.523675 0.913359 0.081908 -0.242648
C45   C     C_3   0.909541 0.522647 0.078529 -0.245772
C46   C     C_3   0.524326 0.913561 0.919356 -0.233064
C47   C     C_3   0.562860 0.064796 0.920310 -0.240552
C48   C     C_3   0.563459 0.064237 0.082903 -0.229561
C49   C     C_3   0.909174 0.521768 0.916059 -0.225840
C50   C     C_3   0.409481 0.022417 0.078526 -0.245824
C51   C     C_3   0.409103 0.021495 0.916056 -0.225876
C52   C     C_R   0.876548 0.380709 0.498620 0.852239
H1    H     H_    0.703203 0.399510 0.582767 0.163561
H2    H     H_    0.883244 0.232987 0.645165 0.168583
H3    H     H_    0.905303 0.791026 0.503625 0.173934
H4    H     H_    0.838339 0.729233 0.711126 0.164073
H5    H     H_    0.265751 0.840833 0.707753 0.177158
H6    H     H_    0.383249 0.732983 0.645152 0.168588
H7    H     H_    0.405300 0.291025 0.503642 0.173946
H8    H     H_    0.338331 0.229227 0.711133 0.164084
H9    H     H_    0.166762 0.732698 0.711895 0.148984
H10   H     H_    0.276658 0.629943 0.654753 0.139903
H11   H     H_    0.302521 0.396431 0.513995 0.142337
H12   H     H_    0.908349 0.208308 0.471673 0.162087
H13   H     H_    0.233600 0.332396 0.714979 0.137369
H14   H     H_    0.666745 0.232705 0.711889 0.148975
H15   H     H_    0.776650 0.129952 0.654767 0.139915
H16   H     H_    0.802524 0.896434 0.513979 0.142349
H17   H     H_    0.733616 0.832408 0.714967 0.137350
H18   H     H_    0.976009 0.362923 0.118842 0.162489
H19   H     H_    0.977546 0.362590 0.878622 0.152946
H20   H     H_    0.045689 0.631016 0.882042 0.146065
H21   H     H_    0.047548 0.630513 0.121336 0.140322
H22   H     H_    0.476372 0.862866 0.118825 0.162359
H23   H     H_    0.873270 0.761269 0.333769 0.174468
H24   H     H_    0.477996 0.862523 0.878599 0.153019
H25   H     H_    0.545260 0.131160 0.882055 0.146051
H26   H     H_    0.547205 0.130636 0.121367 0.140319
H27   H     H_    0.090825 0.393927 0.121603 0.153426
H28   H     H_    0.092023 0.395355 0.884364 0.156173
H29   H     H_    0.131595 0.550395 0.883136 0.135805
H30   H     H_    0.132245 0.548614 0.122336 0.148776
H31   H     H_    0.591108 0.894161 0.121633 0.153500
H32   H     H_    0.592365 0.895643 0.884402 0.156041
H33   H     H_    0.631432 0.050808 0.883109 0.135830
H34   H     H_    0.755947 0.645326 0.702097 0.187554
H35   H     H_    0.632114 0.048946 0.122292 0.148714
H36   H     H_    0.858476 0.476179 0.116278 0.149352
H37   H     H_    0.858729 0.474073 0.876689 0.141022
H38   H     H_    0.887520 0.586780 0.877242 0.144795
H39   H     H_    0.889981 0.588691 0.113828 0.139810
H40   H     H_    0.358532 0.975846 0.116327 0.149546
H41   H     H_    0.358818 0.973625 0.876738 0.141033
H42   H     H_    0.387223 0.086424 0.877186 0.144798
H43   H     H_    0.389767 0.088427 0.113767 0.139772
H44   H     H_    0.057131 0.836100 0.668264 0.176845
H45   H     H_    0.203201 0.899505 0.582755 0.163570
H46   H     H_    0.067678 0.832832 0.496136 0.179515
H47   H     H_    0.365214 0.549189 0.508182 0.171275
H48   H     H_    0.323095 0.594146 0.363361 0.187215
H49   H     H_    0.324838 0.416791 0.280057 0.174917
H50   H     H_    0.253439 0.337765 0.230228 0.180005
H51   H     H_    0.140310 0.236000 0.825731 0.164866
H52   H     H_    0.106220 0.184290 0.681506 0.205919
H53   H     H_    0.557099 0.336059 0.668282 0.176827
H54   H     H_    0.567702 0.332894 0.496154 0.179540
H55   H     H_    0.865227 0.049204 0.508192 0.171281
H56   H     H_    0.408348 0.708311 0.471655 0.162080
H57   H     H_    0.823069 0.094135 0.363371 0.187223
H58   H     H_    0.824833 0.916786 0.280039 0.174920
H59   H     H_    0.753432 0.837760 0.230221 0.179979
H60   H     H_    0.640324 0.736035 0.825750 0.164880
H61   H     H_    0.606232 0.684304 0.681542 0.205904
H62   H     H_    0.664206 0.400220 0.362847 0.159057
H63   H     H_    0.760810 0.434849 0.295496 0.186665
H64   H     H_    0.799866 0.281848 0.142749 0.171320
H65   H     H_    0.857156 0.219776 0.255731 0.153547
H66   H     H_    0.768687 0.575160 0.260689 0.184326
H67   H     H_    0.373274 0.261273 0.333781 0.174473
H68   H     H_    0.774727 0.682304 0.219905 0.168503
H69   H     H_    0.724535 0.530665 0.485475 0.142154
H70   H     H_    0.624021 0.559000 0.419735 0.181225
H71   H     H_    0.164156 0.900181 0.362838 0.159075
H72   H     H_    0.260774 0.934875 0.295639 0.186595
H73   H     H_    0.299855 0.781881 0.142742 0.171329
H74   H     H_    0.357155 0.719801 0.255702 0.153539
H75   H     H_    0.268667 0.075149 0.260692 0.184319
H76   H     H_    0.274751 0.182291 0.219914 0.168518
H77   H     H_    0.224529 0.030669 0.485491 0.142144
H78   H     H_    0.255941 0.145317 0.702092 0.187542
H79   H     H_    0.124020 0.058997 0.419720 0.181229
H80   H     H_    0.125969 0.752667 0.317812 0.163277
H81   H     H_    0.209676 0.677399 0.275563 0.157158
H82   H     H_    0.136492 0.255489 0.306042 0.164737
H83   H     H_    0.084907 0.211354 0.451621 0.139222
H84   H     H_    0.625966 0.252680 0.317827 0.163308
H85   H     H_    0.709662 0.177402 0.275561 0.157138
H86   H     H_    0.636483 0.755484 0.306055 0.164739
H87   H     H_    0.584911 0.711352 0.451647 0.139228
H88   H     H_    0.765748 0.340829 0.707756 0.177168
N1    N     N_3   0.998760 0.500000 0.138610 -0.028939
N2    N     N_3   0.807081 0.075876 0.463666 -0.475999
N3    N     N_3   0.765128 0.885434 0.305403 -0.443038
N4    N     N_3   0.625469 0.745076 0.720755 -0.460606
N5    N     N_3   0.716384 0.382911 0.298602 -0.486860
N6    N     N_3   0.830342 0.281892 0.240913 -0.450973
N7    N     N_3   0.736279 0.634812 0.267989 -0.493738
N8    N     N_3   0.677949 0.581241 0.480565 -0.492778
N9    N     N_3   0.216369 0.882918 0.298629 -0.486857
N10   N     N_3   0.330335 0.781916 0.240902 -0.450897
N11   N     N_3   0.236280 0.134811 0.267987 -0.493738
N12   N     N_3   0.998760 0.500000 0.861390 -0.031867
N13   N     N_3   0.177942 0.081243 0.480560 -0.492783
N14   N     N_3   0.498760 0.000000 0.138610 -0.028937
N15   N     N_3   0.498760 0.000000 0.861390 -0.031871
N16   N     N_3   0.072386 0.795176 0.585558 -0.485401
N17   N     N_3   0.307083 0.575878 0.463640 -0.475994
N18   N     N_3   0.265131 0.385437 0.305414 -0.443016
N19   N     N_3   0.125456 0.245058 0.720739 -0.460616
N20   N     N_3   0.572383 0.295185 0.585525 -0.485414
O1    O     O_R   0.092530 0.407440 0.616040 -0.623004
O2    O     O_R   0.907330 0.407420 0.383960 -0.618472
O3    O     O_R   0.907330 0.592580 0.383960 -0.646881
O4    O     O_R   0.907330 0.592580 0.616040 -0.630918
O5    O     O_R   0.407330 0.907420 0.616040 -0.633751
O6    O     O_R   0.407330 0.907420 0.383960 -0.618449
O7    O     O_R   0.407330 0.092580 0.383960 -0.646862
O8    O     O_R   0.407330 0.092580 0.616040 -0.630918
O9    O     O_R   0.092530 0.407440 0.383960 -0.614984
O10   O     O_R   0.092530 0.592560 0.383960 -0.634019
O11   O     O_R   0.092530 0.592560 0.616040 -0.641223
O12   O     O_R   0.592530 0.907440 0.616040 -0.622996
O13   O     O_R   0.592530 0.907440 0.383960 -0.615000
O14   O     O_R   0.592530 0.092560 0.383960 -0.634019
O15   O     O_R   0.592530 0.092560 0.616040 -0.641233
O16   O     O_R   0.907330 0.407420 0.616040 -0.633749
Zn1   Zn    Zn3+2 0.999890 0.500000 0.654960 0.906512
Zn2   Zn    Zn3+2 0.999890 0.500000 0.345040 0.909485
Zn3   Zn    Zn3+2 0.499890 0.000000 0.654960 0.906506
Zn4   Zn    Zn3+2 0.499890 0.000000 0.345040 0.909494

loop_
_geom_bond_atom_site_label_1
_geom_bond_atom_site_label_2
_ccdc_geom_bond_type
C43   H21   S    
H77   N13   S    
H72   N9    S    
H71   N9    S    
N14   Zn4   S    
C10   H56   S    
C7    H3    S    
C14   C31   S    
C44   H31   S    
C11   H67   S    
C36   H81   S    
H50   N18   S    
C41   H28   S    
C46   H24   S    
C13   H8    S    
C6    C19   S    
C51   N15   S    
C40   H18   S    
O10   Zn2   S    
C47   H33   S    
C5    H1    S    
H66   N7    S    
C10   H6    S    
C15   N17   S    
C10   C15   S    
C36   H80   S    
C50   H43   S    
H53   N20   S    
C6    H12   S    
C22   C38   S    
C24   C39   S    
C25   N9    S    
C48   H26   S    
N12   Zn1   S    
C3    C29   S    
C16   C32   S    
C34   O15   A    
H75   N11   S    
C5    C27   S    
C20   C35   S    
H48   N17   S    
C38   H85   S    
C23   O12   A    
C22   N6    S    
C11   C30   S    
C44   C46   S    
C8    C28   S    
C45   H39   S    
C13   H78   S    
C37   H83   S    
C19   H15   S    
H57   N2    S    
C16   H11   S    
C38   H84   S    
C42   N12   S    
C52   O16   A    
C9    H5    S    
H59   N3    S    
C41   H19   S    
C14   N16   S    
O7    Zn4   S    
C39   H86   S    
C1    O1    A    
C40   N1    S    
C45   N1    S    
C20   N3    S    
C8    H4    S    
H63   N5    S    
C42   H29   S    
C6    H2    S    
C11   H7    S    
N15   Zn3   S    
C8    C21   S    
C12   O11   A    
H46   N16   S    
C25   C29   S    
C39   H87   S    
C40   H27   S    
C16   N18   S    
N1    Zn2   S    
C47   C48   S    
C13   C30   S    
H79   N13   S    
C45   H36   S    
C21   N4    S    
C24   N8    S    
C2    O4    A    
C41   N12   S    
C12   O10   A    
C5    C18   S    
C51   H42   S    
O13   Zn4   S    
C14   H9    S    
C1    C32   S    
C7    C28   S    
C4    O8    A    
C21   H17   S    
C25   N10   S    
C35   C39   S    
C9    C14   S    
C34   O14   A    
C11   C16   S    
H76   N11   S    
C6    C27   S    
C22   N5    S    
C45   C49   S    
O3    Zn2   S    
C42   H20   S    
C50   C51   S    
C48   H35   S    
C32   C37   S    
H55   N2    S    
C44   H22   S    
C51   H41   S    
C46   H32   S    
O12   Zn3   S    
C50   H40   S    
C40   C41   S    
H49   N18   S    
C26   C30   S    
C19   N2    S    
H70   N8    S    
C22   C27   S    
H47   N17   S    
C12   C31   S    
C19   C33   S    
O5    Zn3   S    
C43   N1    S    
O6    Zn4   S    
C42   C43   S    
C47   H25   S    
H52   N19   S    
O1    Zn1   S    
O14   Zn4   S    
O9    Zn2   S    
C27   C52   S    
C3    O5    A    
C5    H88   S    
C43   H30   S    
C48   N14   S    
C26   N11   S    
C9    H45   S    
C49   N12   S    
H69   N8    S    
C31   C36   S    
C17   H13   S    
C20   H16   S    
O11   Zn1   S    
C24   C28   S    
H62   N5    S    
C49   H37   S    
C24   N7    S    
C2    O3    A    
C7    H23   S    
C4    O7    A    
C26   C37   S    
C15   C31   S    
C23   O13   A    
C9    C29   S    
C18   H14   S    
O8    Zn3   S    
O15   Zn3   S    
C23   C35   S    
C33   C38   S    
H61   N4    S    
C13   C17   S    
C44   N14   S    
H60   N4    S    
O16   Zn1   S    
C21   C35   S    
H64   N6    S    
H74   N10   S    
C10   C29   S    
H51   N19   S    
H44   N16   S    
C47   N15   S    
C50   N14   S    
H54   N20   S    
C1    O9    A    
C15   H10   S    
C33   C34   S    
C8    H34   S    
H58   N3    S    
C17   N19   S    
C18   C33   S    
O2    Zn2   S    
C18   N20   S    
H73   N10   S    
C25   C36   S    
C46   N15   S    
H68   N7    S    
C7    C20   S    
C17   C32   S    
C37   H82   S    
H65   N6    S    
C26   N13   S    
C2    C28   S    
C49   H38   S    
C4    C30   S    
O4    Zn1   S    
C3    O6    A    
C52   O2    A    
