data_mof_unit_8276.cif
_audit_creation_date              2013-03-05T16:47:35-0500
_audit_creation_method            fapswitch 2.2
_symmetry_space_group_name_H-M    P1
_symmetry_Int_Tables_number       1
_space_group_crystal_system       triclinic
_cell_length_a                    18.133328
_cell_length_b                    18.189744
_cell_length_c                    18.327796
_cell_angle_alpha                 119.994511
_cell_angle_beta                  89.827471
_cell_angle_gamma                 119.994487
_cell_volume                      4281.73796257

loop_
_atom_site_label
_atom_site_type_symbol
_atom_site_description
_atom_site_fract_x
_atom_site_fract_y
_atom_site_fract_z
_atom_type_partial_charge
Zn1   Zn    Zn3+2 0.207400 0.586780 0.791530 1.014103
Zn2   Zn    Zn3+2 0.792600 0.413220 0.208470 1.014101
Zn3   Zn    Zn3+2 0.208510 0.413230 0.792630 0.983913
Zn4   Zn    Zn3+2 0.791490 0.586770 0.207370 0.983916
Zn5   Zn    Zn3+2 0.383150 0.586740 0.791530 0.991718
Zn6   Zn    Zn3+2 0.616850 0.413260 0.208470 0.991720
Zn7   Zn    Zn3+2 0.207400 0.413250 0.618010 1.030989
Zn8   Zn    Zn3+2 0.792600 0.586750 0.381990 1.030991
O1    O     O_3   0.251620 0.500000 0.748430 -0.502857
O2    O     O_3   0.748380 0.500000 0.251570 -0.502858
O3    O     O_R   0.134680 0.268390 0.572240 -0.648703
O4    O     O_R   0.865320 0.731610 0.427760 -0.648703
O5    O     O_R   0.306670 0.731630 0.863510 -0.616109
O6    O     O_R   0.693330 0.268370 0.136490 -0.616111
O7    O     O_R   0.135450 0.439270 0.865360 -0.644930
O8    O     O_R   0.864550 0.560730 0.134640 -0.644929
O9    O     O_R   0.429670 0.560710 0.692610 -0.643828
O10   O     O_R   0.570330 0.439290 0.307390 -0.643821
O11   O     O_R   0.308540 0.439240 0.865360 -0.642372
O12   O     O_R   0.691460 0.560760 0.134640 -0.642370
O13   O     O_R   0.133580 0.439310 0.571150 -0.613795
O14   O     O_R   0.866420 0.560690 0.428850 -0.613795
O15   O     O_R   0.430770 0.560690 0.864590 -0.647835
O16   O     O_R   0.569230 0.439310 0.135410 -0.647834
O17   O     O_R   0.133580 0.560760 0.692610 -0.634370
O18   O     O_R   0.866420 0.439240 0.307390 -0.634368
O19   O     O_R   0.134680 0.560740 0.864590 -0.642205
O20   O     O_R   0.865320 0.439260 0.135410 -0.642204
O21   O     O_R   0.306670 0.439270 0.571150 -0.622948
O22   O     O_R   0.693330 0.560730 0.428850 -0.622950
O23   O     O_R   0.135450 0.268370 0.694460 -0.639222
O24   O     O_R   0.864550 0.731630 0.305540 -0.639219
O25   O     O_R   0.429670 0.731610 0.863510 -0.640286
O26   O     O_R   0.570330 0.268390 0.136490 -0.640288
C1    C     C_R   0.110943 0.220044 0.609860 0.821771
C2    C     C_R   0.889059 0.779956 0.390140 0.821773
C3    C     C_R   0.392844 0.781065 0.888204 0.856003
C4    C     C_R   0.607156 0.218935 0.111796 0.855999
C5    C     C_R   0.111606 0.501498 0.890395 0.796199
C6    C     C_R   0.888394 0.498502 0.109605 0.796194
C7    C     C_R   0.392342 0.500062 0.607748 0.814896
C8    C     C_R   0.607658 0.499937 0.392252 0.814904
C9    C     C_R   0.394003 0.499767 0.888375 0.820814
C10   C     C_R   0.605997 0.500229 0.111620 0.820819
C11   C     C_R   0.109393 0.500582 0.607913 0.900888
C12   C     C_R   0.890608 0.499418 0.392087 0.900882
C13   C     C_3   0.077170 0.528971 0.484807 0.373047
C14   C     C_3   0.922830 0.471028 0.515193 0.373046
C15   C     C_3   0.040732 0.596228 0.518945 -0.265217
C16   C     C_3   0.959267 0.403772 0.481054 -0.265217
H1    H     H_    0.074608 0.674643 0.533199 0.195021
H2    H     H_    0.925391 0.325357 0.466801 0.195023
C17   C     C_3   0.947795 0.498799 0.448526 -0.119031
C18   C     C_3   0.052205 0.501200 0.551473 -0.119035
C19   C     C_3   0.985390 0.432209 0.413220 -0.230390
C20   C     C_3   0.014609 0.567790 0.586780 -0.230393
H3    H     H_    0.974620 0.377954 0.342126 0.190071
H4    H     H_    0.025380 0.622045 0.657873 0.190066
C21   C     C_3   0.442086 0.966533 0.928627 0.465885
C22   C     C_3   0.557914 0.033467 0.071373 0.465904
C23   C     C_3   0.545654 0.038058 0.955533 -0.281220
C24   C     C_3   0.454345 0.961942 0.044467 -0.281193
H5    H     H_    0.582407 0.069772 0.918782 0.169346
H6    H     H_    0.417593 0.930228 0.081218 0.169348
C25   C     C_3   0.549636 0.102827 0.052665 -0.090381
C26   C     C_3   0.450363 0.897173 0.947335 -0.090373
C27   C     C_3   0.446000 0.032283 0.025549 -0.243381
C28   C     C_3   0.554000 0.967717 0.974451 -0.243376
H7    H     H_    0.401541 0.058958 0.045941 0.190224
H8    H     H_    0.598459 0.941042 0.954059 0.190181
C29   C     C_3   0.413063 0.433069 0.448261 -0.099989
C30   C     C_3   0.586936 0.566928 0.551738 -0.099972
C31   C     C_3   0.480332 0.404032 0.446116 -0.133113
C32   C     C_3   0.519667 0.595966 0.553882 -0.133101
H9    H     H_    0.465192 0.325388 0.400783 0.171194
H10   H     H_    0.534808 0.674610 0.599216 0.171192
H11   H     H_    0.340744 0.378434 0.406964 0.203893
H12   H     H_    0.659256 0.621561 0.593031 0.203918
C33   C     C_3   0.550797 0.500017 0.449362 0.007648
C34   C     C_3   0.449202 0.499980 0.550637 0.007660
C35   C     C_3   0.484461 0.529094 0.450679 -0.184978
C36   C     C_3   0.515538 0.470904 0.549319 -0.184991
H13   H     H_    0.472704 0.552712 0.409044 0.154687
H14   H     H_    0.527295 0.447285 0.590953 0.154673
C37   C     C_R   0.160442 0.173852 0.828446 -0.231635
C38   C     C_R   0.839582 0.826147 0.171549 -0.231626
H15   H     H_    0.223457 0.195952 0.863728 0.180690
H16   H     H_    0.776569 0.804046 0.136263 0.180664
C39   C     C_R   0.136137 0.126918 0.736344 0.389426
C40   C     C_R   0.863883 0.873085 0.263651 0.389426
C41   C     C_R   0.054166 0.098414 0.690407 0.049938
C42   C     C_R   0.945850 0.901586 0.309593 0.049935
C43   C     C_R   0.997201 0.116425 0.737605 -0.248932
C44   C     C_R   0.002817 0.883570 0.262399 -0.248926
H17   H     H_    0.933966 0.094812 0.703173 0.175149
H18   H     H_    0.066048 0.905180 0.296836 0.175150
C45   C     C_R   0.022085 0.163548 0.829621 -0.157461
C46   C     C_R   0.977936 0.836444 0.170383 -0.157480
H19   H     H_    0.977899 0.177594 0.865471 0.176240
H20   H     H_    0.022123 0.822394 0.134537 0.176234
C47   C     C_R   0.103839 0.192653 0.875144 0.419101
C48   C     C_R   0.896185 0.807341 0.124855 0.419107
C49   C     C_R   0.972981 0.943621 0.537123 -0.200621
C50   C     C_R   0.027027 0.056379 0.462877 -0.200611
H21   H     H_    0.952591 0.900492 0.566607 0.186336
H22   H     H_    0.047417 0.099508 0.433394 0.186337
C51   C     C_R   0.945366 0.892304 0.444589 -0.045583
C52   C     C_R   0.054640 0.107696 0.555411 -0.045580
C53   C     C_R   0.972567 0.949403 0.406769 0.066617
C54   C     C_R   0.027443 0.050597 0.593231 0.066617
C55   C     C_R   0.652168 0.650241 0.825380 -0.157845
C56   C     C_R   0.347771 0.349723 0.174568 -0.157816
H23   H     H_    0.659080 0.615667 0.759989 0.169512
H24   H     H_    0.340799 0.384283 0.239931 0.169545
C57   C     C_R   0.606893 0.587249 0.854876 -0.138060
C58   C     C_R   0.393031 0.412707 0.145061 -0.138109
H25   H     H_    0.579405 0.505399 0.811981 0.147197
H26   H     H_    0.420449 0.494538 0.187921 0.147244
C59   C     C_R   0.595842 0.629427 0.938753 0.150674
C60   C     C_R   0.404159 0.370547 0.061221 0.150625
C61   C     C_R   0.631611 0.735416 0.993431 -0.181034
C62   C     C_R   0.368480 0.264583 0.006589 -0.180919
H27   H     H_    0.623416 0.768852 0.058353 0.170245
H28   H     H_    0.376733 0.231162 0.941694 0.170232
C63   C     C_R   0.676948 0.798498 0.964078 -0.175430
C64   C     C_R   0.323162 0.201510 0.035954 -0.175468
H29   H     H_    0.703364 0.879972 0.007317 0.183705
H30   H     H_    0.296818 0.120056 0.992753 0.183683
C65   C     C_R   0.687486 0.756545 0.879576 0.401639
C66   C     C_R   0.312549 0.243446 0.120421 0.401639
C67   C     C_R   0.593745 0.560772 0.024402 -0.214509
C68   C     C_R   0.406255 0.439207 0.975578 -0.214501
H31   H     H_    0.666595 0.607453 0.042364 0.195276
H32   H     H_    0.333405 0.392528 0.957617 0.195275
C69   C     C_R   0.550132 0.499383 0.055677 -0.054111
C70   C     C_R   0.449867 0.500599 0.944305 -0.054111
C71   C     C_R   0.455172 0.437769 0.031234 -0.007953
C72   C     C_R   0.544827 0.562207 0.968742 -0.007939
H33   H     H_    0.166953 0.883370 0.937910 0.174084
H34   H     H_    0.833067 0.116638 0.062100 0.174089
C73   C     C_R   0.195260 0.830087 0.008591 -0.078406
C74   C     C_R   0.804746 0.169923 0.991428 -0.078455
H35   H     H_    0.264220 0.897615 0.045770 0.147606
H36   H     H_    0.735784 0.102399 0.954260 0.147553
C75   C     C_R   0.161208 0.750779 0.021169 -0.149634
C76   C     C_R   0.838793 0.249228 0.978847 -0.149570
H37   H     H_    0.204470 0.757295 0.067909 0.128872
H38   H     H_    0.795524 0.242716 0.932116 0.128857
C77   C     C_R   0.071713 0.662954 0.972808 0.114440
C78   C     C_R   0.928291 0.337048 0.027195 0.114439
C79   C     C_R   0.016396 0.656203 0.913025 -0.091518
C80   C     C_R   0.983617 0.343795 0.086966 -0.091580
H39   H     H_    0.947090 0.589182 0.875675 0.164999
H40   H     H_    0.052926 0.410810 0.124305 0.165003
C81   C     C_R   0.050839 0.735520 0.900445 -0.090403
C82   C     C_R   0.949180 0.264480 0.099548 -0.090390
H41   H     H_    0.008236 0.729683 0.853757 0.169279
H42   H     H_    0.991791 0.270314 0.146227 0.169294
C83   C     C_R   0.140292 0.822216 0.947955 -0.024712
C84   C     C_R   0.859724 0.177790 0.052052 -0.024706
C85   C     C_R   0.979310 0.572714 0.035853 -0.231183
C86   C     C_R   0.020689 0.427285 0.964146 -0.231194
H43   H     H_    0.964347 0.630184 0.064203 0.182148
H44   H     H_    0.035652 0.369815 0.935795 0.182143
C87   C     C_R   0.943913 0.496294 0.052146 -0.052090
C88   C     C_R   0.056086 0.503705 0.947853 -0.052089
C89   C     C_R   0.964378 0.421978 0.015244 -0.002913
C90   C     C_R   0.035621 0.578021 0.984756 -0.002916
Cl1   Cl    Cl    0.135560 0.252890 0.990784 -0.627858
Cl2   Cl    Cl    0.864469 0.747098 0.009214 -0.627849
Cl3   Cl    Cl    0.210063 0.106236 0.680521 -0.607706
Cl4   Cl    Cl    0.789957 0.893773 0.319469 -0.607708
N1    N     N_R   0.733456 0.821296 0.848995 0.212345
O27   O     O_R   0.744809 0.783121 0.771586 -0.403298
O28   O     O_R   0.764331 0.919074 0.898191 -0.419689
N2    N     N_R   0.266600 0.178705 0.151017 0.212343
O29   O     O_R   0.255105 0.216842 0.228357 -0.403214
O30   O     O_R   0.235895 0.080980 0.101907 -0.419816
N3    N     N_R   0.162308 0.561818 0.466655 0.218712
O31   O     O_R   0.173283 0.580689 0.406310 -0.376894
O32   O     O_R   0.228177 0.574645 0.511440 -0.380514
N4    N     N_R   0.837689 0.438184 0.533341 0.218717
O33   O     O_R   0.826712 0.419298 0.593683 -0.376876
O34   O     O_R   0.771828 0.425362 0.488566 -0.380521
Cl5   Cl    Cl    0.364103 0.921825 0.833056 -0.589399
Cl6   Cl    Cl    0.635897 0.078175 0.166944 -0.589380

loop_
_geom_bond_atom_site_label_1
_geom_bond_atom_site_label_2
_geom_bond_distance
_ccdc_geom_bond_type
C48   Cl2   1.754623 S    
C26   C28   1.543436 S    
Zn4   O8    1.934384 S    
Zn7   O21   1.935776 S    
C43   C45   1.398209 A    
C81   H41   1.082324 S    
C51   C53   1.417036 A    
C74   C76   1.398747 A    
C22   Cl6   1.780468 S    
C30   C36   1.546259 S    
C29   H11   1.109553 S    
C55   C65   1.407498 A    
Zn6   O26   1.924667 S    
C7    C34   1.467033 S    
C50   H22   1.084794 S    
Zn3   O7    1.934386 S    
C13   C15   1.537894 S    
N1    O27   1.301367 A    
Zn7   O3    1.925671 S    
Zn5   O1    1.950561 S    
C16   C18   1.544868 S    
C32   H10   1.110137 S    
C24   C27   1.554892 S    
C49   C54   1.379593 A    
O24   C2    1.274824 A    
C41   C54   1.482679 S    
O4    C2    1.288413 A    
C30   C33   1.535583 S    
C67   C69   1.398286 A    
C77   C79   1.403842 A    
C21   C26   1.534275 S    
C50   C53   1.379590 A    
C38   H16   1.082000 S    
C42   C53   1.482674 S    
C56   C58   1.398307 A    
Zn5   O9    1.937671 S    
C44   C46   1.398210 A    
C76   H38   1.082996 S    
O15   C9    1.266939 A    
C22   C24   1.544029 S    
C15   H1    1.110147 S    
C23   H5    1.109955 S    
N4    O33   1.300349 A    
C30   H12   1.109550 S    
C1    C52   1.447583 S    
C35   H13   1.110229 S    
C86   C88   1.398297 A    
C40   C42   1.409837 A    
O3    C1    1.288414 A    
C73   C83   1.397857 A    
C80   C82   1.398415 A    
C60   C62   1.401341 A    
C57   H25   1.083166 S    
Zn5   O25   1.924665 S    
C16   H2    1.110143 S    
Zn3   O11   1.953664 S    
C79   C81   1.398414 A    
Zn8   O4    1.925670 S    
C39   C41   1.409837 A    
C40   Cl4   1.759654 S    
O13   C11   1.274622 A    
C73   C75   1.398746 A    
Zn3   O23   1.928572 S    
C21   C27   1.543570 S    
C10   C69   1.432681 S    
N2    O30   1.301439 A    
H33   C83   1.082370 S    
C8    C33   1.467029 S    
C87   C89   1.417180 A    
C76   C78   1.404325 A    
N3    O32   1.300242 A    
C2    C51   1.447585 S    
C88   C90   1.417180 A    
C31   H9    1.110137 S    
C65   N1    1.439398 S    
C77   C90   1.479674 S    
C56   H24   1.082523 S    
C29   C34   1.535587 S    
C85   H43   1.084458 S    
O11   C9    1.274915 A    
C86   H44   1.084462 S    
C17   C19   1.545940 S    
C14   C17   1.529120 S    
Zn6   O10   1.937668 S    
C18   C20   1.545932 S    
C21   C23   1.544029 S    
O9    C7    1.280017 A    
C75   H37   1.082999 S    
C37   H15   1.082008 S    
C81   C83   1.397939 A    
C82   C84   1.397936 A    
Zn1   O1    1.942587 S    
C39   Cl3   1.759653 S    
C30   C32   1.546489 S    
C58   H26   1.083151 S    
C45   H19   1.082884 S    
O19   C5    1.271830 A    
C33   C35   1.533119 S    
C69   C71   1.412436 A    
C24   C26   1.543083 S    
C25   C27   1.543436 S    
C68   C71   1.372360 A    
Zn7   O13   1.950015 S    
O25   C3    1.285204 A    
C58   C60   1.401647 A    
C27   H7    1.110423 S    
C73   H35   1.081351 S    
C62   C64   1.397587 A    
C44   H18   1.083157 S    
O20   C6    1.271828 A    
C61   C63   1.397586 A    
Zn3   O1    1.949206 S    
C63   H29   1.082618 S    
C63   C65   1.407043 A    
C41   C43   1.404374 A    
C45   C47   1.398302 A    
Zn8   O14   1.950014 S    
Zn5   O15   1.952850 S    
C4    C25   1.496229 S    
C68   C70   1.398289 A    
Zn6   O16   1.952850 S    
C3    C26   1.496230 S    
C42   C44   1.404375 A    
C31   C33   1.533187 S    
C55   H23   1.082524 S    
C47   Cl1   1.754623 S    
C14   C16   1.537874 S    
N1    O28   1.301446 A    
O7    C5    1.283567 A    
C6    C87   1.454613 S    
Zn4   O24   1.928572 S    
C59   C61   1.401343 A    
C13   N3    1.457556 S    
O8    C6    1.283568 A    
C13   C18   1.529094 S    
C68   H32   1.084470 S    
N2    O29   1.301372 A    
O14   C12   1.274628 A    
C80   H40   1.083123 S    
C22   C25   1.534275 S    
O12   C10   1.274917 A    
C36   H14   1.110231 S    
C19   H3    1.110402 S    
C38   C40   1.399972 A    
O16   C10   1.266943 A    
C49   H21   1.084794 S    
C78   C80   1.403834 A    
Zn1   O5    1.928658 S    
C32   C35   1.547683 S    
Zn4   O2    1.949203 S    
O6    C4    1.283606 A    
Zn2   O2    1.942590 S    
O17   C11   1.274916 A    
C31   C36   1.547682 S    
C50   C52   1.397587 A    
C74   H36   1.081343 S    
C37   C47   1.398554 A    
C64   H30   1.082606 S    
C70   C72   1.412435 A    
C13   C19   1.537721 S    
C14   C20   1.537720 S    
C37   C39   1.399975 A    
O21   C7    1.277971 A    
O26   C4    1.285204 A    
C59   C72   1.480137 S    
O5    C3    1.283606 A    
Zn8   O2    1.954939 S    
C74   C84   1.397853 A    
C67   H31   1.084472 S    
Zn2   O18   1.956018 S    
C11   C18   1.474884 S    
Zn2   O20   1.937839 S    
Zn1   O17   1.956020 S    
N3    O31   1.300227 A    
C15   C20   1.559525 S    
C57   C59   1.401654 A    
C16   C19   1.559527 S    
C49   C51   1.397588 A    
C66   N2    1.439397 S    
C5    C88   1.454613 S    
O10   C8    1.280016 A    
C24   H6    1.109954 S    
Zn8   O22   1.935777 S    
C67   C72   1.372373 A    
C46   C48   1.398299 A    
H34   C84   1.082371 S    
C14   N4    1.457564 S    
C23   C28   1.554892 S    
C52   C54   1.417037 A    
C15   C17   1.544867 S    
C78   C89   1.479678 S    
C12   C17   1.474862 S    
C82   H42   1.082324 S    
C34   C36   1.533117 S    
C20   H4    1.110401 S    
C21   Cl5   1.780468 S    
O23   C1    1.274824 A    
C79   H39   1.083128 S    
C23   C25   1.543083 S    
C9    C70   1.432682 S    
Zn2   O6    1.928658 S    
C46   H20   1.082886 S    
N4    O34   1.300072 A    
C61   H27   1.083310 S    
C85   C90   1.383871 A    
Zn6   O2    1.950559 S    
O18   C12   1.274916 A    
C86   C89   1.383874 A    
Zn4   O12   1.953665 S    
Zn7   O1    1.954939 S    
C75   C77   1.404326 A    
C22   C28   1.543570 S    
C43   H17   1.083157 S    
C32   C34   1.533189 S    
C29   C31   1.546488 S    
Zn1   O19   1.937837 S    
C28   H8    1.110424 S    
C64   C66   1.407049 A    
O22   C8    1.277975 A    
C55   C57   1.398310 A    
C60   C71   1.480133 S    
C56   C66   1.407492 A    
C62   H28   1.083300 S    
C85   C87   1.398301 A    
C29   C35   1.546261 S    
C38   C48   1.398551 A    
