data_mof_unit_55762.cif
_audit_creation_date              2013-03-05T15:44:34-0500
_audit_creation_method            fapswitch 2.2
_symmetry_space_group_name_H-M    P1
_symmetry_Int_Tables_number       1
_space_group_crystal_system       triclinic
_cell_length_a                    27.776103
_cell_length_b                    10.930568
_cell_length_c                    9.716233
_cell_angle_alpha                 90.485883
_cell_angle_beta                  90.47364
_cell_angle_gamma                 90.168886
_cell_volume                      2949.71143589

loop_
_atom_site_label
_atom_site_type_symbol
_atom_site_description
_atom_site_fract_x
_atom_site_fract_y
_atom_site_fract_z
_atom_type_partial_charge
O1    O     O_R   0.500010 0.321960 0.617040 -0.538989
O2    O     O_R   0.499990 0.321920 0.382900 -0.549814
C1    C     C_R   0.499107 0.265803 0.499164 0.850651
O3    O     O_R   0.430270 0.500040 0.617060 -0.614888
O4    O     O_R   0.430260 0.500000 0.382910 -0.575775
C2    C     C_R   0.407536 0.501954 0.499551 0.848453
Cu1   Cu    Cu3+1 0.500010 0.500020 0.638630 1.131013
Cu2   Cu    Cu3+1 0.499990 0.499980 0.361370 1.133929
O5    O     O_R   0.500010 0.678080 0.617100 -0.556803
O6    O     O_R   0.499990 0.678040 0.382960 -0.525046
O7    O     O_R   0.569740 0.500000 0.617090 -0.505120
O8    O     O_R   0.569730 0.499960 0.382940 -0.542342
C3    C     C_R   0.502378 0.734422 0.500355 0.888188
C4    C     C_R   0.592556 0.496561 0.500781 0.863537
C5    C     C_R   0.178129 0.382794 0.486236 0.636530
O9    O     O_2   0.203753 0.286661 0.439793 -0.424852
N1    N     N_R   0.201929 0.489275 0.517673 -0.458887
C6    C     C_R   0.177919 0.591596 0.559389 0.628668
C7    C     C_R   0.276424 0.559008 0.404407 0.398054
C8    C     C_R   0.326991 0.564961 0.400708 0.291297
C9    C     C_R   0.331009 0.435674 0.603227 -0.233564
C10   C     C_R   0.281025 0.431906 0.607917 -0.125439
C11   C     C_R   0.253523 0.493045 0.509130 0.184641
C12   C     C_R   0.101969 0.483016 0.532698 -0.093314
C13   C     C_R   0.127359 0.375073 0.498646 -0.133725
C14   C     C_R   0.101411 0.263649 0.483378 0.366119
C15   C     C_R   0.127620 0.591350 0.564896 -0.023056
C16   C     C_R   0.354525 0.501201 0.499856 -0.169791
H1    H     H_    0.351423 0.386463 0.680368 0.197213
H2    H     H_    0.263478 0.381334 0.688803 0.190050
C17   C     C_R   0.645758 0.491308 0.502469 -0.122467
C18   C     C_R   0.974762 0.387769 0.469408 0.082732
C19   C     C_R   0.974979 0.589120 0.582247 0.030818
C20   C     C_R   0.949495 0.490224 0.522078 0.089537
C21   C     C_R   0.949252 0.302916 0.386392 -0.156375
C22   C     C_R   0.899518 0.308711 0.372856 -0.116391
C23   C     C_R   0.873656 0.401514 0.438823 -0.023678
C24   C     C_R   0.898504 0.494173 0.512606 -0.047883
C25   C     C_R   0.872490 0.590473 0.575877 -0.091509
C26   C     C_R   0.821705 0.590754 0.560703 0.570116
N2    N     N_R   0.798596 0.495898 0.495247 -0.455007
C27   C     C_R   0.823332 0.403926 0.432034 0.634309
C28   C     C_R   0.720773 0.532644 0.384943 -0.072921
C29   C     C_R   0.670758 0.533857 0.387329 -0.204104
C30   C     C_R   0.672029 0.444336 0.616213 0.325515
C31   C     C_R   0.722908 0.446519 0.615313 -0.080715
C32   C     C_R   0.746975 0.490336 0.498054 0.220378
O10   O     O_2   0.799117 0.314075 0.364759 -0.491066
C33   C     C_R   0.025137 0.377002 0.494782 -0.074639
C34   C     C_R   0.050965 0.483504 0.534404 0.074445
C35   C     C_R   0.025982 0.591067 0.575311 0.066269
C36   C     C_R   0.050471 0.264009 0.484936 -0.117451
H3    H     H_    0.651548 0.569493 0.298926 0.215191
H4    H     H_    0.739405 0.566761 0.295559 0.182857
H5    H     H_    0.881406 0.239728 0.310495 0.197310
H6    H     H_    0.967517 0.233171 0.327436 0.162033
O11   O     O_2   0.202802 0.693596 0.594634 -0.466204
C37   C     C_R   0.102697 0.697687 0.600850 -0.074236
H7    H     H_    0.121665 0.782253 0.623990 0.218414
C38   C     C_R   0.948720 0.682510 0.648142 -0.233875
C39   C     C_R   0.898397 0.682343 0.649937 -0.011956
O12   O     O_2   0.795318 0.685183 0.608077 -0.480540
C40   C     C_R   0.052834 0.697801 0.605925 -0.169261
H8    H     H_    0.966882 0.753096 0.707386 0.161670
H9    H     H_    0.036097 0.784459 0.628983 0.166760
C41   C     C_2   0.513566 0.936124 0.391800 0.434560
C42   C     C_2   0.511824 0.864837 0.503693 -0.372619
H10   H     H_    0.518864 0.905263 0.604666 0.157186
C43   C     C_2   0.523245 0.066428 0.412995 -0.173165
C44   C     C_2   0.493365 0.134342 0.493550 -0.247338
C45   C     C_2   0.461733 0.485425 0.922953 0.114182
N3    N     N_2   0.499480 0.498660 0.846910 0.028926
H11   H     H_    0.428380 0.453773 0.876017 0.093791
C46   C     C_2   0.461850 0.512970 0.075103 0.126592
N4    N     N_2   0.499460 0.498630 0.153040 0.016751
H12   H     H_    0.428824 0.545809 0.120258 0.147544
Cl1   Cl    Cl    0.241465 0.633005 0.277530 -0.435441
Cl2   Cl    Cl    0.642148 0.370986 0.753676 -0.422523
C47   C     C_2   0.875391 0.777197 0.736847 0.940504
O13   O     O_2   0.846935 0.747705 0.826145 -0.521403
O14   O     O_R   0.888563 0.899868 0.721729 -0.751408
H13   H     H_    0.871178 0.956007 0.788289 0.355679
C48   C     C_2   0.751197 0.403768 0.736224 0.948839
O15   O     O_2   0.739396 0.434054 0.852594 -0.499371
O16   O     O_R   0.791751 0.330297 0.717138 -0.745144
H14   H     H_    0.808236 0.308488 0.807092 0.347843
Cl3   Cl    Cl    0.501571 0.885558 0.221289 -0.400118
C49   C     C_2   0.568828 0.114913 0.352495 0.948996
O17   O     O_2   0.589676 0.202665 0.404723 -0.578726
O18   O     O_R   0.589144 0.055790 0.238854 -0.668258
H15   H     H_    0.620164 0.095886 0.208077 0.368411
C50   C     C_2   0.448210 0.085970 0.555804 0.836972
O19   O     O_2   0.434468 0.127118 0.666107 -0.548969
O20   O     O_R   0.420321 0.998068 0.486100 -0.699680
H16   H     H_    0.390475 0.973984 0.538916 0.366295
Cl4   Cl    Cl    0.541658 0.607314 0.902115 -0.331082
Cl5   Cl    Cl    0.540518 0.387531 0.100543 -0.344513
Cl6   Cl    Cl    0.131702 0.120549 0.480425 -0.432784
C51   C     C_2   0.024460 0.145539 0.499659 0.889141
O21   O     O_2   0.032045 0.060723 0.419874 -0.533207
O22   O     O_R   0.990447 0.132480 0.603887 -0.731287
H17   H     H_    0.974787 0.048552 0.603146 0.355814
Cl7   Cl    Cl    0.354822 0.659631 0.277978 -0.486006

loop_
_geom_bond_atom_site_label_1
_geom_bond_atom_site_label_2
_geom_bond_distance
_ccdc_geom_bond_type
C40   H9    1.079013 S    
O22   H17   1.014066 S    
N2    C27   1.364003 A    
C7    C8    1.406631 A    
C12   C15   1.411650 A    
C4    C17   1.479000 S    
O14   H13   1.013976 S    
Cu1   Cu2   2.693915 S    
C8    Cl7   1.766875 S    
O16   H14   1.013879 S    
Cu1   O7    1.949819 S    
N1    C11   1.436646 S    
C46   H12   1.081082 S    
C22   C23   1.398832 A    
C24   C25   1.417360 A    
O7    C4    1.300538 A    
C5    C13   1.418649 A    
C41   C43   1.461220 S    
C5    O9    1.347594 S    
N4    Cl5   1.744340 S    
C26   O12   1.347745 S    
C5    N1    1.367879 A    
C23   C27   1.399135 A    
C7    Cl1   1.765946 S    
O5    C3    1.297356 A    
C28   H4    1.083019 S    
C29   H3    1.083301 S    
C2    C16   1.472463 S    
C48   O15   1.223063 D    
C30   Cl2   1.774294 S    
C41   C42   1.344050 D    
O1    Cu1   1.955800 S    
C9    C10   1.389991 A    
C43   C44   1.362710 D    
O3    Cu1   1.946690 S    
C34   C35   1.422420 A    
C12   C34   1.416963 A    
C25   C39   1.420893 A    
O2    Cu2   1.959271 S    
C46   N4    1.295843 D    
C42   H10   1.088556 S    
C18   C21   1.409584 A    
C1    C44   1.445824 S    
C35   C40   1.411103 A    
C12   C13   1.414606 A    
N3    Cl4   1.743948 S    
O3    C2    1.300511 A    
C17   C29   1.403502 A    
Cu1   N3    2.024052 S    
C47   O14   1.398098 S    
C8    C16   1.414576 A    
C13   C14   1.419452 A    
C30   C31   1.413474 A    
C9    H1    1.083632 S    
O6    C3    1.293003 A    
Cu2   N4    2.024043 S    
C47   O13   1.223123 D    
C38   C39   1.398023 A    
O1    C1    1.294855 A    
C21   C22   1.388249 A    
C18   C20   1.417558 A    
C7    C11   1.407208 A    
C28   C29   1.389707 A    
C23   C24   1.411200 A    
C14   C36   1.415135 A    
O4    Cu2   1.949822 S    
C6    O11   1.350217 S    
C51   O21   1.223307 D    
Cu2   O8    1.946685 S    
C33   C36   1.426160 A    
C50   O20   1.399221 S    
N1    C6    1.364227 A    
N2    C32   1.435453 S    
C27   O10   1.349882 S    
C43   C49   1.497706 S    
C14   Cl6   1.778409 S    
C26   N2    1.367351 A    
C51   O22   1.398570 S    
C9    C16   1.403110 A    
C49   O18   1.398427 S    
C19   C38   1.408892 A    
C41   Cl3   1.770732 S    
C45   H11   1.083677 S    
C3    C42   1.448734 S    
C37   C40   1.386300 A    
Cu1   O5    1.959271 S    
C31   C32   1.412169 A    
C10   H2    1.082992 S    
C48   O16   1.398015 S    
C21   H6    1.079999 S    
C20   C24   1.419353 A    
C44   C50   1.494192 S    
C6    C15   1.398575 A    
O8    C4    1.305055 A    
C15   C37   1.397886 A    
C45   C46   1.506143 S    
C19   C35   1.418920 A    
C36   C51   1.489511 S    
C38   H8    1.080041 S    
O2    C1    1.290380 A    
C37   H7    1.083603 S    
C45   N3    1.296084 D    
C22   H5    1.083396 S    
O18   H15   1.013972 S    
O4    C2    1.301819 A    
C39   C47   1.481349 S    
C50   O19   1.223189 D    
C19   C20   1.410426 A    
O20   H16   1.013858 S    
C18   C33   1.424145 A    
C31   C48   1.487321 S    
C25   C26   1.417080 A    
C49   O17   1.223308 D    
Cu2   O6    1.955800 S    
C33   C34   1.414552 A    
C17   C30   1.419834 A    
C10   C11   1.397569 A    
C28   C32   1.395978 A    
