data_mof_unit_67915.cif
_audit_creation_date              2013-03-05T16:11:43-0500
_audit_creation_method            fapswitch 2.2
_symmetry_space_group_name_H-M    P1
_symmetry_Int_Tables_number       1
_space_group_crystal_system       triclinic
_cell_length_a                    10.712714
_cell_length_b                    10.044244
_cell_length_c                    10.629266
_cell_angle_alpha                 90.05054
_cell_angle_beta                  92.245416
_cell_angle_gamma                 89.037094
_cell_volume                      1142.6812611

loop_
_atom_site_label
_atom_site_type_symbol
_atom_site_description
_atom_site_fract_x
_atom_site_fract_y
_atom_site_fract_z
_atom_type_partial_charge
O1    O     O_R   0.316770 0.614620 0.499990 -0.584122
O2    O     O_R   0.683230 0.385380 0.500010 -0.587990
O3    O     O_R   0.683230 0.614620 0.500010 -0.581631
O4    O     O_R   0.316770 0.385380 0.499990 -0.581744
C1    C     C_R   0.872478 0.499621 0.469169 -0.240516
C2    C     C_R   0.126396 0.501655 0.525974 -0.246765
C3    C     C_R   0.260844 0.500793 0.513181 0.941986
C4    C     C_R   0.738679 0.499446 0.485376 0.944379
O5    O     O_R   0.499970 0.614650 0.313950 -0.566689
O6    O     O_R   0.500030 0.385350 0.686050 -0.557868
O7    O     O_R   0.500030 0.614650 0.686050 -0.596667
O8    O     O_R   0.499970 0.385350 0.313950 -0.601435
C5    C     C_R   0.496543 0.499286 0.257711 1.000165
C6    C     C_R   0.504387 0.500670 0.742409 0.992863
Zn1   Zn    Zn3+2 0.500000 0.653120 0.500000 1.064595
Zn2   Zn    Zn3+2 0.500000 0.346880 0.500000 1.066761
N1    N     N_R   0.500000 0.857200 0.500000 -0.147405
N2    N     N_R   0.500000 0.142800 0.500000 -0.147537
C7    C     C_3   0.381511 0.522324 0.032884 -0.004401
C8    C     C_3   0.620949 0.477825 0.967748 0.057258
C9    C     C_3   0.459977 0.621584 0.959436 0.053098
C10   C     C_3   0.542588 0.379453 0.041339 0.115282
C11   C     C_3   0.429483 0.406742 0.951305 0.407078
C12   C     C_3   0.574636 0.593835 0.049567 0.410333
C13   C     C_3   0.506424 0.503860 0.878164 -0.266006
C14   C     C_3   0.496276 0.496344 0.122269 -0.268651
C15   C     C_R   0.578528 0.069802 0.580137 0.196669
C16   C     C_R   0.422054 0.930325 0.419422 0.186330
C17   C     C_R   0.421105 0.072877 0.420399 0.196057
C18   C     C_R   0.578515 0.927101 0.580098 0.195318
C19   C     C_R   0.063077 0.379930 0.520350 0.155743
C20   C     C_R   0.935489 0.621645 0.474155 0.161453
C21   C     C_R   0.939678 0.378789 0.477371 0.160557
C22   C     C_R   0.059350 0.622877 0.516117 0.160638
I1    I     I_    0.702532 0.169072 0.707691 -0.188484
I2    I     I_    0.301121 0.832287 0.288405 -0.186094
I3    I     I_    0.292421 0.177587 0.298262 -0.263793
I4    I     I_    0.704528 0.821615 0.704527 -0.272515
O9    O     O_3   0.364710 0.306217 0.884643 -0.599386
C23   C     C_3   0.261898 0.262975 0.950583 0.123801
H1    H     H_    0.175712 0.308581 0.906299 0.202549
H2    H     H_    0.266709 0.288417 0.051920 0.169591
C24   C     C_3   0.256661 0.112602 0.942308 -0.282156
H3    H     H_    0.269684 0.080387 0.843718 0.278078
H4    H     H_    0.333290 0.068891 0.003283 0.261086
C25   C     C_3   0.132161 0.063037 0.984875 -0.850594
H5    H     H_    0.132253 0.952584 0.981431 0.302409
H6    H     H_    0.056301 0.103956 0.921221 0.280434
H7    H     H_    0.115043 0.095220 0.082627 0.292377
O10   O     O_3   0.655543 0.675422 0.123054 -0.609348
C26   C     C_3   0.678659 0.798057 0.065596 0.150931
H8    H     H_    0.660337 0.877536 0.135473 0.207969
H9    H     H_    0.619335 0.820131 0.980804 0.164541
C27   C     C_3   0.814943 0.802899 0.029899 -0.319934
H10   H     H_    0.878304 0.770713 0.109540 0.272663
H11   H     H_    0.829658 0.733032 0.951195 0.257768
C28   C     C_3   0.848972 0.942134 0.988246 -0.825701
H12   H     H_    0.768042 0.994918 0.941797 0.297964
H13   H     H_    0.922036 0.932902 0.917894 0.283709
H14   H     H_    0.882656 0.001686 0.070475 0.292866
I5    I     I_    0.191219 0.558986 0.085305 -0.290281
I6    I     I_    0.811701 0.446663 0.920097 -0.267359
I7    I     I_    0.375306 0.799939 0.884311 -0.314008
I8    I     I_    0.603104 0.184885 0.100822 -0.303146
I9    I     I_    0.135243 0.203922 0.612350 -0.215619
I10   I     I_    0.859009 0.799942 0.388406 -0.197563
I11   I     I_    0.871143 0.200165 0.390868 -0.171014
I12   I     I_    0.127704 0.803147 0.599603 -0.168877

loop_
_geom_bond_atom_site_label_1
_geom_bond_atom_site_label_2
_geom_bond_distance
_ccdc_geom_bond_type
O4    Zn2   1.994230 S    
C1    C4    1.450382 S    
C7    C11   1.541715 S    
C24   H3    1.109815 S    
C19   C21   1.381860 A    
Zn1   N1    2.049829 S    
C2    C3    1.451879 S    
O1    Zn1   2.006983 S    
O2    Zn2   2.006981 S    
C27   H10   1.109023 S    
C26   C27   1.524359 S    
C2    C22   1.405100 A    
C23   C24   1.514718 S    
C1    C20   1.409087 A    
C23   H2    1.106247 S    
C2    C19   1.408229 A    
O5    Zn1   2.014626 S    
N2    C17   1.373440 A    
O6    Zn2   2.014624 S    
C15   C18   1.433330 A    
C8    I6    2.142340 S    
N1    C18   1.374024 A    
C24   H4    1.110588 S    
C25   H7    1.109081 S    
C16   I2    2.118143 S    
C28   H12   1.108136 S    
O7    Zn1   2.015292 S    
C7    I5    2.159892 S    
O4    C3    1.305902 A    
C11   O9    1.409546 S    
C20   I10   2.145740 S    
C16   C17   1.431723 A    
C7    C9    1.546293 S    
C12   C14   1.529877 S    
O10   C26   1.405351 S    
C27   H11   1.105774 S    
C1    C21   1.401697 A    
C11   C13   1.521154 S    
C6    C13   1.442622 S    
C12   O10   1.415135 S    
C24   C25   1.517038 S    
C25   H6    1.110543 S    
C5    C14   1.439820 S    
C28   H13   1.106220 S    
C9    I7    2.135609 S    
C8    C13   1.542218 S    
C10   C14   1.541651 S    
C26   H8    1.110220 S    
C8    C12   1.540403 S    
O9    C23   1.403598 S    
O3    Zn1   1.994229 S    
O8    C5    1.290898 A    
C21   I11   2.142859 S    
Zn2   N2    2.049829 S    
O3    C4    1.303510 A    
O6    C6    1.304269 A    
C9    C12   1.549515 S    
C17   I3    2.122589 S    
O7    C6    1.291866 A    
C19   I9    2.139426 S    
C7    C14   1.542862 S    
C9    C13   1.550524 S    
C25   H5    1.109966 S    
C23   H1    1.111738 S    
C28   H14   1.110657 S    
O5    C5    1.303787 A    
C18   I4    2.123369 S    
C15   I1    2.120871 S    
O1    C3    1.309826 A    
N1    C16   1.376497 A    
C10   I8    2.136996 S    
C10   C11   1.535422 S    
O2    C4    1.311533 A    
N2    C15   1.376612 A    
O8    Zn2   2.015292 S    
C8    C10   1.540626 S    
C22   I12   2.143131 S    
C26   H9    1.102770 S    
C27   C28   1.521708 S    
C20   C22   1.383434 A    
