data_mof_unit_25050.cif
_audit_creation_date              2012-12-11T16:18:07-0500
_audit_creation_method            fapswitch 2.2
_symmetry_space_group_name_H-M    P1
_symmetry_Int_Tables_number       1
_space_group_crystal_system       triclinic
_cell_length_a                    14.044085
_cell_length_b                    14.065622
_cell_length_c                    30.083271
_cell_angle_alpha                 97.122466
_cell_angle_beta                  97.065411
_cell_angle_gamma                 61.319944
_cell_volume                      5159.52265597

loop_
_atom_site_label
_atom_site_type_symbol
_atom_type_description
_atom_site_fract_x
_atom_site_fract_y
_atom_site_fract_z
_atom_type_partial_charge
C1    C     C_R   0.385482 0.711471 0.442361 0.531231
C2    C     C_R   0.779084 0.270735 0.375265 0.238409
C3    C     C_R   0.801021 0.253978 0.329755 -0.107968
C4    C     C_R   0.398954 0.381200 0.426431 0.546216
C5    C     C_R   0.808303 0.333487 0.309071 0.006571
C6    C     C_R   0.802471 0.426270 0.333949 -0.132785
C7    C     C_R   0.780579 0.444149 0.378903 -0.168382
C8    C     C_R   0.826807 0.401445 0.157529 -0.133003
C9    C     C_R   0.857719 0.391832 0.114374 -0.133742
C10   C     C_R   0.880981 0.208301 0.103690 -0.112549
C11   C     C_R   0.849465 0.217263 0.147117 0.032757
C12   C     C_R   0.412680 0.271171 0.221614 -0.118173
C13   C     C_R   0.827324 0.313286 0.174653 0.052246
C14   C     C_1   0.818359 0.318709 0.221826 -0.029944
C15   C     C_1   0.814302 0.323953 0.261638 -0.031108
C16   C     C_R   0.709741 0.405663 0.442222 0.565856
C17   C     C_R   0.890390 0.293307 0.087959 0.004495
C18   C     C_R   0.364461 0.768042 0.401175 0.009118
C19   C     C_R   0.438070 0.800801 0.388485 0.237173
C20   C     C_R   0.435748 0.818337 0.343527 -0.046926
C21   C     C_R   0.357935 0.809819 0.312031 -0.009607
C22   C     C_R   0.277807 0.790326 0.325466 -0.133155
C23   C     C_R   0.421282 0.276337 0.268365 -0.121187
C24   C     C_R   0.280747 0.769821 0.369729 -0.160395
C25   C     C_R   0.267882 0.823158 0.152567 -0.124274
C26   C     C_R   0.241696 0.853402 0.108194 0.235218
C27   C     C_R   0.392597 0.895231 0.115761 -0.165658
C28   C     C_R   0.389573 0.711712 0.568188 0.543773
C29   C     C_R   0.418917 0.864534 0.159963 0.019155
C30   C     C_R   0.352287 0.833172 0.178777 0.019139
C31   C     C_1   0.360356 0.822700 0.225969 -0.023345
C32   C     C_1   0.361400 0.817162 0.265454 -0.034002
C33   C     C_R   0.301207 0.895418 0.090433 0.042570
C34   C     C_R   0.331549 0.348270 0.292588 0.049438
C35   C     C_R   0.365342 0.364325 0.592621 0.004790
C36   C     C_R   0.431195 0.269752 0.615038 -0.134680
C37   C     C_R   0.411739 0.263494 0.658516 -0.134690
C38   C     C_R   0.326144 0.351136 0.679978 0.052407
C39   C     C_R   0.253474 0.443184 0.656714 0.034459
C40   C     C_R   0.402226 0.383271 0.552443 0.538745
C41   C     C_R   0.273789 0.448549 0.612876 -0.114791
C42   C     C_R   0.222045 0.406016 0.834046 -0.153782
C43   C     C_R   0.211089 0.388680 0.877235 -0.146451
C44   C     C_R   0.397325 0.243558 0.880841 -0.049745
C45   C     C_R   0.314323 0.338313 0.198692 0.024129
C46   C     C_R   0.409460 0.260037 0.837567 0.263528
C47   C     C_R   0.318962 0.339570 0.813440 0.030790
C48   C     C_1   0.319648 0.346423 0.766508 -0.044194
C49   C     C_1   0.321163 0.348982 0.726980 -0.035205
C50   C     C_R   0.297024 0.303909 0.900131 -0.030500
C51   C     C_1   0.763749 0.375747 0.612195 -0.012187
C52   C     C_R   0.713165 0.407763 0.568463 0.543861
C53   C     C_R   0.895273 0.358994 0.722807 -0.112825
C54   C     C_R   0.913835 0.345174 0.768770 -0.116992
C55   C     C_R   0.785722 0.272803 0.763277 0.031269
C56   C     C_1   0.302838 0.324137 0.150717 -0.060670
C57   C     C_R   0.767646 0.287367 0.717021 -0.092283
C58   C     C_R   0.821954 0.330466 0.696917 0.023842
C59   C     C_R   0.858986 0.303180 0.789328 0.049421
C60   C     C_1   0.881138 0.291441 0.836967 -0.059754
C61   C     C_1   0.795041 0.353067 0.650423 -0.058375
C62   C     C_1   0.907533 0.281649 0.876448 -0.016025
C63   C     C_1   0.374416 0.760447 0.613194 -0.010811
C64   C     C_1   0.366486 0.364443 0.380583 -0.011594
C65   C     C_R   0.253829 0.827767 0.716149 -0.098096
C66   C     C_R   0.240612 0.844802 0.762652 -0.015632
C67   C     C_1   0.347088 0.355297 0.340737 -0.056729
C68   C     C_R   0.419563 0.838381 0.775691 0.255630
C69   C     C_R   0.430336 0.821434 0.729091 -0.106726
C70   C     C_R   0.347648 0.816637 0.699581 -0.013384
C71   C     C_R   0.325034 0.849566 0.792360 0.073957
C72   C     C_1   0.311263 0.874290 0.839942 0.005333
C73   C     C_1   0.362337 0.790458 0.652328 -0.054179
C74   C     C_1   0.293016 0.903087 0.878758 0.002228
C75   C     C_R   0.950050 0.273291 0.047960 0.541509
C76   C     C_R   0.231866 0.417166 0.269713 0.037096
C77   C     C_R   0.275413 0.270192 0.065373 0.547131
C78   C     C_1   0.291688 0.304531 0.110994 -0.014397
C79   C     C_R   0.260946 0.953719 0.048901 0.568761
C80   C     C_R   0.952566 0.268969 0.922004 0.546729
C81   C     C_R   0.276673 0.266411 0.939717 0.542296
C82   C     C_R   0.261531 0.950834 0.922898 0.543644
C83   C     C_R   0.224170 0.410706 0.222535 -0.092193
C84   C     C_3   0.133880 0.497795 0.294627 -0.274905
C85   C     C_3   0.142518 0.600634 0.311137 -0.436264
C86   C     C_3   0.846292 0.121954 0.164134 -0.273282
C87   C     C_3   0.729447 0.146401 0.168766 -0.437636
C88   C     C_3   0.514198 0.871302 0.186946 -0.264591
C89   C     C_R   0.763045 0.369762 0.399445 0.056549
C90   C     C_3   0.608910 0.758179 0.194250 -0.434930
C91   C     C_3   0.158775 0.538624 0.678788 -0.275653
C92   C     C_3   0.067978 0.511257 0.683868 -0.435605
C93   C     C_3   0.725812 0.226013 0.783836 -0.264885
C94   C     C_3   0.798901 0.105670 0.790708 -0.426857
C95   C     C_3   0.138529 0.858586 0.781695 -0.273581
C96   C     C_3   0.052212 0.850576 0.747435 -0.453073
Cr1   Cr    Cr6+3 0.581000 0.584320 0.508140 1.040949
Cr2   Cr    Cr6+3 0.339110 0.576430 0.496080 1.018400
Cr3   Cr    Cr6+3 0.579910 0.339270 0.495810 1.072993
Cr4   Cr    Cr6+3 0.082090 0.079210 0.982490 1.050344
Cr5   Cr    Cr6+3 0.082460 0.324610 0.994920 1.026704
Cr6   Cr    Cr6+3 0.323630 0.087860 0.996130 1.031257
H1    H     H_    0.904158 0.132609 0.083179 0.139725
H2    H     H_    0.152671 0.467330 0.815741 0.116686
H3    H     H_    0.221662 0.521385 0.595607 0.127824
H4    H     H_    0.501948 0.203456 0.600192 0.137971
H5    H     H_    0.464983 0.178666 0.898255 0.163787
H6    H     H_    0.467232 0.192467 0.676329 0.113271
H7    H     H_    0.936736 0.393443 0.707627 0.110066
H8    H     H_    0.482280 0.213751 0.203325 0.107758
H9    H     H_    0.970601 0.368191 0.788465 0.114010
H10   H     H_    0.710360 0.266093 0.696665 0.107767
H11   H     H_    0.192260 0.821988 0.692290 0.125115
H12   H     H_    0.807956 0.181249 0.310051 0.091204
H13   H     H_    0.503398 0.811088 0.715872 0.102692
H14   H     H_    0.498360 0.224333 0.285719 0.115978
H15   H     H_    0.863071 0.459056 0.102951 0.134966
H16   H     H_    0.808812 0.475652 0.178549 0.106537
H17   H     H_    0.809462 0.487482 0.318036 0.120613
H18   H     H_    0.770026 0.520078 0.396619 0.157520
H19   H     H_    0.215728 0.581397 0.334643 0.165848
H20   H     H_    0.147390 0.639805 0.282231 0.145846
H21   H     H_    0.069449 0.658776 0.329023 0.137437
H22   H     H_    0.057985 0.520830 0.272355 0.131236
H23   H     H_    0.218764 0.796839 0.167474 0.094753
H24   H     H_    0.125867 0.460611 0.323519 0.151365
H25   H     H_    0.689717 0.216127 0.193731 0.159565
H26   H     H_    0.681528 0.165430 0.135845 0.160836
H27   H     H_    0.729597 0.074275 0.180241 0.128883
H28   H     H_    0.884303 0.048211 0.140728 0.141846
H29   H     H_    0.894084 0.101820 0.197050 0.147202
H30   H     H_    0.123089 0.816557 0.100350 0.311714
H31   H     H_    0.486639 0.833471 0.448566 0.330771
H32   H     H_    0.585020 0.712054 0.213822 0.161918
H33   H     H_    0.635847 0.712313 0.161417 0.154136
H34   H     H_    0.216055 0.785733 0.301225 0.116259
H35   H     H_    0.678316 0.765666 0.213188 0.129559
H36   H     H_    0.543664 0.916174 0.169370 0.133181
H37   H     H_    0.488519 0.917260 0.219882 0.149854
H38   H     H_    0.038552 0.487897 0.650476 0.160048
H39   H     H_    0.096898 0.443558 0.705942 0.155284
H40   H     H_    0.998910 0.583522 0.699152 0.134751
H41   H     H_    0.187032 0.562977 0.712249 0.147894
H42   H     H_    0.124378 0.610475 0.658563 0.131458
H43   H     H_    0.508377 0.214959 0.789780 0.320192
H44   H     H_    0.825881 0.059590 0.757933 0.144385
H45   H     H_    0.221787 0.747618 0.378386 0.140009
H46   H     H_    0.871475 0.093462 0.813645 0.158869
H47   H     H_    0.752886 0.073278 0.805666 0.177440
H48   H     H_    0.695593 0.271466 0.816395 0.169797
H49   H     H_    0.653238 0.234642 0.761578 0.133824
H50   H     H_    0.020727 0.916002 0.723981 0.153053
H51   H     H_    0.086207 0.769758 0.728432 0.143756
H52   H     H_    0.983059 0.860410 0.765318 0.141444
H53   H     H_    0.163155 0.795380 0.805736 0.151460
H54   H     H_    0.099667 0.939355 0.800711 0.152868
H55   H     H_    0.560002 0.835782 0.788421 0.322792
H56   H     H_    0.440447 0.924689 0.101970 0.134180
H57   H     H_    0.781660 0.130726 0.374097 0.313739
H58   H     H_    0.147865 0.461486 0.204354 0.104210
H59   H     H_    0.495549 0.837322 0.333125 0.133936
H60   H     H_    0.132918 0.436696 0.891330 0.145498
O1    O     O_R   0.688580 0.499770 0.460490 -0.522424
O2    O     O_R   0.346150 0.177650 0.050510 -0.512627
O3    O     O_R   0.314200 0.996600 0.036060 -0.522808
O4    O     O_R   0.480400 0.672610 0.462660 -0.481174
O5    O     O_R   0.168690 0.969990 0.933130 -0.513774
O6    O     O_R   0.991920 0.175870 0.937430 -0.496355
O7    O     O_R   0.974010 0.342590 0.941330 -0.507117
O8    O     O_R   0.182630 0.317940 0.955040 -0.498684
O9    O     O_R   0.347320 0.174720 0.953250 -0.511774
O10   O     O_R   0.315290 0.993890 0.945900 -0.482224
O11   O     O_3   0.162730 0.163890 0.991180 -0.252990
O12   O     O_R   0.348600 0.476260 0.536540 -0.505047
O13   O     O_R   0.315310 0.685650 0.451800 -0.519100
O14   O     O_R   0.346220 0.474990 0.446280 -0.500903
O15   O     O_R   0.492270 0.312460 0.441630 -0.483364
O16   O     O_R   0.669740 0.350480 0.455640 -0.432080
O17   O     O_R   0.691150 0.501150 0.557860 -0.507862
O18   O     O_R   0.482790 0.673890 0.552920 -0.495435
O19   O     O_R   0.317880 0.687030 0.549170 -0.510066
O20   O     O_3   0.155934 0.846891 0.082660 -0.681004
O21   O     O_3   0.514652 0.813475 0.418304 -0.694165
O22   O     O_3   0.508517 0.193010 0.819765 -0.714252
O23   O     O_R   0.494840 0.313840 0.539010 -0.514537
O24   O     O_3   0.499772 0.844761 0.805497 -0.684455
O25   O     O_3   0.768600 0.194053 0.395855 -0.679404
O26   O     O_R   0.672120 0.351750 0.545910 -0.494758
O27   O     O_3   0.500010 0.500010 0.500010 -0.256687
O28   O     O_R   0.167510 0.972920 0.030390 -0.440716
O29   O     O_R   0.990840 0.178580 0.027590 -0.500946
O30   O     O_R   0.972840 0.345510 0.038590 -0.514859
O31   O     O_R   0.181550 0.320660 0.045200 -0.492762

loop_
_geom_bond_atom_site_label_1
_geom_bond_atom_site_label_2
_ccdc_geom_bond_type
C94   H44   S    
C86   H28   S    
C8    C13   A    
C90   H33   S    
C55   C59   A    
C27   C29   A    
C9    H15   S    
Cr5   O11   S    
C95   C96   S    
C51   C61   T    
C4    O15   A    
C55   C93   S    
Cr5   O30   S    
C76   C84   S    
C12   H8    S    
C8    H16   S    
C39   C41   A    
C38   C49   S    
C77   C78   S    
C27   C33   A    
C27   H56   S    
C12   C23   A    
C1    O13   A    
C1    C18   S    
C29   C30   A    
C41   H3    S    
Cr4   O5    S    
C18   C24   A    
C62   C80   S    
C36   C37   A    
C95   H54   S    
C2    C3    A    
C5    C6    A    
Cr2   O12   S    
C86   H29   S    
Cr1   O17   S    
C57   H10   S    
C10   C17   A    
C46   O22   S    
Cr1   O4    S    
C96   H50   S    
C87   H25   S    
C25   C30   A    
C56   C78   T    
C60   C62   T    
C18   C19   A    
H57   O25   S    
C77   O31   A    
C2    O25   S    
C87   H26   S    
C29   C88   S    
C25   H23   S    
H30   O20   S    
C23   H14   S    
H31   O21   S    
C96   H52   S    
C83   H58   S    
C35   C36   A    
C45   C56   S    
C16   O16   A    
C8    C9    A    
Cr1   O1    S    
C79   O28   A    
Cr5   O7    S    
C92   H40   S    
C82   O5    A    
C58   C61   S    
Cr1   O27   S    
C68   O24   S    
C59   C60   S    
C21   C22   A    
Cr6   O10   S    
C93   H48   S    
C45   C83   A    
C85   H21   S    
C80   O7    A    
C74   C82   S    
Cr2   O27   S    
C76   C83   A    
C39   C91   S    
Cr3   O26   S    
Cr5   O31   S    
C91   H41   S    
C54   C59   A    
C16   O1    A    
C84   H24   S    
C38   C39   A    
C21   C32   S    
C82   O10   A    
C36   H4    S    
C51   C52   S    
C64   C67   T    
Cr5   O8    S    
C84   C85   S    
C37   H6    S    
C72   C74   T    
C19   O21   S    
C91   C92   S    
Cr3   O27   S    
C86   C87   S    
C68   C69   A    
Cr1   O18   S    
C40   O23   A    
C44   C46   A    
C94   H46   S    
C25   C26   A    
C53   C54   A    
C3    H12   S    
C22   H34   S    
C94   H47   S    
C11   C86   S    
C2    C89   A    
C75   O29   A    
C28   O19   A    
C43   H60   S    
C66   C71   A    
C37   C38   A    
Cr2   O14   S    
C26   C33   A    
C47   C48   S    
H43   O22   S    
Cr6   O11   S    
C23   C34   A    
C88   H36   S    
C70   C73   S    
C85   H20   S    
C93   C94   S    
C81   O8    A    
C79   O3    A    
C85   H19   S    
C92   H39   S    
C28   O18   A    
C10   H1    S    
C88   H37   S    
Cr3   O16   S    
C26   O20   S    
C9    C17   A    
C48   C49   T    
C88   C90   S    
Cr6   O3    S    
H55   O24   S    
C55   C57   A    
C22   C24   A    
C93   H49   S    
Cr4   O29   S    
C42   C43   A    
C92   H38   S    
C6    H17   S    
Cr3   O23   S    
C90   H35   S    
C77   O2    A    
C91   H42   S    
C44   H5    S    
C44   C50   A    
Cr6   O9    S    
C46   C47   A    
C69   H13   S    
C65   H11   S    
C7    H18   S    
C31   C32   T    
Cr4   O28   S    
C33   C79   S    
C12   C45   A    
C3    C5    A    
C24   H45   S    
C42   H2    S    
C34   C67   S    
C96   H51   S    
C53   C58   A    
C43   C50   A    
Cr3   O15   S    
C6    C7    A    
C84   H22   S    
C63   C73   T    
C4    C64   S    
Cr4   O6    S    
C87   H27   S    
C19   C20   A    
C35   C40   S    
C52   O17   A    
C71   C72   S    
C40   O12   A    
Cr2   O13   S    
C11   C13   A    
C57   C58   A    
C30   C31   S    
C1    O4    A    
Cr2   O19   S    
C68   C71   A    
C90   H32   S    
C20   H59   S    
C54   H9    S    
C75   O30   A    
C95   H53   S    
C42   C47   A    
C81   O9    A    
C69   C70   A    
C35   C41   A    
C5    C15   S    
C10   C11   A    
C28   C63   S    
C16   C89   S    
C20   C21   A    
Cr6   O2    S    
C65   C66   A    
C4    O14   A    
Cr4   O11   S    
C17   C75   S    
C14   C15   T    
C53   H7    S    
C52   O26   A    
C13   C14   S    
C80   O6    A    
C65   C70   A    
C50   C81   S    
C34   C76   A    
C66   C95   S    
C7    C89   A    
