data_mof_unit_17481.cif
_audit_creation_date              2012-12-10T20:40:55-0500
_audit_creation_method            fapswitch 2.2
_symmetry_space_group_name_H-M    P1
_symmetry_Int_Tables_number       1
_space_group_crystal_system       triclinic
_cell_length_a                    27.419337
_cell_length_b                    10.720869
_cell_length_c                    9.925424
_cell_angle_alpha                 89.591013
_cell_angle_beta                  88.382479
_cell_angle_gamma                 90.106106
_cell_volume                      2916.42584486

loop_
_atom_site_label
_atom_site_type_symbol
_atom_type_description
_atom_site_fract_x
_atom_site_fract_y
_atom_site_fract_z
_atom_type_partial_charge
C1    C     C_R   0.499884 0.260297 0.500396 0.950094
C2    C     C_R   0.271745 0.438532 0.523361 0.017675
C3    C     C_R   0.253812 0.560287 0.500238 0.189104
C4    C     C_R   0.104321 0.626627 0.459805 -0.049888
C5    C     C_R   0.131989 0.574075 0.352853 -0.062066
C6    C     C_R   0.109568 0.544098 0.232638 -0.111023
C7    C     C_R   0.127900 0.669637 0.575664 -0.085501
C8    C     C_R   0.354069 0.522221 0.504939 -0.040226
C9    C     C_R   0.646841 0.510944 0.492960 -0.198584
C10   C     C_R   0.979320 0.555000 0.350190 0.046923
C11   C     C_R   0.973395 0.684658 0.553877 0.053634
C12   C     C_R   0.406190 0.500738 0.501671 0.867929
C13   C     C_R   0.951009 0.611039 0.454751 0.076697
C14   C     C_R   0.956916 0.465648 0.268405 -0.219550
C15   C     C_R   0.906998 0.444269 0.277391 -0.128984
C16   C     C_R   0.878047 0.507896 0.372234 -0.022780
C17   C     C_R   0.900029 0.590255 0.462427 -0.053095
C18   C     C_R   0.871127 0.650054 0.561766 -0.028330
C19   C     C_R   0.820843 0.627744 0.568021 0.522271
C20   C     C_R   0.827522 0.489301 0.381059 0.523091
C21   C     C_R   0.727157 0.419184 0.511359 -0.113216
C22   C     C_R   0.676378 0.404794 0.514804 -0.087766
C23   C     C_R   0.496907 0.739588 0.498586 0.923627
C24   C     C_R   0.668501 0.628204 0.463342 -0.079048
C25   C     C_R   0.719077 0.637912 0.454120 -0.118315
C26   C     C_R   0.748284 0.534932 0.480543 0.255133
C27   C     C_R   0.029925 0.580850 0.338790 0.026661
C28   C     C_R   0.053007 0.632810 0.451825 0.044314
C29   C     C_R   0.025062 0.687116 0.558372 0.046710
C30   C     C_R   0.059122 0.553263 0.221741 0.163464
C31   C     C_R   0.100515 0.735352 0.675020 -0.022619
C32   C     C_R   0.943121 0.747807 0.648738 -0.210595
C33   C     C_R   0.892898 0.730800 0.652192 -0.122106
C34   C     C_R   0.593878 0.500763 0.498194 0.988631
C35   C     C_R   0.049768 0.740049 0.667060 -0.261697
C36   C     C_R   0.482295 0.061886 0.614722 0.058693
C37   C     C_R   0.495204 0.128650 0.498765 -0.135273
C38   C     C_R   0.496742 0.067803 0.374373 -0.235162
C39   C     C_R   0.492370 0.939492 0.368797 -0.030785
C40   C     C_R   0.488407 0.871217 0.492383 -0.228517
C41   C     C_R   0.477636 0.935605 0.610802 0.079633
C42   C     C_3   0.491333 0.919132 0.754619 -0.041642
C43   C     C_3   0.498293 0.060910 0.758338 -0.060647
C44   C     C_R   0.459600 0.534500 0.074848 0.108722
C45   C     C_R   0.181936 0.555646 0.367389 0.576663
C46   C     C_R   0.540076 0.461095 0.066702 0.209027
C47   C     C_R   0.540071 0.464703 0.923689 -0.108467
C48   C     C_R   0.459284 0.535104 0.932604 0.152096
C49   C     C_3   0.408080 0.479583 0.934814 0.190544
C50   C     C_3   0.409982 0.476857 0.089836 -0.267253
C51   C     C_R   0.177583 0.639585 0.589475 0.599206
C52   C     C_R   0.285737 0.661225 0.484159 -0.091537
C53   C     C_R   0.335915 0.643695 0.486906 0.133735
C54   C     C_R   0.322382 0.421194 0.524826 -0.276514
H1    H     H_    0.337435 0.328984 0.540796 0.174208
H2    H     H_    0.270962 0.753595 0.467540 0.161848
H3    H     H_    0.956949 0.812204 0.721219 0.150493
H4    H     H_    0.871246 0.780163 0.727565 0.197316
H5    H     H_    0.736166 0.727146 0.431170 0.175329
H6    H     H_    0.030451 0.785511 0.748827 0.164713
H7    H     H_    0.502790 0.119246 0.280887 0.225807
H8    H     H_    0.525252 0.863937 0.767497 0.215290
H9    H     H_    0.472315 0.109266 0.827828 0.195571
H10   H     H_    0.571904 0.434939 0.865715 0.162933
H11   H     H_    0.383886 0.541744 0.140908 0.175849
H12   H     H_    0.131371 0.515819 0.145284 0.207036
H13   H     H_    0.750623 0.340007 0.529817 0.183750
H14   H     H_    0.891330 0.376235 0.210910 0.195645
H15   H     H_    0.977846 0.407168 0.200429 0.174059
N1    N     N_R   0.203007 0.583840 0.486185 -0.333997
N2    N     N_R   0.800105 0.549514 0.477511 -0.349476
N3    N     N_R   0.499670 0.499140 0.142800 -0.101214
N4    N     N_R   0.499670 0.499180 0.857150 -0.132819
O1    O     O_R   0.500010 0.316790 0.614690 -0.630524
O2    O     O_2   0.805827 0.413186 0.292958 -0.542559
O3    O     O_2   0.200055 0.660098 0.706422 -0.521270
O4    O     O_2   0.792810 0.683217 0.664134 -0.536375
O5    O     O_R   0.500000 0.316760 0.385350 -0.603408
O6    O     O_R   0.428760 0.500040 0.614660 -0.641842
O7    O     O_R   0.428750 0.500000 0.385310 -0.608583
O8    O     O_R   0.500000 0.683240 0.614650 -0.599326
O9    O     O_R   0.499990 0.683210 0.385310 -0.594824
O10   O     O_R   0.571250 0.500000 0.614690 -0.600901
O11   O     O_R   0.571240 0.499960 0.385340 -0.621671
O12   O     O_2   0.209219 0.507664 0.264995 -0.540877
Zn1   Zn    Zn3+2 0.500000 0.500020 0.653130 0.959092
Zn2   Zn    Zn3+2 0.500000 0.499980 0.346870 1.008394
C55   C     C_2   0.123335 0.808886 0.782843 0.992103
O13   O     O_2   0.105856 0.806577 0.897562 -0.644460
O14   O     O_R   0.163349 0.885926 0.751475 -0.751734
H16   H     H_    0.175221 0.932656 0.832765 0.358991
C56   C     C_2   0.639730 0.743915 0.448847 0.927564
O15   O     O_2   0.649017 0.816136 0.355642 -0.583490
O16   O     O_R   0.604156 0.774217 0.546467 -0.807216
H17   H     H_    0.589915 0.860178 0.531236 0.328456
C57   C     C_2   0.495026 0.883820 0.232746 0.963835
O17   O     O_2   0.461745 0.817893 0.194859 -0.660427
O18   O     O_R   0.534933 0.910625 0.146513 -0.782619
H18   H     H_    0.533321 0.865549 0.057337 0.336664
C58   C     C_3   0.447907 0.872510 0.841099 -0.874542
H19   H     H_    0.455703 0.884059 0.948913 0.280246
H20   H     H_    0.414089 0.925019 0.818957 0.251771
H21   H     H_    0.441589 0.772431 0.820691 0.259821
C59   C     C_2   0.238779 0.329339 0.546212 0.961147
O19   O     O_2   0.255068 0.223411 0.537927 -0.610428
O20   O     O_R   0.189358 0.346422 0.579466 -0.804813
H22   H     H_    0.171101 0.264719 0.592590 0.357370
C60   C     C_3   0.551655 0.098623 0.776865 -0.810483
H23   H     H_    0.576185 0.052246 0.701731 0.249192
H24   H     H_    0.556059 0.201059 0.767017 0.261978
H25   H     H_    0.562816 0.070875 0.879456 0.267329
C61   C     C_3   0.583928 0.404938 0.130236 -0.722273
H26   H     H_    0.608059 0.479981 0.166345 0.248935
H27   H     H_    0.572562 0.339071 0.211776 0.284168
H28   H     H_    0.605896 0.349604 0.056369 0.205293
C62   C     C_3   0.369245 0.572634 0.887536 -0.809236
H29   H     H_    0.332207 0.533314 0.907387 0.267645
H30   H     H_    0.371860 0.662695 0.941702 0.232139
H31   H     H_    0.373471 0.593262 0.778711 0.258545
C63   C     C_3   0.403226 0.350096 0.868458 -0.715446
H32   H     H_    0.437793 0.297357 0.873962 0.229578
H33   H     H_    0.373529 0.295590 0.919590 0.223110
H34   H     H_    0.392817 0.356401 0.762214 0.243259
C64   C     C_2   0.409160 0.348790 0.156478 0.991749
O21   O     O_2   0.442214 0.274244 0.135549 -0.655015
O22   O     O_R   0.369638 0.316031 0.241424 -0.787178
H35   H     H_    0.372969 0.229210 0.281240 0.340833
C65   C     C_2   0.655672 0.277794 0.536744 0.913757
O23   O     O_2   0.677159 0.201890 0.605860 -0.598455
O24   O     O_R   0.612819 0.242773 0.474031 -0.828206
H36   H     H_    0.603934 0.152159 0.491306 0.343467
C66   C     C_3   0.039634 0.548833 0.080928 -0.874105
H37   H     H_    0.063123 0.606016 0.011579 0.283032
H38   H     H_    0.040007 0.451502 0.043479 0.236985
H39   H     H_    0.002495 0.589066 0.075616 0.251625
C67   C     C_3   0.369408 0.754647 0.471488 -0.866216
H40   H     H_    0.348888 0.842995 0.458843 0.252547
H41   H     H_    0.391550 0.763128 0.562866 0.228599
H42   H     H_    0.393815 0.742692 0.381550 0.273854

loop_
_geom_bond_atom_site_label_1
_geom_bond_atom_site_label_2
_ccdc_geom_bond_type
O5    Zn2   S    
C10   C27   A    
C44   C48   A    
C21   C26   A    
O22   H35   S    
C26   N2    S    
C23   O9    A    
C46   C61   S    
C41   C42   S    
C19   N2    A    
O11   Zn2   S    
C65   O23   D    
C61   H27   S    
C43   H9    S    
C60   H23   S    
C28   C29   A    
C33   H4    S    
C1    O1    A    
C36   C37   A    
O7    Zn2   S    
C67   H42   S    
C5    C6    A    
C9    C22   A    
C49   C63   S    
O20   H22   S    
C15   C16   A    
C12   O6    A    
C62   H29   S    
C18   C19   A    
C19   O4    S    
C59   O19   D    
C54   H1    S    
C60   H24   S    
C16   C17   A    
C57   O18   S    
C20   N2    A    
C44   N3    A    
C51   N1    A    
C42   H8    S    
C46   N3    A    
O8    Zn1   S    
C63   H34   S    
C1    C37   S    
C38   H7    S    
C21   C22   A    
C21   H13   S    
C27   C30   A    
C1    O5    A    
C36   C41   A    
C53   C67   S    
C34   O11   A    
C32   H3    S    
C4    C7    A    
C24   C56   S    
C58   H20   S    
C61   H26   S    
C4    C28   A    
C63   H33   S    
N4    Zn1   S    
C7    C31   A    
C3    N1    S    
C50   C64   S    
C24   C25   A    
C47   N4    A    
C67   H41   S    
C10   C14   A    
C8    C54   A    
C39   C40   A    
C66   H37   S    
C25   C26   A    
C5    C45   A    
C58   H21   S    
O1    Zn1   S    
C20   O2    S    
C35   H6    S    
C45   O12   S    
C37   C38   A    
C42   C58   S    
C22   C65   S    
C2    C59   S    
C8    C12   S    
C57   O17   D    
C49   C62   S    
C56   O16   S    
C17   C18   A    
C16   C20   A    
C51   O3    S    
C40   C41   A    
C6    C30   A    
C55   O14   S    
C11   C32   A    
C49   C50   S    
C50   H11   S    
C2    C54   A    
C9    C34   S    
C14   H15   S    
C31   C35   A    
C34   O10   A    
C47   H10   S    
N3    Zn2   S    
C52   C53   A    
C64   O22   S    
C44   C50   S    
C46   C47   A    
C48   C49   S    
C31   C55   S    
C23   O8    A    
C45   N1    A    
C14   C15   A    
C48   N4    A    
C4    C5    A    
C10   C13   A    
C65   O24   S    
C8    C53   A    
C3    C52   A    
C60   H25   S    
C9    C24   A    
C59   O20   S    
C29   C35   A    
C62   H31   S    
C13   C17   A    
C32   C33   A    
O24   H36   S    
C7    C51   A    
C11   C13   A    
O14   H16   S    
C38   C39   A    
C66   H39   S    
C30   C66   S    
C15   H14   S    
C12   O7    A    
C56   O15   D    
C62   H30   S    
C2    C3    A    
C43   C60   S    
O6    Zn1   S    
O16   H17   S    
C18   C33   A    
C39   C57   S    
C52   H2    S    
O9    Zn2   S    
C6    H12   S    
O10   Zn1   S    
C55   O13   D    
C11   C29   A    
C66   H38   S    
O18   H18   S    
C42   C43   S    
C27   C28   A    
C63   H32   S    
C67   H40   S    
C36   C43   S    
C58   H19   S    
C25   H5    S    
C61   H28   S    
C23   C40   S    
C64   O21   D    
